MODEL 1
REMARK VINA RESULT:      -6.8      0.000      0.000
REMARK  Name = 
REMARK  10 active torsions:
REMARK  status: ('A' for Active; 'I' for Inactive)
REMARK    1  A    between atoms: C_1  and  C_2
REMARK    2  A    between atoms: C_2  and  O_4
REMARK    3  A    between atoms: O_4  and  C_5
REMARK    4  A    between atoms: C_5  and  C_6
REMARK    5  A    between atoms: C_6  and  C_8
REMARK    6  A    between atoms: C_8  and  O_9
REMARK    7  A    between atoms: C_10  and  C_11
REMARK    8  A    between atoms: C_23  and  C_24
REMARK    9  A    between atoms: C_26  and  O_27
REMARK   10  A    between atoms: C_29  and  C_30
REMARK                            x       y       z     vdW  Elec       q    Type
REMARK                         _______ _______ _______ _____ _____    ______ ____
ROOT
ATOM      1  C   UNL     1       2.620   4.543  19.067  0.00  0.00    +0.000 C 
ATOM      2  C   UNL     1       2.321   4.292  20.577  0.00  0.00    +0.000 C 
ATOM      3  C   UNL     1       1.819   2.957  21.088  0.00  0.00    +0.000 C 
ATOM      4  C   UNL     1       1.362   5.438  20.864  0.00  0.00    +0.000 C 
ATOM      5  C   UNL     1       2.228   6.607  20.415  0.00  0.00    +0.000 C 
ATOM      6  C   UNL     1       1.554   7.997  20.495  0.00  0.00    +0.000 C 
ATOM      7  C   UNL     1       0.318   8.070  21.408  0.00  0.00    +0.000 C 
ATOM      8  C   UNL     1      -0.156   9.316  21.636  0.00  0.00    +0.000 C 
ATOM      9  C   UNL     1      -0.462   9.973  20.360  0.00  0.00    +0.000 C 
ATOM     10  C   UNL     1      -1.720   9.927  19.883  0.00  0.00    +0.000 C 
ATOM     11  C   UNL     1      -1.965  10.243  18.462  0.00  0.00    +0.000 C 
ATOM     12  O   UNL     1      -2.951   9.830  17.868  0.00  0.00    +0.000 OA
ATOM     13  C   UNL     1      -0.950  11.079  17.796  0.00  0.00    +0.000 C 
ATOM     14  C   UNL     1       0.314  11.044  18.240  0.00  0.00    +0.000 C 
ATOM     15  C   UNL     1       0.771  10.228  19.447  0.00  0.00    +0.000 C 
ATOM     16  C   UNL     1       1.868  11.092  20.125  0.00  0.00    +0.000 C 
ATOM     17  C   UNL     1       1.276   8.743  19.145  0.00  0.00    +0.000 C 
ATOM     18  C   UNL     1       2.503   8.505  18.261  0.00  0.00    +0.000 C 
ATOM     19  C   UNL     1       2.526   6.988  17.888  0.00  0.00    +0.000 C 
ATOM     20  C   UNL     1       2.963   6.117  19.095  0.00  0.00    +0.000 C 
ATOM     21  C   UNL     1       4.499   6.287  19.223  0.00  0.00    +0.000 C 
ENDROOT
BRANCH   1  22
ATOM     22  C   UNL     1       3.734   3.558  18.584  0.00  0.00    +0.000 C 
ATOM     23  O   UNL     1       4.452   2.948  19.383  0.00  0.00    +0.000 OA
BRANCH  22  24
ATOM     24  C   UNL     1       3.861   3.345  17.073  0.00  0.00    +0.000 C 
BRANCH  24  25
ATOM     25  O   UNL     1       4.516   4.411  16.368  0.00  0.00    +0.000 OA
BRANCH  25  27
ATOM     26  C   UNL     1       6.031   3.984  14.625  0.00  0.00    +0.000 C 
ATOM     27  C   UNL     1       5.818   4.214  16.102  0.00  0.00    +0.000 C 
ATOM     28  O   UNL     1       6.733   4.286  16.921  0.00  0.00    +0.000 OA
ENDBRANCH  25  27
ENDBRANCH  24  25
ENDBRANCH  22  24
ENDBRANCH   1  22
BRANCH   1  29
ATOM     29  O   UNL     1       1.432   4.337  18.298  0.00  0.00    +0.000 OA
ATOM     30  H   UNL     1       0.657   4.539  18.853  0.00  0.00    +0.000 HD
ENDBRANCH   1  29
BRANCH  18  31
ATOM     31  O   UNL     1       2.486   9.296  17.087  0.00  0.00    +0.000 OA
ATOM     32  H   UNL     1       3.387   9.656  16.982  0.00  0.00    +0.000 HD
ENDBRANCH  18  31
TORSDOF 6
ENDMDL
MODEL 2
REMARK VINA RESULT:      -6.8      8.395     11.364
REMARK  Name = 
REMARK  10 active torsions:
REMARK  status: ('A' for Active; 'I' for Inactive)
REMARK    1  A    between atoms: C_1  and  C_2
REMARK    2  A    between atoms: C_2  and  O_4
REMARK    3  A    between atoms: O_4  and  C_5
REMARK    4  A    between atoms: C_5  and  C_6
REMARK    5  A    between atoms: C_6  and  C_8
REMARK    6  A    between atoms: C_8  and  O_9
REMARK    7  A    between atoms: C_10  and  C_11
REMARK    8  A    between atoms: C_23  and  C_24
REMARK    9  A    between atoms: C_26  and  O_27
REMARK   10  A    between atoms: C_29  and  C_30
REMARK                            x       y       z     vdW  Elec       q    Type
REMARK                         _______ _______ _______ _____ _____    ______ ____
ROOT
ATOM      1  C   UNL     1       6.938  14.214  24.521  0.00  0.00    +0.000 C 
ATOM      2  C   UNL     1       7.542  15.649  24.431  0.00  0.00    +0.000 C 
ATOM      3  C   UNL     1       6.727  16.887  24.743  0.00  0.00    +0.000 C 
ATOM      4  C   UNL     1       8.082  15.634  23.010  0.00  0.00    +0.000 C 
ATOM      5  C   UNL     1       8.977  14.405  23.094  0.00  0.00    +0.000 C 
ATOM      6  C   UNL     1       9.681  14.009  21.775  0.00  0.00    +0.000 C 
ATOM      7  C   UNL     1       9.749  15.120  20.713  0.00  0.00    +0.000 C 
ATOM      8  C   UNL     1      10.529  14.846  19.643  0.00  0.00    +0.000 C 
ATOM      9  C   UNL     1      10.083  13.600  19.007  0.00  0.00    +0.000 C 
ATOM     10  C   UNL     1       9.229  13.663  17.968  0.00  0.00    +0.000 C 
ATOM     11  C   UNL     1       8.490  12.449  17.567  0.00  0.00    +0.000 C 
ATOM     12  O   UNL     1       7.434  12.509  16.953  0.00  0.00    +0.000 OA
ATOM     13  C   UNL     1       9.094  11.162  17.954  0.00  0.00    +0.000 C 
ATOM     14  C   UNL     1       9.874  11.110  19.042  0.00  0.00    +0.000 C 
ATOM     15  C   UNL     1      10.236  12.328  19.889  0.00  0.00    +0.000 C 
ATOM     16  C   UNL     1      11.696  12.077  20.353  0.00  0.00    +0.000 C 
ATOM     17  C   UNL     1       9.263  12.651  21.114  0.00  0.00    +0.000 C 
ATOM     18  C   UNL     1       9.097  11.648  22.258  0.00  0.00    +0.000 C 
ATOM     19  C   UNL     1       7.854  12.091  23.095  0.00  0.00    +0.000 C 
ATOM     20  C   UNL     1       8.170  13.342  23.955  0.00  0.00    +0.000 C 
ATOM     21  C   UNL     1       9.018  12.846  25.155  0.00  0.00    +0.000 C 
ENDROOT
BRANCH   1  22
ATOM     22  C   UNL     1       6.456  13.940  25.983  0.00  0.00    +0.000 C 
ATOM     23  O   UNL     1       6.999  14.473  26.955  0.00  0.00    +0.000 OA
BRANCH  22  24
ATOM     24  C   UNL     1       5.246  13.017  26.151  0.00  0.00    +0.000 C 
BRANCH  24  25
ATOM     25  O   UNL     1       5.329  11.779  25.428  0.00  0.00    +0.000 OA
BRANCH  25  27
ATOM     26  C   UNL     1       5.725  10.581  27.409  0.00  0.00    +0.000 C 
ATOM     27  C   UNL     1       4.958  10.683  26.112  0.00  0.00    +0.000 C 
ATOM     28  O   UNL     1       4.067   9.903  25.783  0.00  0.00    +0.000 OA
ENDBRANCH  25  27
ENDBRANCH  24  25
ENDBRANCH  22  24
ENDBRANCH   1  22
BRANCH   1  29
ATOM     29  O   UNL     1       5.832  14.098  23.622  0.00  0.00    +0.000 OA
ATOM     30  H   UNL     1       6.063  14.527  22.778  0.00  0.00    +0.000 HD
ENDBRANCH   1  29
BRANCH  18  31
ATOM     31  O   UNL     1       8.925  10.321  21.796  0.00  0.00    +0.000 OA
ATOM     32  H   UNL     1       8.223  10.351  21.119  0.00  0.00    +0.000 HD
ENDBRANCH  18  31
TORSDOF 6
ENDMDL
MODEL 3
REMARK VINA RESULT:      -6.6      4.974      8.634
REMARK  Name = 
REMARK  10 active torsions:
REMARK  status: ('A' for Active; 'I' for Inactive)
REMARK    1  A    between atoms: C_1  and  C_2
REMARK    2  A    between atoms: C_2  and  O_4
REMARK    3  A    between atoms: O_4  and  C_5
REMARK    4  A    between atoms: C_5  and  C_6
REMARK    5  A    between atoms: C_6  and  C_8
REMARK    6  A    between atoms: C_8  and  O_9
REMARK    7  A    between atoms: C_10  and  C_11
REMARK    8  A    between atoms: C_23  and  C_24
REMARK    9  A    between atoms: C_26  and  O_27
REMARK   10  A    between atoms: C_29  and  C_30
REMARK                            x       y       z     vdW  Elec       q    Type
REMARK                         _______ _______ _______ _____ _____    ______ ____
ROOT
ATOM      1  C   UNL     1      -1.003  13.087  21.811  0.00  0.00    +0.000 C 
ATOM      2  C   UNL     1      -1.601  14.274  22.627  0.00  0.00    +0.000 C 
ATOM      3  C   UNL     1      -1.167  14.575  24.047  0.00  0.00    +0.000 C 
ATOM      4  C   UNL     1      -3.087  13.970  22.510  0.00  0.00    +0.000 C 
ATOM      5  C   UNL     1      -3.213  13.912  20.994  0.00  0.00    +0.000 C 
ATOM      6  C   UNL     1      -4.618  13.548  20.461  0.00  0.00    +0.000 C 
ATOM      7  C   UNL     1      -5.766  13.735  21.468  0.00  0.00    +0.000 C 
ATOM      8  C   UNL     1      -7.010  13.608  20.954  0.00  0.00    +0.000 C 
ATOM      9  C   UNL     1      -7.149  12.299  20.305  0.00  0.00    +0.000 C 
ATOM     10  C   UNL     1      -7.678  11.275  21.000  0.00  0.00    +0.000 C 
ATOM     11  C   UNL     1      -7.484   9.895  20.511  0.00  0.00    +0.000 C 
ATOM     12  O   UNL     1      -7.548   8.929  21.260  0.00  0.00    +0.000 OA
ATOM     13  C   UNL     1      -7.202   9.747  19.073  0.00  0.00    +0.000 C 
ATOM     14  C   UNL     1      -6.599  10.751  18.421  0.00  0.00    +0.000 C 
ATOM     15  C   UNL     1      -6.233  12.086  19.066  0.00  0.00    +0.000 C 
ATOM     16  C   UNL     1      -6.451  13.145  17.953  0.00  0.00    +0.000 C 
ATOM     17  C   UNL     1      -4.774  12.182  19.709  0.00  0.00    +0.000 C 
ATOM     18  C   UNL     1      -3.528  12.029  18.833  0.00  0.00    +0.000 C 
ATOM     19  C   UNL     1      -2.305  11.830  19.786  0.00  0.00    +0.000 C 
ATOM     20  C   UNL     1      -1.912  13.159  20.482  0.00  0.00    +0.000 C 
ATOM     21  C   UNL     1      -1.166  14.006  19.418  0.00  0.00    +0.000 C 
ENDROOT
BRANCH   1  22
ATOM     22  C   UNL     1       0.541  13.284  21.657  0.00  0.00    +0.000 C 
ATOM     23  O   UNL     1       1.121  14.262  22.138  0.00  0.00    +0.000 OA
BRANCH  22  24
ATOM     24  C   UNL     1       1.308  12.182  20.922  0.00  0.00    +0.000 C 
BRANCH  24  25
ATOM     25  O   UNL     1       1.123  10.861  21.456  0.00  0.00    +0.000 OA
BRANCH  25  27
ATOM     26  C   UNL     1       1.013  10.450  19.146  0.00  0.00    +0.000 C 
ATOM     27  C   UNL     1       0.927   9.892  20.546  0.00  0.00    +0.000 C 
ATOM     28  O   UNL     1       0.776   8.697  20.797  0.00  0.00    +0.000 OA
ENDBRANCH  25  27
ENDBRANCH  24  25
ENDBRANCH  22  24
ENDBRANCH   1  22
BRANCH   1  29
ATOM     29  O   UNL     1      -1.263  11.855  22.489  0.00  0.00    +0.000 OA
ATOM     30  H   UNL     1      -1.014  11.950  23.426  0.00  0.00    +0.000 HD
ENDBRANCH   1  29
BRANCH  18  31
ATOM     31  O   UNL     1      -3.627  10.939  17.935  0.00  0.00    +0.000 OA
ATOM     32  H   UNL     1      -3.984  11.298  17.101  0.00  0.00    +0.000 HD
ENDBRANCH  18  31
TORSDOF 6
ENDMDL
MODEL 4
REMARK VINA RESULT:      -6.5      5.175      8.009
REMARK  Name = 
REMARK  10 active torsions:
REMARK  status: ('A' for Active; 'I' for Inactive)
REMARK    1  A    between atoms: C_1  and  C_2
REMARK    2  A    between atoms: C_2  and  O_4
REMARK    3  A    between atoms: O_4  and  C_5
REMARK    4  A    between atoms: C_5  and  C_6
REMARK    5  A    between atoms: C_6  and  C_8
REMARK    6  A    between atoms: C_8  and  O_9
REMARK    7  A    between atoms: C_10  and  C_11
REMARK    8  A    between atoms: C_23  and  C_24
REMARK    9  A    between atoms: C_26  and  O_27
REMARK   10  A    between atoms: C_29  and  C_30
REMARK                            x       y       z     vdW  Elec       q    Type
REMARK                         _______ _______ _______ _____ _____    ______ ____
ROOT
ATOM      1  C   UNL     1      -0.841  10.788  20.142  0.00  0.00    +0.000 C 
ATOM      2  C   UNL     1      -0.021  10.801  21.469  0.00  0.00    +0.000 C 
ATOM      3  C   UNL     1       0.832   9.627  21.900  0.00  0.00    +0.000 C 
ATOM      4  C   UNL     1      -1.116  11.141  22.468  0.00  0.00    +0.000 C 
ATOM      5  C   UNL     1      -1.632  12.432  21.846  0.00  0.00    +0.000 C 
ATOM      6  C   UNL     1      -2.839  13.076  22.566  0.00  0.00    +0.000 C 
ATOM      7  C   UNL     1      -3.062  12.605  24.013  0.00  0.00    +0.000 C 
ATOM      8  C   UNL     1      -3.989  13.302  24.709  0.00  0.00    +0.000 C 
ATOM      9  C   UNL     1      -5.270  13.280  23.994  0.00  0.00    +0.000 C 
ATOM     10  C   UNL     1      -6.188  12.350  24.321  0.00  0.00    +0.000 C 
ATOM     11  C   UNL     1      -7.298  12.074  23.387  0.00  0.00    +0.000 C 
ATOM     12  O   UNL     1      -7.898  11.008  23.394  0.00  0.00    +0.000 OA
ATOM     13  C   UNL     1      -7.638  13.152  22.442  0.00  0.00    +0.000 C 
ATOM     14  C   UNL     1      -6.684  14.016  22.069  0.00  0.00    +0.000 C 
ATOM     15  C   UNL     1      -5.257  13.995  22.612  0.00  0.00    +0.000 C 
ATOM     16  C   UNL     1      -4.836  15.486  22.699  0.00  0.00    +0.000 C 
ATOM     17  C   UNL     1      -4.202  13.119  21.793  0.00  0.00    +0.000 C 
ATOM     18  C   UNL     1      -3.863  13.469  20.342  0.00  0.00    +0.000 C 
ATOM     19  C   UNL     1      -3.089  12.256  19.734  0.00  0.00    +0.000 C 
ATOM     20  C   UNL     1      -1.639  12.181  20.277  0.00  0.00    +0.000 C 
ATOM     21  C   UNL     1      -0.838  13.285  19.538  0.00  0.00    +0.000 C 
ENDROOT
BRANCH   1  22
ATOM     22  C   UNL     1       0.130  10.613  18.929  0.00  0.00    +0.000 C 
ATOM     23  O   UNL     1       1.323  10.924  19.003  0.00  0.00    +0.000 OA
BRANCH  22  24
ATOM     24  C   UNL     1      -0.456   9.993  17.657  0.00  0.00    +0.000 C 
BRANCH  24  25
ATOM     25  O   UNL     1      -1.557  10.716  17.087  0.00  0.00    +0.000 OA
BRANCH  25  27
ATOM     26  C   UNL     1      -2.989  10.007  15.366  0.00  0.00    +0.000 C 
ATOM     27  C   UNL     1      -2.660   9.990  16.839  0.00  0.00    +0.000 C 
ATOM     28  O   UNL     1      -3.284   9.334  17.671  0.00  0.00    +0.000 OA
ENDBRANCH  25  27
ENDBRANCH  24  25
ENDBRANCH  22  24
ENDBRANCH   1  22
BRANCH   1  29
ATOM     29  O   UNL     1      -1.778   9.709  20.164  0.00  0.00    +0.000 OA
ATOM     30  H   UNL     1      -1.364   8.921  19.767  0.00  0.00    +0.000 HD
ENDBRANCH   1  29
BRANCH  18  31
ATOM     31  O   UNL     1      -5.015  13.750  19.569  0.00  0.00    +0.000 OA
ATOM     32  H   UNL     1      -5.714  14.012  20.197  0.00  0.00    +0.000 HD
ENDBRANCH  18  31
TORSDOF 6
ENDMDL
MODEL 5
REMARK VINA RESULT:      -6.4      5.086      8.681
REMARK  Name = 
REMARK  10 active torsions:
REMARK  status: ('A' for Active; 'I' for Inactive)
REMARK    1  A    between atoms: C_1  and  C_2
REMARK    2  A    between atoms: C_2  and  O_4
REMARK    3  A    between atoms: O_4  and  C_5
REMARK    4  A    between atoms: C_5  and  C_6
REMARK    5  A    between atoms: C_6  and  C_8
REMARK    6  A    between atoms: C_8  and  O_9
REMARK    7  A    between atoms: C_10  and  C_11
REMARK    8  A    between atoms: C_23  and  C_24
REMARK    9  A    between atoms: C_26  and  O_27
REMARK   10  A    between atoms: C_29  and  C_30
REMARK                            x       y       z     vdW  Elec       q    Type
REMARK                         _______ _______ _______ _____ _____    ______ ____
ROOT
ATOM      1  C   UNL     1       4.873  15.804  19.806  0.00  0.00    +0.000 C 
ATOM      2  C   UNL     1       4.111  16.743  20.791  0.00  0.00    +0.000 C 
ATOM      3  C   UNL     1       4.815  17.474  21.915  0.00  0.00    +0.000 C 
ATOM      4  C   UNL     1       3.020  15.804  21.281  0.00  0.00    +0.000 C 
ATOM      5  C   UNL     1       2.413  15.404  19.943  0.00  0.00    +0.000 C 
ATOM      6  C   UNL     1       1.269  14.366  20.021  0.00  0.00    +0.000 C 
ATOM      7  C   UNL     1       0.609  14.225  21.404  0.00  0.00    +0.000 C 
ATOM      8  C   UNL     1      -0.512  13.470  21.433  0.00  0.00    +0.000 C 
ATOM      9  C   UNL     1      -0.226  12.133  20.898  0.00  0.00    +0.000 C 
ATOM     10  C   UNL     1       0.083  11.138  21.751  0.00  0.00    +0.000 C 
ATOM     11  C   UNL     1       0.727   9.916  21.229  0.00  0.00    +0.000 C 
ATOM     12  O   UNL     1       1.401   9.185  21.942  0.00  0.00    +0.000 OA
ATOM     13  C   UNL     1       0.518   9.629  19.799  0.00  0.00    +0.000 C 
ATOM     14  C   UNL     1       0.294  10.648  18.957  0.00  0.00    +0.000 C 
ATOM     15  C   UNL     1       0.178  12.105  19.396  0.00  0.00    +0.000 C 
ATOM     16  C   UNL     1      -0.896  12.724  18.462  0.00  0.00    +0.000 C 
ATOM     17  C   UNL     1       1.532  12.952  19.399  0.00  0.00    +0.000 C 
ATOM     18  C   UNL     1       2.300  13.192  18.097  0.00  0.00    +0.000 C 
ATOM     19  C   UNL     1       3.714  13.737  18.478  0.00  0.00    +0.000 C 
ATOM     20  C   UNL     1       3.640  15.211  18.954  0.00  0.00    +0.000 C 
ATOM     21  C   UNL     1       3.460  16.074  17.677  0.00  0.00    +0.000 C 
ENDROOT
BRANCH   1  22
ATOM     22  C   UNL     1       5.967  16.621  19.044  0.00  0.00    +0.000 C 
ATOM     23  O   UNL     1       5.894  17.848  18.926  0.00  0.00    +0.000 OA
BRANCH  22  24
ATOM     24  C   UNL     1       7.159  15.835  18.493  0.00  0.00    +0.000 C 
BRANCH  24  25
ATOM     25  O   UNL     1       6.819  14.812  17.544  0.00  0.00    +0.000 OA
BRANCH  25  27
ATOM     26  C   UNL     1       8.521  13.760  18.774  0.00  0.00    +0.000 C 
ATOM     27  C   UNL     1       7.534  13.678  17.633  0.00  0.00    +0.000 C 
ATOM     28  O   UNL     1       7.370  12.674  16.943  0.00  0.00    +0.000 OA
ENDBRANCH  25  27
ENDBRANCH  24  25
ENDBRANCH  22  24
ENDBRANCH   1  22
BRANCH   1  29
ATOM     29  O   UNL     1       5.491  14.740  20.535  0.00  0.00    +0.000 OA
ATOM     30  H   UNL     1       4.797  14.193  20.946  0.00  0.00    +0.000 HD
ENDBRANCH   1  29
BRANCH  18  31
ATOM     31  O   UNL     1       2.425  12.017  17.317  0.00  0.00    +0.000 OA
ATOM     32  H   UNL     1       2.357  12.293  16.384  0.00  0.00    +0.000 HD
ENDBRANCH  18  31
TORSDOF 6
ENDMDL
MODEL 6
REMARK VINA RESULT:      -6.3      1.251      1.503
REMARK  Name = 
REMARK  10 active torsions:
REMARK  status: ('A' for Active; 'I' for Inactive)
REMARK    1  A    between atoms: C_1  and  C_2
REMARK    2  A    between atoms: C_2  and  O_4
REMARK    3  A    between atoms: O_4  and  C_5
REMARK    4  A    between atoms: C_5  and  C_6
REMARK    5  A    between atoms: C_6  and  C_8
REMARK    6  A    between atoms: C_8  and  O_9
REMARK    7  A    between atoms: C_10  and  C_11
REMARK    8  A    between atoms: C_23  and  C_24
REMARK    9  A    between atoms: C_26  and  O_27
REMARK   10  A    between atoms: C_29  and  C_30
REMARK                            x       y       z     vdW  Elec       q    Type
REMARK                         _______ _______ _______ _____ _____    ______ ____
ROOT
ATOM      1  C   UNL     1       2.401   5.360  18.677  0.00  0.00    +0.000 C 
ATOM      2  C   UNL     1       2.150   4.981  20.168  0.00  0.00    +0.000 C 
ATOM      3  C   UNL     1       1.669   3.605  20.580  0.00  0.00    +0.000 C 
ATOM      4  C   UNL     1       1.197   6.093  20.580  0.00  0.00    +0.000 C 
ATOM      5  C   UNL     1       2.043   7.301  20.204  0.00  0.00    +0.000 C 
ATOM      6  C   UNL     1       1.367   8.675  20.422  0.00  0.00    +0.000 C 
ATOM      7  C   UNL     1       0.160   8.664  21.375  0.00  0.00    +0.000 C 
ATOM      8  C   UNL     1      -0.311   9.883  21.722  0.00  0.00    +0.000 C 
ATOM      9  C   UNL     1      -0.659  10.644  20.516  0.00  0.00    +0.000 C 
ATOM     10  C   UNL     1      -1.931  10.630  20.075  0.00  0.00    +0.000 C 
ATOM     11  C   UNL     1      -2.221  11.062  18.693  0.00  0.00    +0.000 C 
ATOM     12  O   UNL     1      -3.224  10.694  18.097  0.00  0.00    +0.000 OA
ATOM     13  C   UNL     1      -1.230  11.958  18.070  0.00  0.00    +0.000 C 
ATOM     14  C   UNL     1       0.048  11.893  18.470  0.00  0.00    +0.000 C 
ATOM     15  C   UNL     1       0.544  10.982  19.589  0.00  0.00    +0.000 C 
ATOM     16  C   UNL     1       1.658  11.792  20.305  0.00  0.00    +0.000 C 
ATOM     17  C   UNL     1       1.045   9.530  19.149  0.00  0.00    +0.000 C 
ATOM     18  C   UNL     1       2.245   9.375  18.211  0.00  0.00    +0.000 C 
ATOM     19  C   UNL     1       2.262   7.895  17.711  0.00  0.00    +0.000 C 
ATOM     20  C   UNL     1       2.739   6.929  18.826  0.00  0.00    +0.000 C 
ATOM     21  C   UNL     1       4.278   7.097  18.922  0.00  0.00    +0.000 C 
ENDROOT
BRANCH   1  22
ATOM     22  C   UNL     1       3.504   4.426  18.079  0.00  0.00    +0.000 C 
ATOM     23  O   UNL     1       3.480   4.069  16.897  0.00  0.00    +0.000 OA
BRANCH  22  24
ATOM     24  C   UNL     1       4.643   4.013  19.015  0.00  0.00    +0.000 C 
BRANCH  24  25
ATOM     25  O   UNL     1       5.936   3.941  18.394  0.00  0.00    +0.000 OA
BRANCH  25  27
ATOM     26  C   UNL     1       7.307   5.629  17.507  0.00  0.00    +0.000 C 
ATOM     27  C   UNL     1       6.797   4.914  18.735  0.00  0.00    +0.000 C 
ATOM     28  O   UNL     1       7.082   5.243  19.885  0.00  0.00    +0.000 OA
ENDBRANCH  25  27
ENDBRANCH  24  25
ENDBRANCH  22  24
ENDBRANCH   1  22
BRANCH   1  29
ATOM     29  O   UNL     1       1.191   5.212  17.930  0.00  0.00    +0.000 OA
ATOM     30  H   UNL     1       0.457   5.036  18.547  0.00  0.00    +0.000 HD
ENDBRANCH   1  29
BRANCH  18  31
ATOM     31  O   UNL     1       2.189  10.261  17.108  0.00  0.00    +0.000 OA
ATOM     32  H   UNL     1       1.277  10.221  16.765  0.00  0.00    +0.000 HD
ENDBRANCH  18  31
TORSDOF 6
ENDMDL
MODEL 7
REMARK VINA RESULT:      -6.3      5.483      8.883
REMARK  Name = 
REMARK  10 active torsions:
REMARK  status: ('A' for Active; 'I' for Inactive)
REMARK    1  A    between atoms: C_1  and  C_2
REMARK    2  A    between atoms: C_2  and  O_4
REMARK    3  A    between atoms: O_4  and  C_5
REMARK    4  A    between atoms: C_5  and  C_6
REMARK    5  A    between atoms: C_6  and  C_8
REMARK    6  A    between atoms: C_8  and  O_9
REMARK    7  A    between atoms: C_10  and  C_11
REMARK    8  A    between atoms: C_23  and  C_24
REMARK    9  A    between atoms: C_26  and  O_27
REMARK   10  A    between atoms: C_29  and  C_30
REMARK                            x       y       z     vdW  Elec       q    Type
REMARK                         _______ _______ _______ _____ _____    ______ ____
ROOT
ATOM      1  C   UNL     1      -1.118  12.324  19.441  0.00  0.00    +0.000 C 
ATOM      2  C   UNL     1      -1.447  10.907  18.878  0.00  0.00    +0.000 C 
ATOM      3  C   UNL     1      -0.519  10.184  17.924  0.00  0.00    +0.000 C 
ATOM      4  C   UNL     1      -2.828  11.155  18.293  0.00  0.00    +0.000 C 
ATOM      5  C   UNL     1      -3.532  11.695  19.530  0.00  0.00    +0.000 C 
ATOM      6  C   UNL     1      -4.998  12.138  19.315  0.00  0.00    +0.000 C 
ATOM      7  C   UNL     1      -5.672  11.575  18.053  0.00  0.00    +0.000 C 
ATOM      8  C   UNL     1      -7.002  11.797  17.962  0.00  0.00    +0.000 C 
ATOM      9  C   UNL     1      -7.274  13.236  18.049  0.00  0.00    +0.000 C 
ATOM     10  C   UNL     1      -7.401  13.950  16.914  0.00  0.00    +0.000 C 
ATOM     11  C   UNL     1      -7.298  15.422  16.973  0.00  0.00    +0.000 C 
ATOM     12  O   UNL     1      -6.983  16.088  15.996  0.00  0.00    +0.000 OA
ATOM     13  C   UNL     1      -7.591  16.044  18.277  0.00  0.00    +0.000 C 
ATOM     14  C   UNL     1      -7.378  15.339  19.396  0.00  0.00    +0.000 C 
ATOM     15  C   UNL     1      -6.901  13.888  19.411  0.00  0.00    +0.000 C 
ATOM     16  C   UNL     1      -7.626  13.238  20.619  0.00  0.00    +0.000 C 
ATOM     17  C   UNL     1      -5.320  13.665  19.467  0.00  0.00    +0.000 C 
ATOM     18  C   UNL     1      -4.509  14.159  20.667  0.00  0.00    +0.000 C 
ATOM     19  C   UNL     1      -2.999  14.101  20.269  0.00  0.00    +0.000 C 
ATOM     20  C   UNL     1      -2.477  12.641  20.248  0.00  0.00    +0.000 C 
ATOM     21  C   UNL     1      -2.282  12.225  21.730  0.00  0.00    +0.000 C 
ENDROOT
BRANCH   1  22
ATOM     22  C   UNL     1       0.219  12.269  20.249  0.00  0.00    +0.000 C 
ATOM     23  O   UNL     1       0.830  13.295  20.564  0.00  0.00    +0.000 OA
BRANCH  22  24
ATOM     24  C   UNL     1       0.712  10.884  20.677  0.00  0.00    +0.000 C 
BRANCH  24  25
ATOM     25  O   UNL     1       0.984  10.749  22.081  0.00  0.00    +0.000 OA
BRANCH  25  27
ATOM     26  C   UNL     1      -0.260   8.794  21.695  0.00  0.00    +0.000 C 
ATOM     27  C   UNL     1       0.335   9.750  22.702  0.00  0.00    +0.000 C 
ATOM     28  O   UNL     1       0.287   9.577  23.919  0.00  0.00    +0.000 OA
ENDBRANCH  25  27
ENDBRANCH  24  25
ENDBRANCH  22  24
ENDBRANCH   1  22
BRANCH   1  29
ATOM     29  O   UNL     1      -0.988  13.254  18.363  0.00  0.00    +0.000 OA
ATOM     30  H   UNL     1      -0.065  13.562  18.319  0.00  0.00    +0.000 HD
ENDBRANCH   1  29
BRANCH  18  31
ATOM     31  O   UNL     1      -4.860  15.475  21.054  0.00  0.00    +0.000 OA
ATOM     32  H   UNL     1      -4.488  16.072  20.379  0.00  0.00    +0.000 HD
ENDBRANCH  18  31
TORSDOF 6
ENDMDL
MODEL 8
REMARK VINA RESULT:      -6.3      8.575     11.912
REMARK  Name = 
REMARK  10 active torsions:
REMARK  status: ('A' for Active; 'I' for Inactive)
REMARK    1  A    between atoms: C_1  and  C_2
REMARK    2  A    between atoms: C_2  and  O_4
REMARK    3  A    between atoms: O_4  and  C_5
REMARK    4  A    between atoms: C_5  and  C_6
REMARK    5  A    between atoms: C_6  and  C_8
REMARK    6  A    between atoms: C_8  and  O_9
REMARK    7  A    between atoms: C_10  and  C_11
REMARK    8  A    between atoms: C_23  and  C_24
REMARK    9  A    between atoms: C_26  and  O_27
REMARK   10  A    between atoms: C_29  and  C_30
REMARK                            x       y       z     vdW  Elec       q    Type
REMARK                         _______ _______ _______ _____ _____    ______ ____
ROOT
ATOM      1  C   UNL     1       7.217  15.356  24.136  0.00  0.00    +0.000 C 
ATOM      2  C   UNL     1       8.014  16.667  23.854  0.00  0.00    +0.000 C 
ATOM      3  C   UNL     1       7.376  18.036  23.959  0.00  0.00    +0.000 C 
ATOM      4  C   UNL     1       8.557  16.368  22.465  0.00  0.00    +0.000 C 
ATOM      5  C   UNL     1       9.273  15.055  22.753  0.00  0.00    +0.000 C 
ATOM      6  C   UNL     1       9.924  14.375  21.526  0.00  0.00    +0.000 C 
ATOM      7  C   UNL     1      10.153  15.296  20.315  0.00  0.00    +0.000 C 
ATOM      8  C   UNL     1      10.894  14.763  19.318  0.00  0.00    +0.000 C 
ATOM      9  C   UNL     1      10.285  13.509  18.860  0.00  0.00    +0.000 C 
ATOM     10  C   UNL     1       9.456  13.532  17.799  0.00  0.00    +0.000 C 
ATOM     11  C   UNL     1       8.559  12.383  17.560  0.00  0.00    +0.000 C 
ATOM     12  O   UNL     1       7.525  12.493  16.915  0.00  0.00    +0.000 OA
ATOM     13  C   UNL     1       8.976  11.098  18.148  0.00  0.00    +0.000 C 
ATOM     14  C   UNL     1       9.734  11.103  19.253  0.00  0.00    +0.000 C 
ATOM     15  C   UNL     1      10.255  12.373  19.922  0.00  0.00    +0.000 C 
ATOM     16  C   UNL     1      11.663  11.998  20.457  0.00  0.00    +0.000 C 
ATOM     17  C   UNL     1       9.328  13.004  21.059  0.00  0.00    +0.000 C 
ATOM     18  C   UNL     1       9.017  12.214  22.333  0.00  0.00    +0.000 C 
ATOM     19  C   UNL     1       7.841  12.941  23.062  0.00  0.00    +0.000 C 
ATOM     20  C   UNL     1       8.321  14.251  23.737  0.00  0.00    +0.000 C 
ATOM     21  C   UNL     1       9.084  13.828  25.020  0.00  0.00    +0.000 C 
ENDROOT
BRANCH   1  22
ATOM     22  C   UNL     1       6.692  15.370  25.609  0.00  0.00    +0.000 C 
ATOM     23  O   UNL     1       7.327  15.912  26.519  0.00  0.00    +0.000 OA
BRANCH  22  24
ATOM     24  C   UNL     1       5.327  14.723  25.863  0.00  0.00    +0.000 C 
BRANCH  24  25
ATOM     25  O   UNL     1       5.187  13.391  25.344  0.00  0.00    +0.000 OA
BRANCH  25  27
ATOM     26  C   UNL     1       5.861  11.148  25.520  0.00  0.00    +0.000 C 
ATOM     27  C   UNL     1       5.401  12.401  26.227  0.00  0.00    +0.000 C 
ATOM     28  O   UNL     1       5.316  12.504  27.449  0.00  0.00    +0.000 OA
ENDBRANCH  25  27
ENDBRANCH  24  25
ENDBRANCH  22  24
ENDBRANCH   1  22
BRANCH   1  29
ATOM     29  O   UNL     1       6.112  15.259  23.234  0.00  0.00    +0.000 OA
ATOM     30  H   UNL     1       5.705  14.378  23.326  0.00  0.00    +0.000 HD
ENDBRANCH   1  29
BRANCH  18  31
ATOM     31  O   UNL     1       8.666  10.869  22.065  0.00  0.00    +0.000 OA
ATOM     32  H   UNL     1       9.012  10.663  21.176  0.00  0.00    +0.000 HD
ENDBRANCH  18  31
TORSDOF 6
ENDMDL
MODEL 9
REMARK VINA RESULT:      -6.2      4.653      7.628
REMARK  Name = 
REMARK  10 active torsions:
REMARK  status: ('A' for Active; 'I' for Inactive)
REMARK    1  A    between atoms: C_1  and  C_2
REMARK    2  A    between atoms: C_2  and  O_4
REMARK    3  A    between atoms: O_4  and  C_5
REMARK    4  A    between atoms: C_5  and  C_6
REMARK    5  A    between atoms: C_6  and  C_8
REMARK    6  A    between atoms: C_8  and  O_9
REMARK    7  A    between atoms: C_10  and  C_11
REMARK    8  A    between atoms: C_23  and  C_24
REMARK    9  A    between atoms: C_26  and  O_27
REMARK   10  A    between atoms: C_29  and  C_30
REMARK                            x       y       z     vdW  Elec       q    Type
REMARK                         _______ _______ _______ _____ _____    ______ ____
ROOT
ATOM      1  C   UNL     1      -0.176  11.496  21.005  0.00  0.00    +0.000 C 
ATOM      2  C   UNL     1      -0.018  10.786  22.384  0.00  0.00    +0.000 C 
ATOM      3  C   UNL     1       0.486   9.362  22.504  0.00  0.00    +0.000 C 
ATOM      4  C   UNL     1      -1.415  10.973  22.954  0.00  0.00    +0.000 C 
ATOM      5  C   UNL     1      -1.526  12.489  22.855  0.00  0.00    +0.000 C 
ATOM      6  C   UNL     1      -2.883  13.082  23.297  0.00  0.00    +0.000 C 
ATOM      7  C   UNL     1      -3.745  12.158  24.174  0.00  0.00    +0.000 C 
ATOM      8  C   UNL     1      -4.836  12.737  24.724  0.00  0.00    +0.000 C 
ATOM      9  C   UNL     1      -5.675  13.318  23.669  0.00  0.00    +0.000 C 
ATOM     10  C   UNL     1      -6.700  12.598  23.175  0.00  0.00    +0.000 C 
ATOM     11  C   UNL     1      -7.307  12.995  21.889  0.00  0.00    +0.000 C 
ATOM     12  O   UNL     1      -7.915  12.199  21.188  0.00  0.00    +0.000 OA
ATOM     13  C   UNL     1      -7.132  14.404  21.494  0.00  0.00    +0.000 C 
ATOM     14  C   UNL     1      -6.058  15.075  21.933  0.00  0.00    +0.000 C 
ATOM     15  C   UNL     1      -5.016  14.486  22.881  0.00  0.00    +0.000 C 
ATOM     16  C   UNL     1      -4.582  15.668  23.788  0.00  0.00    +0.000 C 
ATOM     17  C   UNL     1      -3.767  13.763  22.197  0.00  0.00    +0.000 C 
ATOM     18  C   UNL     1      -2.807  14.554  21.303  0.00  0.00    +0.000 C 
ATOM     19  C   UNL     1      -1.924  13.521  20.533  0.00  0.00    +0.000 C 
ATOM     20  C   UNL     1      -0.864  12.879  21.465  0.00  0.00    +0.000 C 
ATOM     21  C   UNL     1       0.247  13.943  21.662  0.00  0.00    +0.000 C 
ENDROOT
BRANCH   1  22
ATOM     22  C   UNL     1       1.214  11.569  20.292  0.00  0.00    +0.000 C 
ATOM     23  O   UNL     1       2.227  11.954  20.884  0.00  0.00    +0.000 OA
BRANCH  22  24
ATOM     24  C   UNL     1       1.271  11.095  18.837  0.00  0.00    +0.000 C 
BRANCH  24  25
ATOM     25  O   UNL     1       0.863   9.733  18.632  0.00  0.00    +0.000 OA
BRANCH  25  27
ATOM     26  C   UNL     1       2.001   7.849  19.452  0.00  0.00    +0.000 C 
ATOM     27  C   UNL     1       1.851   8.869  18.348  0.00  0.00    +0.000 C 
ATOM     28  O   UNL     1       2.503   8.847  17.305  0.00  0.00    +0.000 OA
ENDBRANCH  25  27
ENDBRANCH  24  25
ENDBRANCH  22  24
ENDBRANCH   1  22
BRANCH   1  29
ATOM     29  O   UNL     1      -1.095  10.766  20.188  0.00  0.00    +0.000 OA
ATOM     30  H   UNL     1      -0.855   9.822  20.206  0.00  0.00    +0.000 HD
ENDBRANCH   1  29
BRANCH  18  31
ATOM     31  O   UNL     1      -3.486  15.393  20.387  0.00  0.00    +0.000 OA
ATOM     32  H   UNL     1      -3.061  15.259  19.520  0.00  0.00    +0.000 HD
ENDBRANCH  18  31
TORSDOF 6
ENDMDL
