MODEL 1
REMARK VINA RESULT:      -7.0      0.000      0.000
REMARK  Name = 
REMARK  9 active torsions:
REMARK  status: ('A' for Active; 'I' for Inactive)
REMARK    1  A    between atoms: N_1  and  C_2
REMARK    2  A    between atoms: C_2  and  C_3
REMARK    3  A    between atoms: C_3  and  C_4
REMARK    4  A    between atoms: C_4  and  C_5
REMARK    5  A    between atoms: C_5  and  C_6
REMARK    6  A    between atoms: C_6  and  C_7
REMARK    7  A    between atoms: C_7  and  N_8
REMARK    8  A    between atoms: C_9  and  C_11
REMARK    9  A    between atoms: C_14  and  N_15
REMARK                            x       y       z     vdW  Elec       q    Type
REMARK                         _______ _______ _______ _____ _____    ______ ____
ROOT
ATOM      1  C   UNL     1       2.126   8.035  18.944  0.00  0.00    +0.000 A 
ATOM      2  C   UNL     1       1.628   9.184  18.337  0.00  0.00    +0.000 A 
ATOM      3  C   UNL     1       0.814  10.063  19.055  0.00  0.00    +0.000 A 
ATOM      4  C   UNL     1       0.423   9.798  20.373  0.00  0.00    +0.000 A 
ATOM      5  C   UNL     1       0.942   8.656  20.995  0.00  0.00    +0.000 A 
ATOM      6  C   UNL     1       1.777   7.775  20.280  0.00  0.00    +0.000 A 
ENDROOT
BRANCH   4   7
ATOM      7  N   UNL     1      -0.515  10.624  21.065  0.00  0.00    +0.000 N 
ATOM      8  C   UNL     1      -0.168  11.812  21.649  0.00  0.00    +0.000 C 
ATOM      9  O   UNL     1       0.962  12.295  21.568  0.00  0.00    +0.000 OA
ATOM     10  N   UNL     1      -1.126  12.530  22.313  0.00  0.00    +0.000 N 
ATOM     11  C   UNL     1      -0.711  13.856  22.746  0.00  0.00    +0.000 C 
ATOM     12  C   UNL     1      -1.980  14.507  23.149  0.00  0.00    +0.000 A 
ATOM     13  C   UNL     1      -2.232  15.856  23.313  0.00  0.00    +0.000 A 
ATOM     14  C   UNL     1      -3.464  16.223  23.839  0.00  0.00    +0.000 A 
ATOM     15  C   UNL     1      -4.376  15.238  24.254  0.00  0.00    +0.000 A 
ATOM     16  C   UNL     1      -4.130  13.876  24.012  0.00  0.00    +0.000 A 
ATOM     17  C   UNL     1      -2.953  13.530  23.374  0.00  0.00    +0.000 A 
ATOM     18  C   UNL     1      -2.510  12.241  22.724  0.00  0.00    +0.000 C 
ATOM     19  H   UNL     1      -1.502  10.471  20.891  0.00  0.00    +0.000 HD
ENDBRANCH   4   7
BRANCH   1  21
ATOM     20  N   UNL     1       3.008   5.770  18.658  0.00  0.00    +0.000 N 
ATOM     21  C   UNL     1       2.992   7.072  18.194  0.00  0.00    +0.000 C 
ATOM     22  O   UNL     1       3.625   7.452  17.217  0.00  0.00    +0.000 OA
ATOM     23  H   UNL     1       2.375   5.496  19.397  0.00  0.00    +0.000 HD
BRANCH  20  24
ATOM     24  C   UNL     1       3.784   4.719  18.025  0.00  0.00    +0.000 C 
BRANCH  24  25
ATOM     25  C   UNL     1       2.893   3.667  17.357  0.00  0.00    +0.000 C 
BRANCH  25  26
ATOM     26  C   UNL     1       1.439   3.780  17.830  0.00  0.00    +0.000 C 
BRANCH  26  27
ATOM     27  C   UNL     1       0.981   2.522  18.577  0.00  0.00    +0.000 C 
BRANCH  27  28
ATOM     28  C   UNL     1       1.803   2.285  19.850  0.00  0.00    +0.000 C 
BRANCH  28  29
ATOM     29  C   UNL     1       1.330   3.184  20.994  0.00  0.00    +0.000 C 
BRANCH  29  30
ATOM     30  N   UNL     1       1.611   2.564  22.283  0.00  0.00    +0.000 NA
ATOM     31  H   UNL     1       2.495   2.059  22.230  0.00  0.00    +0.000 HD
ATOM     32  H   UNL     1       0.899   1.865  22.491  0.00  0.00    +0.000 HD
ENDBRANCH  29  30
ENDBRANCH  28  29
ENDBRANCH  27  28
ENDBRANCH  26  27
ENDBRANCH  25  26
ENDBRANCH  24  25
ENDBRANCH  20  24
ENDBRANCH   1  21
TORSDOF 9
ENDMDL
MODEL 2
REMARK VINA RESULT:      -7.0      3.396      3.858
REMARK  Name = 
REMARK  9 active torsions:
REMARK  status: ('A' for Active; 'I' for Inactive)
REMARK    1  A    between atoms: N_1  and  C_2
REMARK    2  A    between atoms: C_2  and  C_3
REMARK    3  A    between atoms: C_3  and  C_4
REMARK    4  A    between atoms: C_4  and  C_5
REMARK    5  A    between atoms: C_5  and  C_6
REMARK    6  A    between atoms: C_6  and  C_7
REMARK    7  A    between atoms: C_7  and  N_8
REMARK    8  A    between atoms: C_9  and  C_11
REMARK    9  A    between atoms: C_14  and  N_15
REMARK                            x       y       z     vdW  Elec       q    Type
REMARK                         _______ _______ _______ _____ _____    ______ ____
ROOT
ATOM      1  C   UNL     1       2.051   7.742  19.361  0.00  0.00    +0.000 A 
ATOM      2  C   UNL     1       1.423   8.424  20.400  0.00  0.00    +0.000 A 
ATOM      3  C   UNL     1       0.911   9.706  20.191  0.00  0.00    +0.000 A 
ATOM      4  C   UNL     1       1.061  10.372  18.968  0.00  0.00    +0.000 A 
ATOM      5  C   UNL     1       1.671   9.680  17.914  0.00  0.00    +0.000 A 
ATOM      6  C   UNL     1       2.174   8.379  18.116  0.00  0.00    +0.000 A 
ENDROOT
BRANCH   4   7
ATOM      7  N   UNL     1       0.659  11.731  18.792  0.00  0.00    +0.000 N 
ATOM      8  C   UNL     1       1.303  12.780  19.391  0.00  0.00    +0.000 C 
ATOM      9  O   UNL     1       2.319  12.641  20.073  0.00  0.00    +0.000 OA
ATOM     10  N   UNL     1       0.837  14.050  19.186  0.00  0.00    +0.000 N 
ATOM     11  C   UNL     1       1.685  15.109  19.713  0.00  0.00    +0.000 C 
ATOM     12  C   UNL     1       1.123  16.342  19.110  0.00  0.00    +0.000 A 
ATOM     13  C   UNL     1       1.723  17.580  18.985  0.00  0.00    +0.000 A 
ATOM     14  C   UNL     1       0.946  18.629  18.512  0.00  0.00    +0.000 A 
ATOM     15  C   UNL     1      -0.420  18.433  18.250  0.00  0.00    +0.000 A 
ATOM     16  C   UNL     1      -0.992  17.151  18.313  0.00  0.00    +0.000 A 
ATOM     17  C   UNL     1      -0.178  16.091  18.666  0.00  0.00    +0.000 A 
ATOM     18  C   UNL     1      -0.379  14.598  18.562  0.00  0.00    +0.000 C 
ATOM     19  H   UNL     1       0.063  11.952  18.002  0.00  0.00    +0.000 HD
ENDBRANCH   4   7
BRANCH   1  21
ATOM     20  N   UNL     1       3.757   6.066  18.840  0.00  0.00    +0.000 N 
ATOM     21  C   UNL     1       2.617   6.371  19.562  0.00  0.00    +0.000 C 
ATOM     22  O   UNL     1       2.080   5.596  20.343  0.00  0.00    +0.000 OA
ATOM     23  H   UNL     1       4.214   6.787  18.302  0.00  0.00    +0.000 HD
BRANCH  20  24
ATOM     24  C   UNL     1       4.431   4.784  18.941  0.00  0.00    +0.000 C 
BRANCH  24  25
ATOM     25  C   UNL     1       4.402   4.012  17.619  0.00  0.00    +0.000 C 
BRANCH  25  26
ATOM     26  C   UNL     1       2.982   3.552  17.266  0.00  0.00    +0.000 C 
BRANCH  26  27
ATOM     27  C   UNL     1       2.743   2.088  17.650  0.00  0.00    +0.000 C 
BRANCH  27  28
ATOM     28  C   UNL     1       2.144   1.959  19.056  0.00  0.00    +0.000 C 
BRANCH  28  29
ATOM     29  C   UNL     1       0.748   2.582  19.126  0.00  0.00    +0.000 C 
BRANCH  29  30
ATOM     30  N   UNL     1       0.522   3.188  20.433  0.00  0.00    +0.000 NA
ATOM     31  H   UNL     1       0.012   4.062  20.316  0.00  0.00    +0.000 HD
ATOM     32  H   UNL     1       1.416   3.436  20.856  0.00  0.00    +0.000 HD
ENDBRANCH  29  30
ENDBRANCH  28  29
ENDBRANCH  27  28
ENDBRANCH  26  27
ENDBRANCH  25  26
ENDBRANCH  24  25
ENDBRANCH  20  24
ENDBRANCH   1  21
TORSDOF 9
ENDMDL
MODEL 3
REMARK VINA RESULT:      -6.9      2.377      3.032
REMARK  Name = 
REMARK  9 active torsions:
REMARK  status: ('A' for Active; 'I' for Inactive)
REMARK    1  A    between atoms: N_1  and  C_2
REMARK    2  A    between atoms: C_2  and  C_3
REMARK    3  A    between atoms: C_3  and  C_4
REMARK    4  A    between atoms: C_4  and  C_5
REMARK    5  A    between atoms: C_5  and  C_6
REMARK    6  A    between atoms: C_6  and  C_7
REMARK    7  A    between atoms: C_7  and  N_8
REMARK    8  A    between atoms: C_9  and  C_11
REMARK    9  A    between atoms: C_14  and  N_15
REMARK                            x       y       z     vdW  Elec       q    Type
REMARK                         _______ _______ _______ _____ _____    ______ ____
ROOT
ATOM      1  C   UNL     1       2.804   7.101  18.522  0.00  0.00    +0.000 A 
ATOM      2  C   UNL     1       2.268   7.317  19.789  0.00  0.00    +0.000 A 
ATOM      3  C   UNL     1       1.496   8.453  20.042  0.00  0.00    +0.000 A 
ATOM      4  C   UNL     1       1.285   9.434  19.067  0.00  0.00    +0.000 A 
ATOM      5  C   UNL     1       1.802   9.210  17.785  0.00  0.00    +0.000 A 
ATOM      6  C   UNL     1       2.568   8.056  17.520  0.00  0.00    +0.000 A 
ENDROOT
BRANCH   4   7
ATOM      7  N   UNL     1       0.610  10.660  19.359  0.00  0.00    +0.000 N 
ATOM      8  C   UNL     1       1.127  11.886  19.039  0.00  0.00    +0.000 C 
ATOM      9  O   UNL     1       2.180  12.029  18.416  0.00  0.00    +0.000 OA
ATOM     10  N   UNL     1       0.425  13.011  19.377  0.00  0.00    +0.000 N 
ATOM     11  C   UNL     1       0.960  14.254  18.843  0.00  0.00    +0.000 C 
ATOM     12  C   UNL     1      -0.120  15.239  19.095  0.00  0.00    +0.000 A 
ATOM     13  C   UNL     1      -0.302  16.474  18.505  0.00  0.00    +0.000 A 
ATOM     14  C   UNL     1      -1.310  17.288  19.006  0.00  0.00    +0.000 A 
ATOM     15  C   UNL     1      -2.054  16.879  20.125  0.00  0.00    +0.000 A 
ATOM     16  C   UNL     1      -1.903  15.590  20.664  0.00  0.00    +0.000 A 
ATOM     17  C   UNL     1      -0.982  14.743  20.076  0.00  0.00    +0.000 A 
ATOM     18  C   UNL     1      -0.767  13.254  20.208  0.00  0.00    +0.000 C 
ATOM     19  H   UNL     1      -0.383  10.619  19.558  0.00  0.00    +0.000 HD
ENDBRANCH   4   7
BRANCH   1  21
ATOM     20  N   UNL     1       3.768   4.971  19.248  0.00  0.00    +0.000 N 
ATOM     21  C   UNL     1       3.644   5.897  18.228  0.00  0.00    +0.000 C 
ATOM     22  O   UNL     1       4.163   5.768  17.127  0.00  0.00    +0.000 OA
ATOM     23  H   UNL     1       3.221   5.081  20.090  0.00  0.00    +0.000 HD
BRANCH  20  24
ATOM     24  C   UNL     1       4.534   3.746  19.108  0.00  0.00    +0.000 C 
BRANCH  24  25
ATOM     25  C   UNL     1       3.861   2.752  18.156  0.00  0.00    +0.000 C 
BRANCH  25  26
ATOM     26  C   UNL     1       2.764   1.949  18.864  0.00  0.00    +0.000 C 
BRANCH  26  27
ATOM     27  C   UNL     1       1.367   2.514  18.580  0.00  0.00    +0.000 C 
BRANCH  27  28
ATOM     28  C   UNL     1       0.730   3.116  19.839  0.00  0.00    +0.000 C 
BRANCH  28  29
ATOM     29  C   UNL     1       1.475   2.682  21.102  0.00  0.00    +0.000 C 
BRANCH  29  30
ATOM     30  N   UNL     1       2.172   3.815  21.701  0.00  0.00    +0.000 NA
ATOM     31  H   UNL     1       2.656   4.337  20.971  0.00  0.00    +0.000 HD
ATOM     32  H   UNL     1       2.896   3.477  22.334  0.00  0.00    +0.000 HD
ENDBRANCH  29  30
ENDBRANCH  28  29
ENDBRANCH  27  28
ENDBRANCH  26  27
ENDBRANCH  25  26
ENDBRANCH  24  25
ENDBRANCH  20  24
ENDBRANCH   1  21
TORSDOF 9
ENDMDL
MODEL 4
REMARK VINA RESULT:      -6.9      3.812      5.132
REMARK  Name = 
REMARK  9 active torsions:
REMARK  status: ('A' for Active; 'I' for Inactive)
REMARK    1  A    between atoms: N_1  and  C_2
REMARK    2  A    between atoms: C_2  and  C_3
REMARK    3  A    between atoms: C_3  and  C_4
REMARK    4  A    between atoms: C_4  and  C_5
REMARK    5  A    between atoms: C_5  and  C_6
REMARK    6  A    between atoms: C_6  and  C_7
REMARK    7  A    between atoms: C_7  and  N_8
REMARK    8  A    between atoms: C_9  and  C_11
REMARK    9  A    between atoms: C_14  and  N_15
REMARK                            x       y       z     vdW  Elec       q    Type
REMARK                         _______ _______ _______ _____ _____    ______ ____
ROOT
ATOM      1  C   UNL     1       1.961   7.743  19.389  0.00  0.00    +0.000 A 
ATOM      2  C   UNL     1       1.328   8.396  20.444  0.00  0.00    +0.000 A 
ATOM      3  C   UNL     1       0.812   9.681  20.267  0.00  0.00    +0.000 A 
ATOM      4  C   UNL     1       0.960  10.378  19.062  0.00  0.00    +0.000 A 
ATOM      5  C   UNL     1       1.574   9.717  17.991  0.00  0.00    +0.000 A 
ATOM      6  C   UNL     1       2.082   8.413  18.160  0.00  0.00    +0.000 A 
ENDROOT
BRANCH   4   7
ATOM      7  N   UNL     1       0.552  11.740  18.920  0.00  0.00    +0.000 N 
ATOM      8  C   UNL     1       1.430  12.788  18.982  0.00  0.00    +0.000 C 
ATOM      9  O   UNL     1       2.647  12.638  19.096  0.00  0.00    +0.000 OA
ATOM     10  N   UNL     1       0.950  14.064  18.859  0.00  0.00    +0.000 N 
ATOM     11  C   UNL     1       1.970  15.097  18.758  0.00  0.00    +0.000 C 
ATOM     12  C   UNL     1       1.210  16.301  18.342  0.00  0.00    +0.000 A 
ATOM     13  C   UNL     1       1.697  17.463  17.774  0.00  0.00    +0.000 A 
ATOM     14  C   UNL     1       0.810  18.517  17.600  0.00  0.00    +0.000 A 
ATOM     15  C   UNL     1      -0.512  18.411  18.064  0.00  0.00    +0.000 A 
ATOM     16  C   UNL     1      -1.005  17.197  18.571  0.00  0.00    +0.000 A 
ATOM     17  C   UNL     1      -0.146  16.116  18.624  0.00  0.00    +0.000 A 
ATOM     18  C   UNL     1      -0.404  14.643  18.836  0.00  0.00    +0.000 C 
ATOM     19  H   UNL     1      -0.351  11.924  18.498  0.00  0.00    +0.000 HD
ENDBRANCH   4   7
BRANCH   1  21
ATOM     20  N   UNL     1       3.350   5.918  18.534  0.00  0.00    +0.000 N 
ATOM     21  C   UNL     1       2.533   6.370  19.555  0.00  0.00    +0.000 C 
ATOM     22  O   UNL     1       2.280   5.720  20.561  0.00  0.00    +0.000 OA
ATOM     23  H   UNL     1       3.610   6.547  17.788  0.00  0.00    +0.000 HD
BRANCH  20  24
ATOM     24  C   UNL     1       3.991   4.615  18.560  0.00  0.00    +0.000 C 
BRANCH  24  25
ATOM     25  C   UNL     1       5.229   4.565  17.660  0.00  0.00    +0.000 C 
BRANCH  25  26
ATOM     26  C   UNL     1       5.540   5.939  17.054  0.00  0.00    +0.000 C 
BRANCH  26  27
ATOM     27  C   UNL     1       5.437   5.926  15.525  0.00  0.00    +0.000 C 
BRANCH  27  28
ATOM     28  C   UNL     1       5.464   4.499  14.965  0.00  0.00    +0.000 C 
BRANCH  28  29
ATOM     29  C   UNL     1       6.637   4.301  14.003  0.00  0.00    +0.000 C 
BRANCH  29  30
ATOM     30  N   UNL     1       7.608   5.380  14.148  0.00  0.00    +0.000 NA
ATOM     31  H   UNL     1       7.266   6.052  14.833  0.00  0.00    +0.000 HD
ATOM     32  H   UNL     1       7.689   5.889  13.268  0.00  0.00    +0.000 HD
ENDBRANCH  29  30
ENDBRANCH  28  29
ENDBRANCH  27  28
ENDBRANCH  26  27
ENDBRANCH  25  26
ENDBRANCH  24  25
ENDBRANCH  20  24
ENDBRANCH   1  21
TORSDOF 9
ENDMDL
MODEL 5
REMARK VINA RESULT:      -6.9      2.071      2.642
REMARK  Name = 
REMARK  9 active torsions:
REMARK  status: ('A' for Active; 'I' for Inactive)
REMARK    1  A    between atoms: N_1  and  C_2
REMARK    2  A    between atoms: C_2  and  C_3
REMARK    3  A    between atoms: C_3  and  C_4
REMARK    4  A    between atoms: C_4  and  C_5
REMARK    5  A    between atoms: C_5  and  C_6
REMARK    6  A    between atoms: C_6  and  C_7
REMARK    7  A    between atoms: C_7  and  N_8
REMARK    8  A    between atoms: C_9  and  C_11
REMARK    9  A    between atoms: C_14  and  N_15
REMARK                            x       y       z     vdW  Elec       q    Type
REMARK                         _______ _______ _______ _____ _____    ______ ____
ROOT
ATOM      1  C   UNL     1       2.727   7.318  18.734  0.00  0.00    +0.000 A 
ATOM      2  C   UNL     1       2.155   7.368  20.003  0.00  0.00    +0.000 A 
ATOM      3  C   UNL     1       1.301   8.417  20.349  0.00  0.00    +0.000 A 
ATOM      4  C   UNL     1       1.037   9.475  19.472  0.00  0.00    +0.000 A 
ATOM      5  C   UNL     1       1.590   9.417  18.186  0.00  0.00    +0.000 A 
ATOM      6  C   UNL     1       2.440   8.351  17.827  0.00  0.00    +0.000 A 
ENDROOT
BRANCH   4   7
ATOM      7  N   UNL     1       0.272  10.615  19.869  0.00  0.00    +0.000 N 
ATOM      8  C   UNL     1      -1.005  10.840  19.432  0.00  0.00    +0.000 C 
ATOM      9  O   UNL     1      -1.620  10.046  18.719  0.00  0.00    +0.000 OA
ATOM     10  N   UNL     1      -1.659  11.970  19.844  0.00  0.00    +0.000 N 
ATOM     11  C   UNL     1      -3.065  12.036  19.477  0.00  0.00    +0.000 C 
ATOM     12  C   UNL     1      -3.584  13.171  20.278  0.00  0.00    +0.000 A 
ATOM     13  C   UNL     1      -4.897  13.467  20.587  0.00  0.00    +0.000 A 
ATOM     14  C   UNL     1      -5.154  14.668  21.234  0.00  0.00    +0.000 A 
ATOM     15  C   UNL     1      -4.108  15.572  21.485  0.00  0.00    +0.000 A 
ATOM     16  C   UNL     1      -2.772  15.221  21.229  0.00  0.00    +0.000 A 
ATOM     17  C   UNL     1      -2.517  13.969  20.699  0.00  0.00    +0.000 A 
ATOM     18  C   UNL     1      -1.236  13.181  20.568  0.00  0.00    +0.000 C 
ATOM     19  H   UNL     1       0.570  11.123  20.693  0.00  0.00    +0.000 HD
ENDBRANCH   4   7
BRANCH   1  21
ATOM     20  N   UNL     1       4.111   5.401  19.366  0.00  0.00    +0.000 N 
ATOM     21  C   UNL     1       3.654   6.211  18.342  0.00  0.00    +0.000 C 
ATOM     22  O   UNL     1       3.956   6.054  17.166  0.00  0.00    +0.000 OA
ATOM     23  H   UNL     1       3.733   5.513  20.296  0.00  0.00    +0.000 HD
BRANCH  20  24
ATOM     24  C   UNL     1       5.001   4.276  19.140  0.00  0.00    +0.000 C 
BRANCH  24  25
ATOM     25  C   UNL     1       4.261   2.936  19.196  0.00  0.00    +0.000 C 
BRANCH  25  26
ATOM     26  C   UNL     1       3.715   2.537  17.819  0.00  0.00    +0.000 C 
BRANCH  26  27
ATOM     27  C   UNL     1       2.222   2.193  17.874  0.00  0.00    +0.000 C 
BRANCH  27  28
ATOM     28  C   UNL     1       1.385   3.370  18.388  0.00  0.00    +0.000 C 
BRANCH  28  29
ATOM     29  C   UNL     1       0.830   3.091  19.786  0.00  0.00    +0.000 C 
BRANCH  29  30
ATOM     30  N   UNL     1       1.224   4.144  20.714  0.00  0.00    +0.000 NA
ATOM     31  H   UNL     1       2.033   4.638  20.341  0.00  0.00    +0.000 HD
ATOM     32  H   UNL     1       1.527   3.731  21.595  0.00  0.00    +0.000 HD
ENDBRANCH  29  30
ENDBRANCH  28  29
ENDBRANCH  27  28
ENDBRANCH  26  27
ENDBRANCH  25  26
ENDBRANCH  24  25
ENDBRANCH  20  24
ENDBRANCH   1  21
TORSDOF 9
ENDMDL
MODEL 6
REMARK VINA RESULT:      -6.9      2.479      4.051
REMARK  Name = 
REMARK  9 active torsions:
REMARK  status: ('A' for Active; 'I' for Inactive)
REMARK    1  A    between atoms: N_1  and  C_2
REMARK    2  A    between atoms: C_2  and  C_3
REMARK    3  A    between atoms: C_3  and  C_4
REMARK    4  A    between atoms: C_4  and  C_5
REMARK    5  A    between atoms: C_5  and  C_6
REMARK    6  A    between atoms: C_6  and  C_7
REMARK    7  A    between atoms: C_7  and  N_8
REMARK    8  A    between atoms: C_9  and  C_11
REMARK    9  A    between atoms: C_14  and  N_15
REMARK                            x       y       z     vdW  Elec       q    Type
REMARK                         _______ _______ _______ _____ _____    ______ ____
ROOT
ATOM      1  C   UNL     1       3.209   5.547  19.071  0.00  0.00    +0.000 A 
ATOM      2  C   UNL     1       2.505   5.290  20.244  0.00  0.00    +0.000 A 
ATOM      3  C   UNL     1       1.702   6.279  20.814  0.00  0.00    +0.000 A 
ATOM      4  C   UNL     1       1.621   7.568  20.273  0.00  0.00    +0.000 A 
ATOM      5  C   UNL     1       2.308   7.824  19.080  0.00  0.00    +0.000 A 
ATOM      6  C   UNL     1       3.106   6.822  18.492  0.00  0.00    +0.000 A 
ENDROOT
BRANCH   4   7
ATOM      7  N   UNL     1       0.909   8.620  20.926  0.00  0.00    +0.000 N 
ATOM      8  C   UNL     1       0.277   9.624  20.243  0.00  0.00    +0.000 C 
ATOM      9  O   UNL     1       0.215   9.663  19.013  0.00  0.00    +0.000 OA
ATOM     10  N   UNL     1      -0.364  10.606  20.948  0.00  0.00    +0.000 N 
ATOM     11  C   UNL     1      -1.154  11.526  20.144  0.00  0.00    +0.000 C 
ATOM     12  C   UNL     1      -1.954  12.271  21.146  0.00  0.00    +0.000 A 
ATOM     13  C   UNL     1      -3.100  13.013  20.940  0.00  0.00    +0.000 A 
ATOM     14  C   UNL     1      -3.598  13.745  22.011  0.00  0.00    +0.000 A 
ATOM     15  C   UNL     1      -2.898  13.775  23.229  0.00  0.00    +0.000 A 
ATOM     16  C   UNL     1      -1.776  12.957  23.440  0.00  0.00    +0.000 A 
ATOM     17  C   UNL     1      -1.363  12.138  22.405  0.00  0.00    +0.000 A 
ATOM     18  C   UNL     1      -0.409  10.968  22.375  0.00  0.00    +0.000 C 
ATOM     19  H   UNL     1       0.632   8.480  21.891  0.00  0.00    +0.000 HD
ENDBRANCH   4   7
BRANCH   1  21
ATOM     20  N   UNL     1       4.079   4.449  17.064  0.00  0.00    +0.000 N 
ATOM     21  C   UNL     1       4.085   4.507  18.445  0.00  0.00    +0.000 C 
ATOM     22  O   UNL     1       4.766   3.775  19.152  0.00  0.00    +0.000 OA
ATOM     23  H   UNL     1       3.584   5.155  16.537  0.00  0.00    +0.000 HD
BRANCH  20  24
ATOM     24  C   UNL     1       4.888   3.506  16.313  0.00  0.00    +0.000 C 
BRANCH  24  25
ATOM     25  C   UNL     1       5.701   4.194  15.212  0.00  0.00    +0.000 C 
BRANCH  25  26
ATOM     26  C   UNL     1       5.853   5.696  15.479  0.00  0.00    +0.000 C 
BRANCH  26  27
ATOM     27  C   UNL     1       7.164   6.019  16.204  0.00  0.00    +0.000 C 
BRANCH  27  28
ATOM     28  C   UNL     1       6.915   6.627  17.589  0.00  0.00    +0.000 C 
BRANCH  28  29
ATOM     29  C   UNL     1       7.638   5.840  18.682  0.00  0.00    +0.000 C 
BRANCH  29  30
ATOM     30  N   UNL     1       7.712   4.426  18.333  0.00  0.00    +0.000 NA
ATOM     31  H   UNL     1       8.230   3.926  19.054  0.00  0.00    +0.000 HD
ATOM     32  H   UNL     1       8.246   4.313  17.472  0.00  0.00    +0.000 HD
ENDBRANCH  29  30
ENDBRANCH  28  29
ENDBRANCH  27  28
ENDBRANCH  26  27
ENDBRANCH  25  26
ENDBRANCH  24  25
ENDBRANCH  20  24
ENDBRANCH   1  21
TORSDOF 9
ENDMDL
MODEL 7
REMARK VINA RESULT:      -6.9      3.607      4.848
REMARK  Name = 
REMARK  9 active torsions:
REMARK  status: ('A' for Active; 'I' for Inactive)
REMARK    1  A    between atoms: N_1  and  C_2
REMARK    2  A    between atoms: C_2  and  C_3
REMARK    3  A    between atoms: C_3  and  C_4
REMARK    4  A    between atoms: C_4  and  C_5
REMARK    5  A    between atoms: C_5  and  C_6
REMARK    6  A    between atoms: C_6  and  C_7
REMARK    7  A    between atoms: C_7  and  N_8
REMARK    8  A    between atoms: C_9  and  C_11
REMARK    9  A    between atoms: C_14  and  N_15
REMARK                            x       y       z     vdW  Elec       q    Type
REMARK                         _______ _______ _______ _____ _____    ______ ____
ROOT
ATOM      1  C   UNL     1       2.965   7.030  18.680  0.00  0.00    +0.000 A 
ATOM      2  C   UNL     1       2.722   8.103  17.827  0.00  0.00    +0.000 A 
ATOM      3  C   UNL     1       1.846   9.121  18.209  0.00  0.00    +0.000 A 
ATOM      4  C   UNL     1       1.141   9.074  19.417  0.00  0.00    +0.000 A 
ATOM      5  C   UNL     1       1.400   8.008  20.289  0.00  0.00    +0.000 A 
ATOM      6  C   UNL     1       2.296   6.988  19.914  0.00  0.00    +0.000 A 
ENDROOT
BRANCH   4   7
ATOM      7  N   UNL     1       0.145  10.043  19.751  0.00  0.00    +0.000 N 
ATOM      8  C   UNL     1      -0.906  10.342  18.927  0.00  0.00    +0.000 C 
ATOM      9  O   UNL     1      -1.114   9.753  17.865  0.00  0.00    +0.000 OA
ATOM     10  N   UNL     1      -1.802  11.300  19.314  0.00  0.00    +0.000 N 
ATOM     11  C   UNL     1      -2.977  11.424  18.464  0.00  0.00    +0.000 C 
ATOM     12  C   UNL     1      -3.891  12.286  19.252  0.00  0.00    +0.000 A 
ATOM     13  C   UNL     1      -5.254  12.451  19.096  0.00  0.00    +0.000 A 
ATOM     14  C   UNL     1      -5.879  13.426  19.862  0.00  0.00    +0.000 A 
ATOM     15  C   UNL     1      -5.119  14.256  20.703  0.00  0.00    +0.000 A 
ATOM     16  C   UNL     1      -3.747  14.025  20.902  0.00  0.00    +0.000 A 
ATOM     17  C   UNL     1      -3.160  12.970  20.227  0.00  0.00    +0.000 A 
ATOM     18  C   UNL     1      -1.829  12.282  20.412  0.00  0.00    +0.000 C 
ATOM     19  H   UNL     1       0.057  10.318  20.723  0.00  0.00    +0.000 HD
ENDBRANCH   4   7
BRANCH   1  21
ATOM     20  N   UNL     1       4.111   5.752  16.935  0.00  0.00    +0.000 N 
ATOM     21  C   UNL     1       3.891   5.921  18.290  0.00  0.00    +0.000 C 
ATOM     22  O   UNL     1       4.419   5.232  19.154  0.00  0.00    +0.000 OA
ATOM     23  H   UNL     1       3.736   6.425  16.282  0.00  0.00    +0.000 HD
BRANCH  20  24
ATOM     24  C   UNL     1       4.996   4.732  16.404  0.00  0.00    +0.000 C 
BRANCH  24  25
ATOM     25  C   UNL     1       6.392   5.283  16.096  0.00  0.00    +0.000 C 
BRANCH  25  26
ATOM     26  C   UNL     1       6.950   4.705  14.790  0.00  0.00    +0.000 C 
BRANCH  26  27
ATOM     27  C   UNL     1       5.863   4.011  13.961  0.00  0.00    +0.000 C 
BRANCH  27  28
ATOM     28  C   UNL     1       6.368   3.631  12.564  0.00  0.00    +0.000 C 
BRANCH  28  29
ATOM     29  C   UNL     1       5.363   2.742  11.830  0.00  0.00    +0.000 C 
BRANCH  29  30
ATOM     30  N   UNL     1       5.978   1.474  11.456  0.00  0.00    +0.000 NA
ATOM     31  H   UNL     1       5.706   0.756  12.128  0.00  0.00    +0.000 HD
ATOM     32  H   UNL     1       6.992   1.552  11.520  0.00  0.00    +0.000 HD
ENDBRANCH  29  30
ENDBRANCH  28  29
ENDBRANCH  27  28
ENDBRANCH  26  27
ENDBRANCH  25  26
ENDBRANCH  24  25
ENDBRANCH  20  24
ENDBRANCH   1  21
TORSDOF 9
ENDMDL
MODEL 8
REMARK VINA RESULT:      -6.8      7.358      9.230
REMARK  Name = 
REMARK  9 active torsions:
REMARK  status: ('A' for Active; 'I' for Inactive)
REMARK    1  A    between atoms: N_1  and  C_2
REMARK    2  A    between atoms: C_2  and  C_3
REMARK    3  A    between atoms: C_3  and  C_4
REMARK    4  A    between atoms: C_4  and  C_5
REMARK    5  A    between atoms: C_5  and  C_6
REMARK    6  A    between atoms: C_6  and  C_7
REMARK    7  A    between atoms: C_7  and  N_8
REMARK    8  A    between atoms: C_9  and  C_11
REMARK    9  A    between atoms: C_14  and  N_15
REMARK                            x       y       z     vdW  Elec       q    Type
REMARK                         _______ _______ _______ _____ _____    ______ ____
ROOT
ATOM      1  C   UNL     1       5.183   4.998  17.098  0.00  0.00    +0.000 A 
ATOM      2  C   UNL     1       6.560   5.043  16.892  0.00  0.00    +0.000 A 
ATOM      3  C   UNL     1       7.255   6.244  17.043  0.00  0.00    +0.000 A 
ATOM      4  C   UNL     1       6.600   7.444  17.343  0.00  0.00    +0.000 A 
ATOM      5  C   UNL     1       5.220   7.400  17.575  0.00  0.00    +0.000 A 
ATOM      6  C   UNL     1       4.516   6.186  17.440  0.00  0.00    +0.000 A 
ENDROOT
BRANCH   4   7
ATOM      7  N   UNL     1       7.288   8.697  17.367  0.00  0.00    +0.000 N 
ATOM      8  C   UNL     1       8.289   8.976  18.257  0.00  0.00    +0.000 C 
ATOM      9  O   UNL     1       8.723   8.149  19.061  0.00  0.00    +0.000 OA
ATOM     10  N   UNL     1       8.880  10.210  18.226  0.00  0.00    +0.000 N 
ATOM     11  C   UNL     1      10.047  10.356  19.083  0.00  0.00    +0.000 C 
ATOM     12  C   UNL     1      10.648  11.638  18.643  0.00  0.00    +0.000 A 
ATOM     13  C   UNL     1      11.932  12.098  18.863  0.00  0.00    +0.000 A 
ATOM     14  C   UNL     1      12.228  13.399  18.477  0.00  0.00    +0.000 A 
ATOM     15  C   UNL     1      11.218  14.226  17.956  0.00  0.00    +0.000 A 
ATOM     16  C   UNL     1       9.940  13.717  17.673  0.00  0.00    +0.000 A 
ATOM     17  C   UNL     1       9.694  12.384  17.946  0.00  0.00    +0.000 A 
ATOM     18  C   UNL     1       8.571  11.467  17.524  0.00  0.00    +0.000 C 
ATOM     19  H   UNL     1       7.228   9.288  16.546  0.00  0.00    +0.000 HD
ENDBRANCH   4   7
BRANCH   1  21
ATOM     20  N   UNL     1       4.465   2.834  17.987  0.00  0.00    +0.000 N 
ATOM     21  C   UNL     1       4.413   3.726  16.932  0.00  0.00    +0.000 C 
ATOM     22  O   UNL     1       3.771   3.529  15.908  0.00  0.00    +0.000 OA
ATOM     23  H   UNL     1       4.918   3.107  18.848  0.00  0.00    +0.000 HD
BRANCH  20  24
ATOM     24  C   UNL     1       3.756   1.567  17.981  0.00  0.00    +0.000 C 
BRANCH  24  25
ATOM     25  C   UNL     1       2.607   1.545  18.992  0.00  0.00    +0.000 C 
BRANCH  25  26
ATOM     26  C   UNL     1       1.469   2.482  18.571  0.00  0.00    +0.000 C 
BRANCH  26  27
ATOM     27  C   UNL     1       0.734   3.069  19.782  0.00  0.00    +0.000 C 
BRANCH  27  28
ATOM     28  C   UNL     1       1.348   4.401  20.229  0.00  0.00    +0.000 C 
BRANCH  28  29
ATOM     29  C   UNL     1       2.341   4.200  21.375  0.00  0.00    +0.000 C 
BRANCH  29  30
ATOM     30  N   UNL     1       2.009   3.002  22.137  0.00  0.00    +0.000 NA
ATOM     31  H   UNL     1       1.129   2.618  21.796  0.00  0.00    +0.000 HD
ATOM     32  H   UNL     1       1.850   3.249  23.113  0.00  0.00    +0.000 HD
ENDBRANCH  29  30
ENDBRANCH  28  29
ENDBRANCH  27  28
ENDBRANCH  26  27
ENDBRANCH  25  26
ENDBRANCH  24  25
ENDBRANCH  20  24
ENDBRANCH   1  21
TORSDOF 9
ENDMDL
MODEL 9
REMARK VINA RESULT:      -6.8      1.964      2.614
REMARK  Name = 
REMARK  9 active torsions:
REMARK  status: ('A' for Active; 'I' for Inactive)
REMARK    1  A    between atoms: N_1  and  C_2
REMARK    2  A    between atoms: C_2  and  C_3
REMARK    3  A    between atoms: C_3  and  C_4
REMARK    4  A    between atoms: C_4  and  C_5
REMARK    5  A    between atoms: C_5  and  C_6
REMARK    6  A    between atoms: C_6  and  C_7
REMARK    7  A    between atoms: C_7  and  N_8
REMARK    8  A    between atoms: C_9  and  C_11
REMARK    9  A    between atoms: C_14  and  N_15
REMARK                            x       y       z     vdW  Elec       q    Type
REMARK                         _______ _______ _______ _____ _____    ______ ____
ROOT
ATOM      1  C   UNL     1       2.582   7.051  18.633  0.00  0.00    +0.000 A 
ATOM      2  C   UNL     1       2.089   7.184  19.928  0.00  0.00    +0.000 A 
ATOM      3  C   UNL     1       1.425   8.351  20.311  0.00  0.00    +0.000 A 
ATOM      4  C   UNL     1       1.284   9.440  19.443  0.00  0.00    +0.000 A 
ATOM      5  C   UNL     1       1.757   9.301  18.132  0.00  0.00    +0.000 A 
ATOM      6  C   UNL     1       2.413   8.118  17.736  0.00  0.00    +0.000 A 
ENDROOT
BRANCH   4   7
ATOM      7  N   UNL     1       0.725  10.683  19.872  0.00  0.00    +0.000 N 
ATOM      8  C   UNL     1      -0.578  11.031  19.638  0.00  0.00    +0.000 C 
ATOM      9  O   UNL     1      -1.388  10.274  19.101  0.00  0.00    +0.000 OA
ATOM     10  N   UNL     1      -1.026  12.252  20.063  0.00  0.00    +0.000 N 
ATOM     11  C   UNL     1      -2.460  12.462  19.932  0.00  0.00    +0.000 C 
ATOM     12  C   UNL     1      -2.709  13.695  20.717  0.00  0.00    +0.000 A 
ATOM     13  C   UNL     1      -3.910  14.160  21.216  0.00  0.00    +0.000 A 
ATOM     14  C   UNL     1      -3.922  15.419  21.802  0.00  0.00    +0.000 A 
ATOM     15  C   UNL     1      -2.758  16.206  21.805  0.00  0.00    +0.000 A 
ATOM     16  C   UNL     1      -1.531  15.686  21.359  0.00  0.00    +0.000 A 
ATOM     17  C   UNL     1      -1.506  14.385  20.892  0.00  0.00    +0.000 A 
ATOM     18  C   UNL     1      -0.358  13.445  20.611  0.00  0.00    +0.000 C 
ATOM     19  H   UNL     1       1.214  11.200  20.594  0.00  0.00    +0.000 HD
ENDBRANCH   4   7
BRANCH   1  21
ATOM     20  N   UNL     1       2.543   4.837  17.589  0.00  0.00    +0.000 N 
ATOM     21  C   UNL     1       3.307   5.815  18.200  0.00  0.00    +0.000 C 
ATOM     22  O   UNL     1       4.514   5.718  18.382  0.00  0.00    +0.000 OA
ATOM     23  H   UNL     1       1.576   5.027  17.366  0.00  0.00    +0.000 HD
BRANCH  20  24
ATOM     24  C   UNL     1       3.106   3.592  17.100  0.00  0.00    +0.000 C 
BRANCH  24  25
ATOM     25  C   UNL     1       2.336   2.371  17.614  0.00  0.00    +0.000 C 
BRANCH  25  26
ATOM     26  C   UNL     1       1.339   2.757  18.712  0.00  0.00    +0.000 C 
BRANCH  26  27
ATOM     27  C   UNL     1       1.773   2.238  20.088  0.00  0.00    +0.000 C 
BRANCH  27  28
ATOM     28  C   UNL     1       2.951   3.042  20.653  0.00  0.00    +0.000 C 
BRANCH  28  29
ATOM     29  C   UNL     1       4.258   2.251  20.567  0.00  0.00    +0.000 C 
BRANCH  29  30
ATOM     30  N   UNL     1       5.207   2.922  19.687  0.00  0.00    +0.000 NA
ATOM     31  H   UNL     1       4.708   3.321  18.894  0.00  0.00    +0.000 HD
ATOM     32  H   UNL     1       5.857   2.240  19.298  0.00  0.00    +0.000 HD
ENDBRANCH  29  30
ENDBRANCH  28  29
ENDBRANCH  27  28
ENDBRANCH  26  27
ENDBRANCH  25  26
ENDBRANCH  24  25
ENDBRANCH  20  24
ENDBRANCH   1  21
TORSDOF 9
ENDMDL
