MODEL 1
REMARK VINA RESULT:      -7.5      0.000      0.000
REMARK  Name = 
REMARK  5 active torsions:
REMARK  status: ('A' for Active; 'I' for Inactive)
REMARK    1  A    between atoms: C_1  and  C_2
REMARK    2  A    between atoms: C_4  and  O_5
REMARK    3  A    between atoms: O_5  and  C_6
REMARK    4  A    between atoms: C_6  and  C_7
REMARK    5  A    between atoms: C_18  and  N_19
REMARK                            x       y       z     vdW  Elec       q    Type
REMARK                         _______ _______ _______ _____ _____    ______ ____
ROOT
ATOM      1  O   UNL     1       6.042   4.228  18.867  0.00  0.00    +0.000 OA
ENDROOT
BRANCH   1   5
ATOM      2  C   UNL     1       1.707   6.001  20.540  0.00  0.00    +0.000 C 
ATOM      3  C   UNL     1       2.597   4.846  20.167  0.00  0.00    +0.000 A 
ATOM      4  C   UNL     1       3.892   5.116  19.680  0.00  0.00    +0.000 A 
ATOM      5  C   UNL     1       4.762   4.081  19.333  0.00  0.00    +0.000 A 
ATOM      6  C   UNL     1       4.333   2.764  19.477  0.00  0.00    +0.000 A 
ATOM      7  C   UNL     1       3.055   2.486  19.968  0.00  0.00    +0.000 A 
ATOM      8  C   UNL     1       2.160   3.515  20.280  0.00  0.00    +0.000 A 
BRANCH   8   9
ATOM      9  N   UNL     1       0.950   3.193  20.914  0.00  0.00    +0.000 N 
ATOM     10  H   UNL     1       1.029   3.083  21.920  0.00  0.00    +0.000 HD
ATOM     11  H   UNL     1       0.441   2.428  20.484  0.00  0.00    +0.000 HD
ENDBRANCH   8   9
ENDBRANCH   1   5
BRANCH   1  12
ATOM     12  C   UNL     1       6.304   5.399  18.093  0.00  0.00    +0.000 C 
BRANCH  12  13
ATOM     13  C   UNL     1       6.409   5.003  16.648  0.00  0.00    +0.000 A 
ATOM     14  N   UNL     1       7.295   5.504  15.812  0.00  0.00    +0.000 NA
ATOM     15  C   UNL     1       7.098   4.987  14.544  0.00  0.00    +0.000 A 
ATOM     16  C   UNL     1       7.860   5.296  13.399  0.00  0.00    +0.000 A 
ATOM     17  C   UNL     1       7.549   4.701  12.173  0.00  0.00    +0.000 A 
ATOM     18  C   UNL     1       6.488   3.805  12.075  0.00  0.00    +0.000 A 
ATOM     19  C   UNL     1       5.714   3.484  13.195  0.00  0.00    +0.000 A 
ATOM     20  C   UNL     1       6.037   4.088  14.422  0.00  0.00    +0.000 A 
ATOM     21  S   UNL     1       5.279   3.905  15.958  0.00  0.00    +0.000 S 
ENDBRANCH  12  13
ENDBRANCH   1  12
TORSDOF 4
ENDMDL
MODEL 2
REMARK VINA RESULT:      -7.3      5.039      8.248
REMARK  Name = 
REMARK  5 active torsions:
REMARK  status: ('A' for Active; 'I' for Inactive)
REMARK    1  A    between atoms: C_1  and  C_2
REMARK    2  A    between atoms: C_4  and  O_5
REMARK    3  A    between atoms: O_5  and  C_6
REMARK    4  A    between atoms: C_6  and  C_7
REMARK    5  A    between atoms: C_18  and  N_19
REMARK                            x       y       z     vdW  Elec       q    Type
REMARK                         _______ _______ _______ _____ _____    ______ ____
ROOT
ATOM      1  O   UNL     1       2.922   7.016  19.213  0.00  0.00    +0.000 OA
ENDROOT
BRANCH   1   5
ATOM      2  C   UNL     1       1.338   2.812  21.346  0.00  0.00    +0.000 C 
ATOM      3  C   UNL     1       1.632   3.632  20.118  0.00  0.00    +0.000 A 
ATOM      4  C   UNL     1       2.124   4.943  20.278  0.00  0.00    +0.000 A 
ATOM      5  C   UNL     1       2.426   5.740  19.174  0.00  0.00    +0.000 A 
ATOM      6  C   UNL     1       2.236   5.219  17.895  0.00  0.00    +0.000 A 
ATOM      7  C   UNL     1       1.758   3.918  17.726  0.00  0.00    +0.000 A 
ATOM      8  C   UNL     1       1.414   3.124  18.826  0.00  0.00    +0.000 A 
BRANCH   8   9
ATOM      9  N   UNL     1       1.088   1.776  18.614  0.00  0.00    +0.000 N 
ATOM     10  H   UNL     1       1.888   1.187  18.404  0.00  0.00    +0.000 HD
ATOM     11  H   UNL     1       0.322   1.625  17.967  0.00  0.00    +0.000 HD
ENDBRANCH   8   9
ENDBRANCH   1   5
BRANCH   1  12
ATOM     12  C   UNL     1       2.194   8.002  18.479  0.00  0.00    +0.000 C 
BRANCH  12  13
ATOM     13  C   UNL     1       1.414   8.841  19.449  0.00  0.00    +0.000 A 
ATOM     14  N   UNL     1       1.284   8.555  20.729  0.00  0.00    +0.000 NA
ATOM     15  C   UNL     1       0.460   9.482  21.342  0.00  0.00    +0.000 A 
ATOM     16  C   UNL     1       0.100   9.491  22.706  0.00  0.00    +0.000 A 
ATOM     17  C   UNL     1      -0.747  10.489  23.195  0.00  0.00    +0.000 A 
ATOM     18  C   UNL     1      -1.240  11.474  22.345  0.00  0.00    +0.000 A 
ATOM     19  C   UNL     1      -0.900  11.485  20.988  0.00  0.00    +0.000 A 
ATOM     20  C   UNL     1      -0.047  10.478  20.507  0.00  0.00    +0.000 A 
ATOM     21  S   UNL     1       0.540  10.220  18.908  0.00  0.00    +0.000 S 
ENDBRANCH  12  13
ENDBRANCH   1  12
TORSDOF 4
ENDMDL
MODEL 3
REMARK VINA RESULT:      -7.2      5.118      8.472
REMARK  Name = 
REMARK  5 active torsions:
REMARK  status: ('A' for Active; 'I' for Inactive)
REMARK    1  A    between atoms: C_1  and  C_2
REMARK    2  A    between atoms: C_4  and  O_5
REMARK    3  A    between atoms: O_5  and  C_6
REMARK    4  A    between atoms: C_6  and  C_7
REMARK    5  A    between atoms: C_18  and  N_19
REMARK                            x       y       z     vdW  Elec       q    Type
REMARK                         _______ _______ _______ _____ _____    ______ ____
ROOT
ATOM      1  O   UNL     1       2.770   7.139  19.603  0.00  0.00    +0.000 OA
ENDROOT
BRANCH   1   5
ATOM      2  C   UNL     1       1.310   2.730  21.381  0.00  0.00    +0.000 C 
ATOM      3  C   UNL     1       1.599   3.649  20.225  0.00  0.00    +0.000 A 
ATOM      4  C   UNL     1       2.033   4.963  20.493  0.00  0.00    +0.000 A 
ATOM      5  C   UNL     1       2.328   5.850  19.458  0.00  0.00    +0.000 A 
ATOM      6  C   UNL     1       2.191   5.418  18.141  0.00  0.00    +0.000 A 
ATOM      7  C   UNL     1       1.772   4.115  17.864  0.00  0.00    +0.000 A 
ATOM      8  C   UNL     1       1.434   3.229  18.893  0.00  0.00    +0.000 A 
BRANCH   8   9
ATOM      9  N   UNL     1       1.170   1.889  18.575  0.00  0.00    +0.000 N 
ATOM     10  H   UNL     1       0.501   1.442  19.196  0.00  0.00    +0.000 HD
ATOM     11  H   UNL     1       1.997   1.320  18.432  0.00  0.00    +0.000 HD
ENDBRANCH   8   9
ENDBRANCH   1   5
BRANCH   1  12
ATOM     12  C   UNL     1       2.067   8.137  18.860  0.00  0.00    +0.000 C 
BRANCH  12  13
ATOM     13  C   UNL     1       1.192   8.908  19.806  0.00  0.00    +0.000 A 
ATOM     14  N   UNL     1       0.471   9.952  19.453  0.00  0.00    +0.000 NA
ATOM     15  C   UNL     1      -0.177  10.479  20.556  0.00  0.00    +0.000 A 
ATOM     16  C   UNL     1      -1.035  11.598  20.553  0.00  0.00    +0.000 A 
ATOM     17  C   UNL     1      -1.623  12.027  21.747  0.00  0.00    +0.000 A 
ATOM     18  C   UNL     1      -1.365  11.358  22.939  0.00  0.00    +0.000 A 
ATOM     19  C   UNL     1      -0.514  10.248  22.970  0.00  0.00    +0.000 A 
ATOM     20  C   UNL     1       0.070   9.825  21.764  0.00  0.00    +0.000 A 
ATOM     21  S   UNL     1       1.152   8.515  21.480  0.00  0.00    +0.000 S 
ENDBRANCH  12  13
ENDBRANCH   1  12
TORSDOF 4
ENDMDL
MODEL 4
REMARK VINA RESULT:      -7.0      0.766      1.536
REMARK  Name = 
REMARK  5 active torsions:
REMARK  status: ('A' for Active; 'I' for Inactive)
REMARK    1  A    between atoms: C_1  and  C_2
REMARK    2  A    between atoms: C_4  and  O_5
REMARK    3  A    between atoms: O_5  and  C_6
REMARK    4  A    between atoms: C_6  and  C_7
REMARK    5  A    between atoms: C_18  and  N_19
REMARK                            x       y       z     vdW  Elec       q    Type
REMARK                         _______ _______ _______ _____ _____    ______ ____
ROOT
ATOM      1  O   UNL     1       6.083   4.106  18.626  0.00  0.00    +0.000 OA
ENDROOT
BRANCH   1   5
ATOM      2  C   UNL     1       2.073   2.646  21.181  0.00  0.00    +0.000 C 
ATOM      3  C   UNL     1       2.848   3.707  20.446  0.00  0.00    +0.000 A 
ATOM      4  C   UNL     1       4.107   3.378  19.906  0.00  0.00    +0.000 A 
ATOM      5  C   UNL     1       4.860   4.320  19.204  0.00  0.00    +0.000 A 
ATOM      6  C   UNL     1       4.345   5.605  19.038  0.00  0.00    +0.000 A 
ATOM      7  C   UNL     1       3.094   5.938  19.561  0.00  0.00    +0.000 A 
ATOM      8  C   UNL     1       2.349   5.014  20.301  0.00  0.00    +0.000 A 
BRANCH   8   9
ATOM      9  N   UNL     1       1.036   5.341  20.671  0.00  0.00    +0.000 N 
ATOM     10  H   UNL     1       0.562   4.613  21.197  0.00  0.00    +0.000 HD
ATOM     11  H   UNL     1       0.463   5.701  19.915  0.00  0.00    +0.000 HD
ENDBRANCH   8   9
ENDBRANCH   1   5
BRANCH   1  12
ATOM     12  C   UNL     1       6.648   5.207  17.913  0.00  0.00    +0.000 C 
BRANCH  12  13
ATOM     13  C   UNL     1       6.683   4.862  16.452  0.00  0.00    +0.000 A 
ATOM     14  N   UNL     1       7.481   5.442  15.579  0.00  0.00    +0.000 NA
ATOM     15  C   UNL     1       7.234   4.952  14.309  0.00  0.00    +0.000 A 
ATOM     16  C   UNL     1       7.901   5.342  13.130  0.00  0.00    +0.000 A 
ATOM     17  C   UNL     1       7.547   4.765  11.906  0.00  0.00    +0.000 A 
ATOM     18  C   UNL     1       6.538   3.808  11.844  0.00  0.00    +0.000 A 
ATOM     19  C   UNL     1       5.859   3.406  12.999  0.00  0.00    +0.000 A 
ATOM     20  C   UNL     1       6.224   3.992  14.223  0.00  0.00    +0.000 A 
ATOM     21  S   UNL     1       5.580   3.716  15.797  0.00  0.00    +0.000 S 
ENDBRANCH  12  13
ENDBRANCH   1  12
TORSDOF 4
ENDMDL
MODEL 5
REMARK VINA RESULT:      -7.0      4.329      7.847
REMARK  Name = 
REMARK  5 active torsions:
REMARK  status: ('A' for Active; 'I' for Inactive)
REMARK    1  A    between atoms: C_1  and  C_2
REMARK    2  A    between atoms: C_4  and  O_5
REMARK    3  A    between atoms: O_5  and  C_6
REMARK    4  A    between atoms: C_6  and  C_7
REMARK    5  A    between atoms: C_18  and  N_19
REMARK                            x       y       z     vdW  Elec       q    Type
REMARK                         _______ _______ _______ _____ _____    ______ ____
ROOT
ATOM      1  O   UNL     1       2.000   6.318  18.075  0.00  0.00    +0.000 OA
ENDROOT
BRANCH   1   5
ATOM      2  C   UNL     1       2.480   2.749  21.506  0.00  0.00    +0.000 C 
ATOM      3  C   UNL     1       2.939   3.426  20.242  0.00  0.00    +0.000 A 
ATOM      4  C   UNL     1       2.221   4.544  19.771  0.00  0.00    +0.000 A 
ATOM      5  C   UNL     1       2.612   5.216  18.612  0.00  0.00    +0.000 A 
ATOM      6  C   UNL     1       3.735   4.768  17.920  0.00  0.00    +0.000 A 
ATOM      7  C   UNL     1       4.459   3.667  18.384  0.00  0.00    +0.000 A 
ATOM      8  C   UNL     1       4.053   2.960  19.521  0.00  0.00    +0.000 A 
BRANCH   8   9
ATOM      9  N   UNL     1       4.894   1.963  20.036  0.00  0.00    +0.000 N 
ATOM     10  H   UNL     1       4.674   1.028  19.707  0.00  0.00    +0.000 HD
ATOM     11  H   UNL     1       5.015   1.995  21.043  0.00  0.00    +0.000 HD
ENDBRANCH   8   9
ENDBRANCH   1   5
BRANCH   1  12
ATOM     12  C   UNL     1       2.673   7.565  18.254  0.00  0.00    +0.000 C 
BRANCH  12  13
ATOM     13  C   UNL     1       1.875   8.406  19.209  0.00  0.00    +0.000 A 
ATOM     14  N   UNL     1       1.695   8.105  20.479  0.00  0.00    +0.000 NA
ATOM     15  C   UNL     1       0.867   9.038  21.077  0.00  0.00    +0.000 A 
ATOM     16  C   UNL     1       0.460   9.035  22.427  0.00  0.00    +0.000 A 
ATOM     17  C   UNL     1      -0.386  10.042  22.901  0.00  0.00    +0.000 A 
ATOM     18  C   UNL     1      -0.831  11.047  22.048  0.00  0.00    +0.000 A 
ATOM     19  C   UNL     1      -0.444  11.071  20.704  0.00  0.00    +0.000 A 
ATOM     20  C   UNL     1       0.407  10.055  20.239  0.00  0.00    +0.000 A 
ATOM     21  S   UNL     1       1.045   9.808  18.658  0.00  0.00    +0.000 S 
ENDBRANCH  12  13
ENDBRANCH   1  12
TORSDOF 4
ENDMDL
MODEL 6
REMARK VINA RESULT:      -6.9      4.276      8.017
REMARK  Name = 
REMARK  5 active torsions:
REMARK  status: ('A' for Active; 'I' for Inactive)
REMARK    1  A    between atoms: C_1  and  C_2
REMARK    2  A    between atoms: C_4  and  O_5
REMARK    3  A    between atoms: O_5  and  C_6
REMARK    4  A    between atoms: C_6  and  C_7
REMARK    5  A    between atoms: C_18  and  N_19
REMARK                            x       y       z     vdW  Elec       q    Type
REMARK                         _______ _______ _______ _____ _____    ______ ____
ROOT
ATOM      1  O   UNL     1       3.215   7.199  18.442  0.00  0.00    +0.000 OA
ENDROOT
BRANCH   1   5
ATOM      2  C   UNL     1       0.813   3.040  19.733  0.00  0.00    +0.000 C 
ATOM      3  C   UNL     1       1.823   3.763  18.882  0.00  0.00    +0.000 A 
ATOM      4  C   UNL     1       2.009   5.146  19.078  0.00  0.00    +0.000 A 
ATOM      5  C   UNL     1       2.942   5.862  18.326  0.00  0.00    +0.000 A 
ATOM      6  C   UNL     1       3.698   5.185  17.371  0.00  0.00    +0.000 A 
ATOM      7  C   UNL     1       3.528   3.813  17.176  0.00  0.00    +0.000 A 
ATOM      8  C   UNL     1       2.567   3.093  17.895  0.00  0.00    +0.000 A 
BRANCH   8   9
ATOM      9  N   UNL     1       2.539   1.696  17.780  0.00  0.00    +0.000 N 
ATOM     10  H   UNL     1       2.300   1.364  16.850  0.00  0.00    +0.000 HD
ATOM     11  H   UNL     1       2.006   1.225  18.502  0.00  0.00    +0.000 HD
ENDBRANCH   8   9
ENDBRANCH   1   5
BRANCH   1  12
ATOM     12  C   UNL     1       2.251   8.094  17.886  0.00  0.00    +0.000 C 
BRANCH  12  13
ATOM     13  C   UNL     1       1.555   8.805  19.010  0.00  0.00    +0.000 A 
ATOM     14  N   UNL     1       1.539   8.374  20.255  0.00  0.00    +0.000 NA
ATOM     15  C   UNL     1       0.767   9.212  21.039  0.00  0.00    +0.000 A 
ATOM     16  C   UNL     1       0.527   9.060  22.420  0.00  0.00    +0.000 A 
ATOM     17  C   UNL     1      -0.280   9.984  23.092  0.00  0.00    +0.000 A 
ATOM     18  C   UNL     1      -0.850  11.051  22.406  0.00  0.00    +0.000 A 
ATOM     19  C   UNL     1      -0.630  11.222  21.035  0.00  0.00    +0.000 A 
ATOM     20  C   UNL     1       0.182  10.289  20.370  0.00  0.00    +0.000 A 
ATOM     21  S   UNL     1       0.629  10.223  18.708  0.00  0.00    +0.000 S 
ENDBRANCH  12  13
ENDBRANCH   1  12
TORSDOF 4
ENDMDL
MODEL 7
REMARK VINA RESULT:      -6.8      4.698      8.507
REMARK  Name = 
REMARK  5 active torsions:
REMARK  status: ('A' for Active; 'I' for Inactive)
REMARK    1  A    between atoms: C_1  and  C_2
REMARK    2  A    between atoms: C_4  and  O_5
REMARK    3  A    between atoms: O_5  and  C_6
REMARK    4  A    between atoms: C_6  and  C_7
REMARK    5  A    between atoms: C_18  and  N_19
REMARK                            x       y       z     vdW  Elec       q    Type
REMARK                         _______ _______ _______ _____ _____    ______ ____
ROOT
ATOM      1  O   UNL     1       2.677   6.985  19.784  0.00  0.00    +0.000 OA
ENDROOT
BRANCH   1   5
ATOM      2  C   UNL     1       2.712   2.927  16.910  0.00  0.00    +0.000 C 
ATOM      3  C   UNL     1       2.268   3.653  18.151  0.00  0.00    +0.000 A 
ATOM      4  C   UNL     1       2.713   4.973  18.362  0.00  0.00    +0.000 A 
ATOM      5  C   UNL     1       2.319   5.696  19.488  0.00  0.00    +0.000 A 
ATOM      6  C   UNL     1       1.469   5.093  20.412  0.00  0.00    +0.000 A 
ATOM      7  C   UNL     1       1.014   3.788  20.208  0.00  0.00    +0.000 A 
ATOM      8  C   UNL     1       1.434   3.040  19.103  0.00  0.00    +0.000 A 
BRANCH   8   9
ATOM      9  N   UNL     1       0.833   1.797  18.857  0.00  0.00    +0.000 N 
ATOM     10  H   UNL     1       0.973   1.451  17.913  0.00  0.00    +0.000 HD
ATOM     11  H   UNL     1      -0.137   1.734  19.148  0.00  0.00    +0.000 HD
ENDBRANCH   8   9
ENDBRANCH   1   5
BRANCH   1  12
ATOM     12  C   UNL     1       2.126   8.003  18.947  0.00  0.00    +0.000 C 
BRANCH  12  13
ATOM     13  C   UNL     1       1.287   8.916  19.794  0.00  0.00    +0.000 A 
ATOM     14  N   UNL     1       0.988   8.680  21.055  0.00  0.00    +0.000 NA
ATOM     15  C   UNL     1       0.153   9.670  21.541  0.00  0.00    +0.000 A 
ATOM     16  C   UNL     1      -0.365   9.744  22.850  0.00  0.00    +0.000 A 
ATOM     17  C   UNL     1      -1.205  10.803  23.207  0.00  0.00    +0.000 A 
ATOM     18  C   UNL     1      -1.534  11.786  22.278  0.00  0.00    +0.000 A 
ATOM     19  C   UNL     1      -1.035  11.733  20.972  0.00  0.00    +0.000 A 
ATOM     20  C   UNL     1      -0.192  10.665  20.624  0.00  0.00    +0.000 A 
ATOM     21  S   UNL     1       0.565  10.322  19.116  0.00  0.00    +0.000 S 
ENDBRANCH  12  13
ENDBRANCH   1  12
TORSDOF 4
ENDMDL
MODEL 8
REMARK VINA RESULT:      -6.8      4.182      8.460
REMARK  Name = 
REMARK  5 active torsions:
REMARK  status: ('A' for Active; 'I' for Inactive)
REMARK    1  A    between atoms: C_1  and  C_2
REMARK    2  A    between atoms: C_4  and  O_5
REMARK    3  A    between atoms: O_5  and  C_6
REMARK    4  A    between atoms: C_6  and  C_7
REMARK    5  A    between atoms: C_18  and  N_19
REMARK                            x       y       z     vdW  Elec       q    Type
REMARK                         _______ _______ _______ _____ _____    ______ ____
ROOT
ATOM      1  O   UNL     1       2.003   7.074  18.059  0.00  0.00    +0.000 OA
ENDROOT
BRANCH   1   5
ATOM      2  C   UNL     1       4.458   3.009  19.535  0.00  0.00    +0.000 C 
ATOM      3  C   UNL     1       4.411   4.318  18.793  0.00  0.00    +0.000 A 
ATOM      4  C   UNL     1       3.207   5.049  18.782  0.00  0.00    +0.000 A 
ATOM      5  C   UNL     1       3.114   6.275  18.121  0.00  0.00    +0.000 A 
ATOM      6  C   UNL     1       4.239   6.775  17.469  0.00  0.00    +0.000 A 
ATOM      7  C   UNL     1       5.440   6.063  17.483  0.00  0.00    +0.000 A 
ATOM      8  C   UNL     1       5.534   4.814  18.107  0.00  0.00    +0.000 A 
BRANCH   8   9
ATOM      9  N   UNL     1       6.793   4.210  18.230  0.00  0.00    +0.000 N 
ATOM     10  H   UNL     1       7.531   4.849  18.509  0.00  0.00    +0.000 HD
ATOM     11  H   UNL     1       7.064   3.636  17.438  0.00  0.00    +0.000 HD
ENDBRANCH   8   9
ENDBRANCH   1   5
BRANCH   1  12
ATOM     12  C   UNL     1       2.238   8.483  18.015  0.00  0.00    +0.000 C 
BRANCH  12  13
ATOM     13  C   UNL     1       1.499   9.126  19.153  0.00  0.00    +0.000 A 
ATOM     14  N   UNL     1       1.340   8.567  20.335  0.00  0.00    +0.000 NA
ATOM     15  C   UNL     1       0.565   9.378  21.145  0.00  0.00    +0.000 A 
ATOM     16  C   UNL     1       0.193   9.101  22.477  0.00  0.00    +0.000 A 
ATOM     17  C   UNL     1      -0.600  10.011  23.182  0.00  0.00    +0.000 A 
ATOM     18  C   UNL     1      -1.026  11.190  22.577  0.00  0.00    +0.000 A 
ATOM     19  C   UNL     1      -0.673  11.487  21.257  0.00  0.00    +0.000 A 
ATOM     20  C   UNL     1       0.124  10.565  20.558  0.00  0.00    +0.000 A 
ATOM     21  S   UNL     1       0.711  10.640  18.940  0.00  0.00    +0.000 S 
ENDBRANCH  12  13
ENDBRANCH   1  12
TORSDOF 4
ENDMDL
MODEL 9
REMARK VINA RESULT:      -6.7      2.942      3.991
REMARK  Name = 
REMARK  5 active torsions:
REMARK  status: ('A' for Active; 'I' for Inactive)
REMARK    1  A    between atoms: C_1  and  C_2
REMARK    2  A    between atoms: C_4  and  O_5
REMARK    3  A    between atoms: O_5  and  C_6
REMARK    4  A    between atoms: C_6  and  C_7
REMARK    5  A    between atoms: C_18  and  N_19
REMARK                            x       y       z     vdW  Elec       q    Type
REMARK                         _______ _______ _______ _____ _____    ______ ____
ROOT
ATOM      1  O   UNL     1       2.235   2.993  18.016  0.00  0.00    +0.000 OA
ENDROOT
BRANCH   1   5
ATOM      2  C   UNL     1       2.291   7.964  18.181  0.00  0.00    +0.000 C 
ATOM      3  C   UNL     1       2.121   6.629  18.857  0.00  0.00    +0.000 A 
ATOM      4  C   UNL     1       2.249   5.456  18.086  0.00  0.00    +0.000 A 
ATOM      5  C   UNL     1       2.114   4.194  18.665  0.00  0.00    +0.000 A 
ATOM      6  C   UNL     1       1.853   4.104  20.030  0.00  0.00    +0.000 A 
ATOM      7  C   UNL     1       1.734   5.260  20.805  0.00  0.00    +0.000 A 
ATOM      8  C   UNL     1       1.826   6.531  20.228  0.00  0.00    +0.000 A 
BRANCH   8   9
ATOM      9  N   UNL     1       1.856   7.656  21.065  0.00  0.00    +0.000 N 
ATOM     10  H   UNL     1       1.346   7.536  21.935  0.00  0.00    +0.000 HD
ATOM     11  H   UNL     1       1.625   8.529  20.604  0.00  0.00    +0.000 HD
ENDBRANCH   8   9
ENDBRANCH   1   5
BRANCH   1  12
ATOM     12  C   UNL     1       3.508   2.351  18.103  0.00  0.00    +0.000 C 
BRANCH  12  13
ATOM     13  C   UNL     1       4.579   3.394  17.966  0.00  0.00    +0.000 A 
ATOM     14  N   UNL     1       5.292   3.852  18.974  0.00  0.00    +0.000 NA
ATOM     15  C   UNL     1       6.151   4.845  18.539  0.00  0.00    +0.000 A 
ATOM     16  C   UNL     1       7.064   5.558  19.342  0.00  0.00    +0.000 A 
ATOM     17  C   UNL     1       7.874   6.543  18.770  0.00  0.00    +0.000 A 
ATOM     18  C   UNL     1       7.783   6.827  17.411  0.00  0.00    +0.000 A 
ATOM     19  C   UNL     1       6.883   6.137  16.592  0.00  0.00    +0.000 A 
ATOM     20  C   UNL     1       6.075   5.148  17.178  0.00  0.00    +0.000 A 
ATOM     21  S   UNL     1       4.881   4.144  16.447  0.00  0.00    +0.000 S 
ENDBRANCH  12  13
ENDBRANCH   1  12
TORSDOF 4
ENDMDL
