MODEL 1
REMARK VINA RESULT:      -7.3      0.000      0.000
REMARK  Name = 
REMARK  17 active torsions:
REMARK  status: ('A' for Active; 'I' for Inactive)
REMARK    1  A    between atoms: C_1  and  O_2
REMARK    2  A    between atoms: O_2  and  C_3
REMARK    3  A    between atoms: C_5  and  C_6
REMARK    4  A    between atoms: C_7  and  C_8
REMARK    5  A    between atoms: C_11  and  O_12
REMARK    6  A    between atoms: O_12  and  C_13
REMARK    7  A    between atoms: C_14  and  N_15
REMARK    8  A    between atoms: C_16  and  C_18
REMARK    9  A    between atoms: C_18  and  C_19
REMARK   10  A    between atoms: C_19  and  C_20
REMARK   11  A    between atoms: C_20  and  C_21
REMARK   12  A    between atoms: C_21  and  C_22
REMARK   13  A    between atoms: C_22  and  C_23
REMARK   14  A    between atoms: C_23  and  C_24
REMARK   15  A    between atoms: N_26  and  O_27
REMARK   16  A    between atoms: C_30  and  O_31
REMARK   17  A    between atoms: O_31  and  C_32
REMARK                            x       y       z     vdW  Elec       q    Type
REMARK                         _______ _______ _______ _____ _____    ______ ____
ROOT
ATOM      1  C   UNL     1       2.061   4.848  18.487  0.00  0.00    +0.000 A 
ATOM      2  C   UNL     1       1.777   4.604  19.824  0.00  0.00    +0.000 A 
ATOM      3  C   UNL     1       1.696   5.666  20.722  0.00  0.00    +0.000 A 
ATOM      4  C   UNL     1       1.892   6.993  20.298  0.00  0.00    +0.000 A 
ATOM      5  C   UNL     1       2.137   7.256  18.936  0.00  0.00    +0.000 A 
ATOM      6  C   UNL     1       2.217   6.167  18.045  0.00  0.00    +0.000 A 
ENDROOT
BRANCH   5   7
ATOM      7  N   UNL     1       2.386   8.523  18.346  0.00  0.00    +0.000 N 
ATOM      8  C   UNL     1       1.521   9.578  18.114  0.00  0.00    +0.000 C 
ATOM      9  O   UNL     1       0.300   9.584  18.194  0.00  0.00    +0.000 OA
ATOM     10  H   UNL     1       3.314   8.633  17.959  0.00  0.00    +0.000 HD
BRANCH   8  11
ATOM     11  C   UNL     1       2.251  10.826  17.641  0.00  0.00    +0.000 C 
BRANCH  11  12
ATOM     12  C   UNL     1       2.247  11.903  18.727  0.00  0.00    +0.000 C 
BRANCH  12  13
ATOM     13  C   UNL     1       1.240  13.028  18.467  0.00  0.00    +0.000 C 
BRANCH  13  14
ATOM     14  C   UNL     1      -0.012  12.921  19.341  0.00  0.00    +0.000 C 
BRANCH  14  15
ATOM     15  C   UNL     1      -1.289  12.984  18.507  0.00  0.00    +0.000 C 
BRANCH  15  16
ATOM     16  C   UNL     1      -2.105  11.701  18.660  0.00  0.00    +0.000 C 
BRANCH  16  17
ATOM     17  C   UNL     1      -3.002  11.468  17.463  0.00  0.00    +0.000 C 
ATOM     18  O   UNL     1      -4.197  11.191  17.519  0.00  0.00    +0.000 OA
ATOM     19  N   UNL     1      -2.351  11.609  16.258  0.00  0.00    +0.000 N 
ATOM     20  H   UNL     1      -1.346  11.504  16.157  0.00  0.00    +0.000 HD
BRANCH  19  21
ATOM     21  O   UNL     1      -3.126  11.285  15.119  0.00  0.00    +0.000 OA
ATOM     22  H   UNL     1      -2.908  10.335  14.983  0.00  0.00    +0.000 HD
ENDBRANCH  19  21
ENDBRANCH  16  17
ENDBRANCH  15  16
ENDBRANCH  14  15
ENDBRANCH  13  14
ENDBRANCH  12  13
ENDBRANCH  11  12
ENDBRANCH   8  11
ENDBRANCH   5   7
BRANCH   1  24
ATOM     23  C   UNL     1       3.425   3.354  16.971  0.00  0.00    +0.000 C 
ATOM     24  C   UNL     1       2.290   3.726  17.580  0.00  0.00    +0.000 C 
BRANCH  23  27
ATOM     25  C   UNL     1       6.873   4.742  16.143  0.00  0.00    +0.000 A 
ATOM     26  C   UNL     1       5.624   4.136  15.977  0.00  0.00    +0.000 A 
ATOM     27  C   UNL     1       4.802   3.871  17.077  0.00  0.00    +0.000 A 
ATOM     28  C   UNL     1       5.259   4.246  18.350  0.00  0.00    +0.000 A 
ATOM     29  C   UNL     1       6.468   4.928  18.510  0.00  0.00    +0.000 A 
ATOM     30  C   UNL     1       7.282   5.166  17.407  0.00  0.00    +0.000 A 
BRANCH  25  32
ATOM     31  C   UNL     1       6.872   4.691  13.792  0.00  0.00    +0.000 C 
ATOM     32  O   UNL     1       7.595   4.936  14.995  0.00  0.00    +0.000 OA
ENDBRANCH  25  32
BRANCH  29  33
ATOM     33  O   UNL     1       6.763   5.314  19.790  0.00  0.00    +0.000 OA
ATOM     34  C   UNL     1       8.133   5.643  20.009  0.00  0.00    +0.000 C 
ENDBRANCH  29  33
ENDBRANCH  23  27
ENDBRANCH   1  24
BRANCH   4  35
ATOM     35  O   UNL     1       1.999   8.007  21.208  0.00  0.00    +0.000 OA
ATOM     36  C   UNL     1       0.781   8.572  21.678  0.00  0.00    +0.000 C 
ENDBRANCH   4  35
TORSDOF 14
ENDMDL
MODEL 2
REMARK VINA RESULT:      -7.2      4.641      8.428
REMARK  Name = 
REMARK  17 active torsions:
REMARK  status: ('A' for Active; 'I' for Inactive)
REMARK    1  A    between atoms: C_1  and  O_2
REMARK    2  A    between atoms: O_2  and  C_3
REMARK    3  A    between atoms: C_5  and  C_6
REMARK    4  A    between atoms: C_7  and  C_8
REMARK    5  A    between atoms: C_11  and  O_12
REMARK    6  A    between atoms: O_12  and  C_13
REMARK    7  A    between atoms: C_14  and  N_15
REMARK    8  A    between atoms: C_16  and  C_18
REMARK    9  A    between atoms: C_18  and  C_19
REMARK   10  A    between atoms: C_19  and  C_20
REMARK   11  A    between atoms: C_20  and  C_21
REMARK   12  A    between atoms: C_21  and  C_22
REMARK   13  A    between atoms: C_22  and  C_23
REMARK   14  A    between atoms: C_23  and  C_24
REMARK   15  A    between atoms: N_26  and  O_27
REMARK   16  A    between atoms: C_30  and  O_31
REMARK   17  A    between atoms: O_31  and  C_32
REMARK                            x       y       z     vdW  Elec       q    Type
REMARK                         _______ _______ _______ _____ _____    ______ ____
ROOT
ATOM      1  C   UNL     1       3.832   4.543  18.740  0.00  0.00    +0.000 A 
ATOM      2  C   UNL     1       3.665   3.710  17.641  0.00  0.00    +0.000 A 
ATOM      3  C   UNL     1       4.304   4.010  16.439  0.00  0.00    +0.000 A 
ATOM      4  C   UNL     1       5.124   5.145  16.315  0.00  0.00    +0.000 A 
ATOM      5  C   UNL     1       5.336   5.973  17.435  0.00  0.00    +0.000 A 
ATOM      6  C   UNL     1       4.679   5.653  18.641  0.00  0.00    +0.000 A 
ENDROOT
BRANCH   5   7
ATOM      7  N   UNL     1       6.104   7.166  17.479  0.00  0.00    +0.000 N 
ATOM      8  C   UNL     1       7.380   7.380  17.970  0.00  0.00    +0.000 C 
ATOM      9  O   UNL     1       8.063   6.629  18.652  0.00  0.00    +0.000 OA
ATOM     10  H   UNL     1       5.609   7.997  17.186  0.00  0.00    +0.000 HD
BRANCH   8  11
ATOM     11  C   UNL     1       7.898   8.772  17.634  0.00  0.00    +0.000 C 
BRANCH  11  12
ATOM     12  C   UNL     1       8.841   9.279  18.726  0.00  0.00    +0.000 C 
BRANCH  12  13
ATOM     13  C   UNL     1       9.423  10.666  18.434  0.00  0.00    +0.000 C 
BRANCH  13  14
ATOM     14  C   UNL     1      10.425  11.127  19.496  0.00  0.00    +0.000 C 
BRANCH  14  15
ATOM     15  C   UNL     1      11.081  12.451  19.113  0.00  0.00    +0.000 C 
BRANCH  15  16
ATOM     16  C   UNL     1      10.967  12.703  17.610  0.00  0.00    +0.000 C 
BRANCH  16  17
ATOM     17  C   UNL     1      10.542  14.126  17.316  0.00  0.00    +0.000 C 
ATOM     18  O   UNL     1       9.699  14.756  17.948  0.00  0.00    +0.000 OA
ATOM     19  N   UNL     1      11.210  14.685  16.249  0.00  0.00    +0.000 N 
ATOM     20  H   UNL     1      11.642  14.131  15.516  0.00  0.00    +0.000 HD
BRANCH  19  21
ATOM     21  O   UNL     1      10.757  15.971  15.870  0.00  0.00    +0.000 OA
ATOM     22  H   UNL     1      11.598  16.481  15.819  0.00  0.00    +0.000 HD
ENDBRANCH  19  21
ENDBRANCH  16  17
ENDBRANCH  15  16
ENDBRANCH  14  15
ENDBRANCH  13  14
ENDBRANCH  12  13
ENDBRANCH  11  12
ENDBRANCH   8  11
ENDBRANCH   5   7
BRANCH   1  24
ATOM     23  C   UNL     1       2.299   5.174  20.648  0.00  0.00    +0.000 C 
ATOM     24  C   UNL     1       3.049   4.309  19.949  0.00  0.00    +0.000 C 
BRANCH  23  27
ATOM     25  C   UNL     1       1.851   8.583  19.009  0.00  0.00    +0.000 A 
ATOM     26  C   UNL     1       2.328   7.290  19.249  0.00  0.00    +0.000 A 
ATOM     27  C   UNL     1       1.943   6.581  20.391  0.00  0.00    +0.000 A 
ATOM     28  C   UNL     1       1.051   7.199  21.282  0.00  0.00    +0.000 A 
ATOM     29  C   UNL     1       0.507   8.455  21.004  0.00  0.00    +0.000 A 
ATOM     30  C   UNL     1       0.916   9.153  19.872  0.00  0.00    +0.000 A 
BRANCH  25  32
ATOM     31  C   UNL     1       2.168  10.600  17.842  0.00  0.00    +0.000 C 
ATOM     32  O   UNL     1       2.312   9.182  17.867  0.00  0.00    +0.000 OA
ENDBRANCH  25  32
BRANCH  29  33
ATOM     33  O   UNL     1      -0.415   8.913  21.907  0.00  0.00    +0.000 OA
ATOM     34  C   UNL     1       0.119   9.759  22.922  0.00  0.00    +0.000 C 
ENDBRANCH  29  33
ENDBRANCH  23  27
ENDBRANCH   1  24
BRANCH   4  35
ATOM     35  O   UNL     1       5.593   5.537  15.092  0.00  0.00    +0.000 OA
ATOM     36  C   UNL     1       6.169   4.523  14.277  0.00  0.00    +0.000 C 
ENDBRANCH   4  35
TORSDOF 14
ENDMDL
MODEL 3
REMARK VINA RESULT:      -6.9      2.975     10.742
REMARK  Name = 
REMARK  17 active torsions:
REMARK  status: ('A' for Active; 'I' for Inactive)
REMARK    1  A    between atoms: C_1  and  O_2
REMARK    2  A    between atoms: O_2  and  C_3
REMARK    3  A    between atoms: C_5  and  C_6
REMARK    4  A    between atoms: C_7  and  C_8
REMARK    5  A    between atoms: C_11  and  O_12
REMARK    6  A    between atoms: O_12  and  C_13
REMARK    7  A    between atoms: C_14  and  N_15
REMARK    8  A    between atoms: C_16  and  C_18
REMARK    9  A    between atoms: C_18  and  C_19
REMARK   10  A    between atoms: C_19  and  C_20
REMARK   11  A    between atoms: C_20  and  C_21
REMARK   12  A    between atoms: C_21  and  C_22
REMARK   13  A    between atoms: C_22  and  C_23
REMARK   14  A    between atoms: C_23  and  C_24
REMARK   15  A    between atoms: N_26  and  O_27
REMARK   16  A    between atoms: C_30  and  O_31
REMARK   17  A    between atoms: O_31  and  C_32
REMARK                            x       y       z     vdW  Elec       q    Type
REMARK                         _______ _______ _______ _____ _____    ______ ____
ROOT
ATOM      1  C   UNL     1      -1.899  11.220  17.834  0.00  0.00    +0.000 A 
ATOM      2  C   UNL     1      -2.143  12.427  18.477  0.00  0.00    +0.000 A 
ATOM      3  C   UNL     1      -1.483  12.725  19.668  0.00  0.00    +0.000 A 
ATOM      4  C   UNL     1      -0.564  11.824  20.234  0.00  0.00    +0.000 A 
ATOM      5  C   UNL     1      -0.276  10.616  19.569  0.00  0.00    +0.000 A 
ATOM      6  C   UNL     1      -0.956  10.333  18.366  0.00  0.00    +0.000 A 
ENDROOT
BRANCH   5   7
ATOM      7  N   UNL     1       0.596   9.588  20.010  0.00  0.00    +0.000 N 
ATOM      8  C   UNL     1       0.381   8.579  20.934  0.00  0.00    +0.000 C 
ATOM      9  O   UNL     1      -0.550   8.462  21.721  0.00  0.00    +0.000 OA
ATOM     10  H   UNL     1       1.543   9.658  19.661  0.00  0.00    +0.000 HD
BRANCH   8  11
ATOM     11  C   UNL     1       1.520   7.570  20.958  0.00  0.00    +0.000 C 
BRANCH  11  12
ATOM     12  C   UNL     1       2.131   7.407  19.566  0.00  0.00    +0.000 C 
BRANCH  12  13
ATOM     13  C   UNL     1       3.106   6.230  19.461  0.00  0.00    +0.000 C 
BRANCH  13  14
ATOM     14  C   UNL     1       2.448   4.958  18.919  0.00  0.00    +0.000 C 
BRANCH  14  15
ATOM     15  C   UNL     1       3.488   3.931  18.478  0.00  0.00    +0.000 C 
BRANCH  15  16
ATOM     16  C   UNL     1       4.063   4.289  17.108  0.00  0.00    +0.000 C 
BRANCH  16  17
ATOM     17  C   UNL     1       5.520   4.689  17.205  0.00  0.00    +0.000 C 
ATOM     18  O   UNL     1       6.059   5.563  16.532  0.00  0.00    +0.000 OA
ATOM     19  N   UNL     1       6.219   3.975  18.153  0.00  0.00    +0.000 N 
ATOM     20  H   UNL     1       5.929   3.057  18.479  0.00  0.00    +0.000 HD
BRANCH  19  21
ATOM     21  O   UNL     1       7.609   4.237  18.192  0.00  0.00    +0.000 OA
ATOM     22  H   UNL     1       7.901   3.700  18.964  0.00  0.00    +0.000 HD
ENDBRANCH  19  21
ENDBRANCH  16  17
ENDBRANCH  15  16
ENDBRANCH  14  15
ENDBRANCH  13  14
ENDBRANCH  12  13
ENDBRANCH  11  12
ENDBRANCH   8  11
ENDBRANCH   5   7
BRANCH   1  24
ATOM     23  C   UNL     1      -4.029  10.889  16.513  0.00  0.00    +0.000 C 
ATOM     24  C   UNL     1      -2.697  10.848  16.669  0.00  0.00    +0.000 C 
BRANCH  23  27
ATOM     25  C   UNL     1      -6.981  12.847  17.912  0.00  0.00    +0.000 A 
ATOM     26  C   UNL     1      -5.903  12.497  17.091  0.00  0.00    +0.000 A 
ATOM     27  C   UNL     1      -5.098  11.394  17.393  0.00  0.00    +0.000 A 
ATOM     28  C   UNL     1      -5.411  10.640  18.534  0.00  0.00    +0.000 A 
ATOM     29  C   UNL     1      -6.536  10.935  19.308  0.00  0.00    +0.000 A 
ATOM     30  C   UNL     1      -7.316  12.047  19.003  0.00  0.00    +0.000 A 
BRANCH  25  32
ATOM     31  C   UNL     1      -7.356  15.146  18.234  0.00  0.00    +0.000 C 
ATOM     32  O   UNL     1      -7.686  13.955  17.523  0.00  0.00    +0.000 OA
ENDBRANCH  25  32
BRANCH  29  33
ATOM     33  O   UNL     1      -6.783  10.075  20.345  0.00  0.00    +0.000 OA
ATOM     34  C   UNL     1      -7.296   8.805  19.952  0.00  0.00    +0.000 C 
ENDBRANCH  29  33
ENDBRANCH  23  27
ENDBRANCH   1  24
BRANCH   4  35
ATOM     35  O   UNL     1      -0.066  12.034  21.490  0.00  0.00    +0.000 OA
ATOM     36  C   UNL     1      -1.002  12.000  22.560  0.00  0.00    +0.000 C 
ENDBRANCH   4  35
TORSDOF 14
ENDMDL
MODEL 4
REMARK VINA RESULT:      -6.9      2.690      4.123
REMARK  Name = 
REMARK  17 active torsions:
REMARK  status: ('A' for Active; 'I' for Inactive)
REMARK    1  A    between atoms: C_1  and  O_2
REMARK    2  A    between atoms: O_2  and  C_3
REMARK    3  A    between atoms: C_5  and  C_6
REMARK    4  A    between atoms: C_7  and  C_8
REMARK    5  A    between atoms: C_11  and  O_12
REMARK    6  A    between atoms: O_12  and  C_13
REMARK    7  A    between atoms: C_14  and  N_15
REMARK    8  A    between atoms: C_16  and  C_18
REMARK    9  A    between atoms: C_18  and  C_19
REMARK   10  A    between atoms: C_19  and  C_20
REMARK   11  A    between atoms: C_20  and  C_21
REMARK   12  A    between atoms: C_21  and  C_22
REMARK   13  A    between atoms: C_22  and  C_23
REMARK   14  A    between atoms: C_23  and  C_24
REMARK   15  A    between atoms: N_26  and  O_27
REMARK   16  A    between atoms: C_30  and  O_31
REMARK   17  A    between atoms: O_31  and  C_32
REMARK                            x       y       z     vdW  Elec       q    Type
REMARK                         _______ _______ _______ _____ _____    ______ ____
ROOT
ATOM      1  C   UNL     1       2.441   6.646  19.434  0.00  0.00    +0.000 A 
ATOM      2  C   UNL     1       2.505   7.120  18.130  0.00  0.00    +0.000 A 
ATOM      3  C   UNL     1       2.021   8.392  17.829  0.00  0.00    +0.000 A 
ATOM      4  C   UNL     1       1.469   9.214  18.827  0.00  0.00    +0.000 A 
ATOM      5  C   UNL     1       1.438   8.762  20.160  0.00  0.00    +0.000 A 
ATOM      6  C   UNL     1       1.931   7.471  20.443  0.00  0.00    +0.000 A 
ENDROOT
BRANCH   5   7
ATOM      7  N   UNL     1       0.894   9.444  21.279  0.00  0.00    +0.000 N 
ATOM      8  C   UNL     1      -0.150   9.085  22.114  0.00  0.00    +0.000 C 
ATOM      9  O   UNL     1      -0.966   8.186  21.960  0.00  0.00    +0.000 OA
ATOM     10  H   UNL     1       1.270  10.371  21.432  0.00  0.00    +0.000 HD
BRANCH   8  11
ATOM     11  C   UNL     1      -0.272  10.015  23.313  0.00  0.00    +0.000 C 
BRANCH  11  12
ATOM     12  C   UNL     1      -1.428  10.998  23.123  0.00  0.00    +0.000 C 
BRANCH  12  13
ATOM     13  C   UNL     1      -0.989  12.360  22.578  0.00  0.00    +0.000 C 
BRANCH  13  14
ATOM     14  C   UNL     1      -1.156  12.476  21.061  0.00  0.00    +0.000 C 
BRANCH  14  15
ATOM     15  C   UNL     1      -0.983  13.917  20.584  0.00  0.00    +0.000 C 
BRANCH  15  16
ATOM     16  C   UNL     1      -0.462  13.959  19.148  0.00  0.00    +0.000 C 
BRANCH  16  17
ATOM     17  C   UNL     1       0.133  15.309  18.813  0.00  0.00    +0.000 C 
ATOM     18  O   UNL     1      -0.490  16.262  18.355  0.00  0.00    +0.000 OA
ATOM     19  N   UNL     1       1.482  15.393  19.084  0.00  0.00    +0.000 N 
ATOM     20  H   UNL     1       2.087  14.579  19.136  0.00  0.00    +0.000 HD
BRANCH  19  21
ATOM     21  O   UNL     1       2.098  16.600  18.675  0.00  0.00    +0.000 OA
ATOM     22  H   UNL     1       2.933  16.279  18.265  0.00  0.00    +0.000 HD
ENDBRANCH  19  21
ENDBRANCH  16  17
ENDBRANCH  15  16
ENDBRANCH  14  15
ENDBRANCH  13  14
ENDBRANCH  12  13
ENDBRANCH  11  12
ENDBRANCH   8  11
ENDBRANCH   5   7
BRANCH   1  24
ATOM     23  C   UNL     1       3.818   4.538  19.207  0.00  0.00    +0.000 C 
ATOM     24  C   UNL     1       2.812   5.263  19.719  0.00  0.00    +0.000 C 
BRANCH  23  27
ATOM     25  C   UNL     1       7.028   5.975  17.746  0.00  0.00    +0.000 A 
ATOM     26  C   UNL     1       5.956   5.770  18.621  0.00  0.00    +0.000 A 
ATOM     27  C   UNL     1       4.911   4.903  18.288  0.00  0.00    +0.000 A 
ATOM     28  C   UNL     1       4.977   4.232  17.057  0.00  0.00    +0.000 A 
ATOM     29  C   UNL     1       6.086   4.369  16.218  0.00  0.00    +0.000 A 
ATOM     30  C   UNL     1       7.108   5.250  16.558  0.00  0.00    +0.000 A 
BRANCH  25  32
ATOM     31  C   UNL     1       7.831   8.184  17.671  0.00  0.00    +0.000 C 
ATOM     32  O   UNL     1       7.983   6.860  18.175  0.00  0.00    +0.000 OA
ENDBRANCH  25  32
BRANCH  29  33
ATOM     33  O   UNL     1       6.070   3.598  15.087  0.00  0.00    +0.000 OA
ATOM     34  C   UNL     1       6.596   4.237  13.926  0.00  0.00    +0.000 C 
ENDBRANCH  29  33
ENDBRANCH  23  27
ENDBRANCH   1  24
BRANCH   4  35
ATOM     35  O   UNL     1       0.827  10.375  18.497  0.00  0.00    +0.000 OA
ATOM     36  C   UNL     1      -0.545  10.264  18.136  0.00  0.00    +0.000 C 
ENDBRANCH   4  35
TORSDOF 14
ENDMDL
MODEL 5
REMARK VINA RESULT:      -6.9      1.835      2.975
REMARK  Name = 
REMARK  17 active torsions:
REMARK  status: ('A' for Active; 'I' for Inactive)
REMARK    1  A    between atoms: C_1  and  O_2
REMARK    2  A    between atoms: O_2  and  C_3
REMARK    3  A    between atoms: C_5  and  C_6
REMARK    4  A    between atoms: C_7  and  C_8
REMARK    5  A    between atoms: C_11  and  O_12
REMARK    6  A    between atoms: O_12  and  C_13
REMARK    7  A    between atoms: C_14  and  N_15
REMARK    8  A    between atoms: C_16  and  C_18
REMARK    9  A    between atoms: C_18  and  C_19
REMARK   10  A    between atoms: C_19  and  C_20
REMARK   11  A    between atoms: C_20  and  C_21
REMARK   12  A    between atoms: C_21  and  C_22
REMARK   13  A    between atoms: C_22  and  C_23
REMARK   14  A    between atoms: C_23  and  C_24
REMARK   15  A    between atoms: N_26  and  O_27
REMARK   16  A    between atoms: C_30  and  O_31
REMARK   17  A    between atoms: O_31  and  C_32
REMARK                            x       y       z     vdW  Elec       q    Type
REMARK                         _______ _______ _______ _____ _____    ______ ____
ROOT
ATOM      1  C   UNL     1       2.572   6.100  19.405  0.00  0.00    +0.000 A 
ATOM      2  C   UNL     1       2.682   6.487  18.075  0.00  0.00    +0.000 A 
ATOM      3  C   UNL     1       2.297   7.770  17.692  0.00  0.00    +0.000 A 
ATOM      4  C   UNL     1       1.800   8.691  18.630  0.00  0.00    +0.000 A 
ATOM      5  C   UNL     1       1.724   8.325  19.988  0.00  0.00    +0.000 A 
ATOM      6  C   UNL     1       2.117   7.021  20.355  0.00  0.00    +0.000 A 
ENDROOT
BRANCH   5   7
ATOM      7  N   UNL     1       1.223   9.113  21.056  0.00  0.00    +0.000 N 
ATOM      8  C   UNL     1       0.112   8.915  21.859  0.00  0.00    +0.000 C 
ATOM      9  O   UNL     1      -0.797   8.111  21.704  0.00  0.00    +0.000 OA
ATOM     10  H   UNL     1       1.700   9.995  21.190  0.00  0.00    +0.000 HD
BRANCH   8  11
ATOM     11  C   UNL     1       0.056   9.903  23.016  0.00  0.00    +0.000 C 
BRANCH  11  12
ATOM     12  C   UNL     1      -1.376  10.383  23.252  0.00  0.00    +0.000 C 
BRANCH  12  13
ATOM     13  C   UNL     1      -1.595  11.853  22.883  0.00  0.00    +0.000 C 
BRANCH  13  14
ATOM     14  C   UNL     1      -0.391  12.475  22.171  0.00  0.00    +0.000 C 
BRANCH  14  15
ATOM     15  C   UNL     1      -0.819  13.545  21.169  0.00  0.00    +0.000 C 
BRANCH  15  16
ATOM     16  C   UNL     1      -0.970  12.951  19.769  0.00  0.00    +0.000 C 
BRANCH  16  17
ATOM     17  C   UNL     1      -2.422  12.692  19.429  0.00  0.00    +0.000 C 
ATOM     18  O   UNL     1      -3.360  12.795  20.214  0.00  0.00    +0.000 OA
ATOM     19  N   UNL     1      -2.618  12.328  18.115  0.00  0.00    +0.000 N 
ATOM     20  H   UNL     1      -1.889  11.915  17.541  0.00  0.00    +0.000 HD
BRANCH  19  21
ATOM     21  O   UNL     1      -3.946  11.964  17.789  0.00  0.00    +0.000 OA
ATOM     22  H   UNL     1      -4.471  12.658  18.250  0.00  0.00    +0.000 HD
ENDBRANCH  19  21
ENDBRANCH  16  17
ENDBRANCH  15  16
ENDBRANCH  14  15
ENDBRANCH  13  14
ENDBRANCH  12  13
ENDBRANCH  11  12
ENDBRANCH   8  11
ENDBRANCH   5   7
BRANCH   1  24
ATOM     23  C   UNL     1       3.822   3.903  19.365  0.00  0.00    +0.000 C 
ATOM     24  C   UNL     1       2.836   4.713  19.778  0.00  0.00    +0.000 C 
BRANCH  23  27
ATOM     25  C   UNL     1       6.168   4.091  16.371  0.00  0.00    +0.000 A 
ATOM     26  C   UNL     1       5.088   3.713  17.175  0.00  0.00    +0.000 A 
ATOM     27  C   UNL     1       4.989   4.152  18.499  0.00  0.00    +0.000 A 
ATOM     28  C   UNL     1       5.996   4.995  18.993  0.00  0.00    +0.000 A 
ATOM     29  C   UNL     1       7.031   5.443  18.168  0.00  0.00    +0.000 A 
ATOM     30  C   UNL     1       7.124   4.982  16.858  0.00  0.00    +0.000 A 
BRANCH  25  32
ATOM     31  C   UNL     1       6.343   4.560  14.073  0.00  0.00    +0.000 C 
ATOM     32  O   UNL     1       6.164   3.586  15.098  0.00  0.00    +0.000 OA
ENDBRANCH  25  32
BRANCH  29  33
ATOM     33  O   UNL     1       7.903   6.329  18.742  0.00  0.00    +0.000 OA
ATOM     34  C   UNL     1       7.992   7.588  18.080  0.00  0.00    +0.000 C 
ENDBRANCH  29  33
ENDBRANCH  23  27
ENDBRANCH   1  24
BRANCH   4  35
ATOM     35  O   UNL     1       1.250   9.874  18.222  0.00  0.00    +0.000 OA
ATOM     36  C   UNL     1      -0.143   9.861  17.930  0.00  0.00    +0.000 C 
ENDBRANCH   4  35
TORSDOF 14
ENDMDL
MODEL 6
REMARK VINA RESULT:      -6.8      3.156     10.964
REMARK  Name = 
REMARK  17 active torsions:
REMARK  status: ('A' for Active; 'I' for Inactive)
REMARK    1  A    between atoms: C_1  and  O_2
REMARK    2  A    between atoms: O_2  and  C_3
REMARK    3  A    between atoms: C_5  and  C_6
REMARK    4  A    between atoms: C_7  and  C_8
REMARK    5  A    between atoms: C_11  and  O_12
REMARK    6  A    between atoms: O_12  and  C_13
REMARK    7  A    between atoms: C_14  and  N_15
REMARK    8  A    between atoms: C_16  and  C_18
REMARK    9  A    between atoms: C_18  and  C_19
REMARK   10  A    between atoms: C_19  and  C_20
REMARK   11  A    between atoms: C_20  and  C_21
REMARK   12  A    between atoms: C_21  and  C_22
REMARK   13  A    between atoms: C_22  and  C_23
REMARK   14  A    between atoms: C_23  and  C_24
REMARK   15  A    between atoms: N_26  and  O_27
REMARK   16  A    between atoms: C_30  and  O_31
REMARK   17  A    between atoms: O_31  and  C_32
REMARK                            x       y       z     vdW  Elec       q    Type
REMARK                         _______ _______ _______ _____ _____    ______ ____
ROOT
ATOM      1  C   UNL     1      -2.340  11.204  17.818  0.00  0.00    +0.000 A 
ATOM      2  C   UNL     1      -2.557  12.198  18.764  0.00  0.00    +0.000 A 
ATOM      3  C   UNL     1      -1.794  12.225  19.930  0.00  0.00    +0.000 A 
ATOM      4  C   UNL     1      -0.799  11.261  20.170  0.00  0.00    +0.000 A 
ATOM      5  C   UNL     1      -0.540  10.275  19.198  0.00  0.00    +0.000 A 
ATOM      6  C   UNL     1      -1.324  10.265  18.026  0.00  0.00    +0.000 A 
ENDROOT
BRANCH   5   7
ATOM      7  N   UNL     1       0.401   9.216  19.289  0.00  0.00    +0.000 N 
ATOM      8  C   UNL     1       1.510   8.947  18.505  0.00  0.00    +0.000 C 
ATOM      9  O   UNL     1       1.822   9.456  17.437  0.00  0.00    +0.000 OA
ATOM     10  H   UNL     1       0.175   8.508  19.974  0.00  0.00    +0.000 HD
BRANCH   8  11
ATOM     11  C   UNL     1       2.358   7.821  19.079  0.00  0.00    +0.000 C 
BRANCH  11  12
ATOM     12  C   UNL     1       3.179   7.144  17.980  0.00  0.00    +0.000 C 
BRANCH  12  13
ATOM     13  C   UNL     1       3.705   5.761  18.375  0.00  0.00    +0.000 C 
BRANCH  13  14
ATOM     14  C   UNL     1       3.231   4.652  17.432  0.00  0.00    +0.000 C 
BRANCH  14  15
ATOM     15  C   UNL     1       4.379   3.731  17.024  0.00  0.00    +0.000 C 
BRANCH  15  16
ATOM     16  C   UNL     1       5.697   4.500  16.953  0.00  0.00    +0.000 C 
BRANCH  16  17
ATOM     17  C   UNL     1       6.189   4.627  15.527  0.00  0.00    +0.000 C 
ATOM     18  O   UNL     1       6.593   5.664  15.009  0.00  0.00    +0.000 OA
ATOM     19  N   UNL     1       6.158   3.438  14.831  0.00  0.00    +0.000 N 
ATOM     20  H   UNL     1       5.547   2.667  15.083  0.00  0.00    +0.000 HD
BRANCH  19  21
ATOM     21  O   UNL     1       6.499   3.540  13.462  0.00  0.00    +0.000 OA
ATOM     22  H   UNL     1       6.731   2.610  13.236  0.00  0.00    +0.000 HD
ENDBRANCH  19  21
ENDBRANCH  16  17
ENDBRANCH  15  16
ENDBRANCH  14  15
ENDBRANCH  13  14
ENDBRANCH  12  13
ENDBRANCH  11  12
ENDBRANCH   8  11
ENDBRANCH   5   7
BRANCH   1  24
ATOM     23  C   UNL     1      -4.573  11.176  16.633  0.00  0.00    +0.000 C 
ATOM     24  C   UNL     1      -3.235  11.092  16.670  0.00  0.00    +0.000 C 
BRANCH  23  27
ATOM     25  C   UNL     1      -6.793  11.006  19.723  0.00  0.00    +0.000 A 
ATOM     26  C   UNL     1      -5.950  10.599  18.684  0.00  0.00    +0.000 A 
ATOM     27  C   UNL     1      -5.557  11.494  17.684  0.00  0.00    +0.000 A 
ATOM     28  C   UNL     1      -6.021  12.816  17.761  0.00  0.00    +0.000 A 
ATOM     29  C   UNL     1      -6.794  13.248  18.842  0.00  0.00    +0.000 A 
ATOM     30  C   UNL     1      -7.191  12.339  19.819  0.00  0.00    +0.000 A 
BRANCH  25  32
ATOM     31  C   UNL     1      -7.348   8.747  20.071  0.00  0.00    +0.000 C 
ATOM     32  O   UNL     1      -7.122  10.036  20.633  0.00  0.00    +0.000 OA
ENDBRANCH  25  32
BRANCH  29  33
ATOM     33  O   UNL     1      -7.113  14.579  18.846  0.00  0.00    +0.000 OA
ATOM     34  C   UNL     1      -7.884  15.001  19.969  0.00  0.00    +0.000 C 
ENDBRANCH  29  33
ENDBRANCH  23  27
ENDBRANCH   1  24
BRANCH   4  35
ATOM     35  O   UNL     1      -0.188  11.178  21.390  0.00  0.00    +0.000 OA
ATOM     36  C   UNL     1      -0.799  11.894  22.457  0.00  0.00    +0.000 C 
ENDBRANCH   4  35
TORSDOF 14
ENDMDL
MODEL 7
REMARK VINA RESULT:      -6.8      2.589      9.423
REMARK  Name = 
REMARK  17 active torsions:
REMARK  status: ('A' for Active; 'I' for Inactive)
REMARK    1  A    between atoms: C_1  and  O_2
REMARK    2  A    between atoms: O_2  and  C_3
REMARK    3  A    between atoms: C_5  and  C_6
REMARK    4  A    between atoms: C_7  and  C_8
REMARK    5  A    between atoms: C_11  and  O_12
REMARK    6  A    between atoms: O_12  and  C_13
REMARK    7  A    between atoms: C_14  and  N_15
REMARK    8  A    between atoms: C_16  and  C_18
REMARK    9  A    between atoms: C_18  and  C_19
REMARK   10  A    between atoms: C_19  and  C_20
REMARK   11  A    between atoms: C_20  and  C_21
REMARK   12  A    between atoms: C_21  and  C_22
REMARK   13  A    between atoms: C_22  and  C_23
REMARK   14  A    between atoms: C_23  and  C_24
REMARK   15  A    between atoms: N_26  and  O_27
REMARK   16  A    between atoms: C_30  and  O_31
REMARK   17  A    between atoms: O_31  and  C_32
REMARK                            x       y       z     vdW  Elec       q    Type
REMARK                         _______ _______ _______ _____ _____    ______ ____
ROOT
ATOM      1  C   UNL     1       1.017   8.804  20.672  0.00  0.00    +0.000 A 
ATOM      2  C   UNL     1       1.184   9.361  19.410  0.00  0.00    +0.000 A 
ATOM      3  C   UNL     1       1.863   8.652  18.422  0.00  0.00    +0.000 A 
ATOM      4  C   UNL     1       2.385   7.371  18.676  0.00  0.00    +0.000 A 
ATOM      5  C   UNL     1       2.184   6.777  19.937  0.00  0.00    +0.000 A 
ATOM      6  C   UNL     1       1.495   7.513  20.924  0.00  0.00    +0.000 A 
ENDROOT
BRANCH   5   7
ATOM      7  N   UNL     1       2.664   5.514  20.370  0.00  0.00    +0.000 N 
ATOM      8  C   UNL     1       2.078   4.264  20.276  0.00  0.00    +0.000 C 
ATOM      9  O   UNL     1       0.926   3.991  19.967  0.00  0.00    +0.000 OA
ATOM     10  H   UNL     1       3.522   5.549  20.904  0.00  0.00    +0.000 HD
BRANCH   8  11
ATOM     11  C   UNL     1       3.031   3.150  20.688  0.00  0.00    +0.000 C 
BRANCH  11  12
ATOM     12  C   UNL     1       3.624   2.460  19.459  0.00  0.00    +0.000 C 
BRANCH  12  13
ATOM     13  C   UNL     1       4.289   3.428  18.476  0.00  0.00    +0.000 C 
BRANCH  13  14
ATOM     14  C   UNL     1       3.654   3.393  17.084  0.00  0.00    +0.000 C 
BRANCH  14  15
ATOM     15  C   UNL     1       4.452   4.223  16.080  0.00  0.00    +0.000 C 
BRANCH  15  16
ATOM     16  C   UNL     1       5.898   3.736  15.996  0.00  0.00    +0.000 C 
BRANCH  16  17
ATOM     17  C   UNL     1       6.578   4.233  14.739  0.00  0.00    +0.000 C 
ATOM     18  O   UNL     1       6.370   3.805  13.607  0.00  0.00    +0.000 OA
ATOM     19  N   UNL     1       7.477   5.251  14.971  0.00  0.00    +0.000 N 
ATOM     20  H   UNL     1       7.920   5.402  15.872  0.00  0.00    +0.000 HD
BRANCH  19  21
ATOM     21  O   UNL     1       8.219   5.661  13.838  0.00  0.00    +0.000 OA
ATOM     22  H   UNL     1       8.095   4.903  13.222  0.00  0.00    +0.000 HD
ENDBRANCH  19  21
ENDBRANCH  16  17
ENDBRANCH  15  16
ENDBRANCH  14  15
ENDBRANCH  13  14
ENDBRANCH  12  13
ENDBRANCH  11  12
ENDBRANCH   8  11
ENDBRANCH   5   7
BRANCH   1  24
ATOM     23  C   UNL     1      -0.042  10.858  21.696  0.00  0.00    +0.000 C 
ATOM     24  C   UNL     1       0.436   9.606  21.744  0.00  0.00    +0.000 C 
BRANCH  23  27
ATOM     25  C   UNL     1       0.503  13.571  19.079  0.00  0.00    +0.000 A 
ATOM     26  C   UNL     1       0.674  12.806  20.238  0.00  0.00    +0.000 A 
ATOM     27  C   UNL     1      -0.226  11.788  20.566  0.00  0.00    +0.000 A 
ATOM     28  C   UNL     1      -1.296  11.544  19.692  0.00  0.00    +0.000 A 
ATOM     29  C   UNL     1      -1.423  12.249  18.492  0.00  0.00    +0.000 A 
ATOM     30  C   UNL     1      -0.529  13.272  18.190  0.00  0.00    +0.000 A 
BRANCH  25  32
ATOM     31  C   UNL     1       0.923  15.880  18.916  0.00  0.00    +0.000 C 
ATOM     32  O   UNL     1       1.438  14.551  18.872  0.00  0.00    +0.000 OA
ENDBRANCH  25  32
BRANCH  29  33
ATOM     33  O   UNL     1      -2.459  11.861  17.686  0.00  0.00    +0.000 OA
ATOM     34  C   UNL     1      -3.656  11.518  18.381  0.00  0.00    +0.000 C 
ENDBRANCH  29  33
ENDBRANCH  23  27
ENDBRANCH   1  24
BRANCH   4  35
ATOM     35  O   UNL     1       3.209   6.762  17.771  0.00  0.00    +0.000 OA
ATOM     36  C   UNL     1       4.525   7.288  17.654  0.00  0.00    +0.000 C 
ENDBRANCH   4  35
TORSDOF 14
ENDMDL
MODEL 8
REMARK VINA RESULT:      -6.8      3.044      3.930
REMARK  Name = 
REMARK  17 active torsions:
REMARK  status: ('A' for Active; 'I' for Inactive)
REMARK    1  A    between atoms: C_1  and  O_2
REMARK    2  A    between atoms: O_2  and  C_3
REMARK    3  A    between atoms: C_5  and  C_6
REMARK    4  A    between atoms: C_7  and  C_8
REMARK    5  A    between atoms: C_11  and  O_12
REMARK    6  A    between atoms: O_12  and  C_13
REMARK    7  A    between atoms: C_14  and  N_15
REMARK    8  A    between atoms: C_16  and  C_18
REMARK    9  A    between atoms: C_18  and  C_19
REMARK   10  A    between atoms: C_19  and  C_20
REMARK   11  A    between atoms: C_20  and  C_21
REMARK   12  A    between atoms: C_21  and  C_22
REMARK   13  A    between atoms: C_22  and  C_23
REMARK   14  A    between atoms: C_23  and  C_24
REMARK   15  A    between atoms: N_26  and  O_27
REMARK   16  A    between atoms: C_30  and  O_31
REMARK   17  A    between atoms: O_31  and  C_32
REMARK                            x       y       z     vdW  Elec       q    Type
REMARK                         _______ _______ _______ _____ _____    ______ ____
ROOT
ATOM      1  C   UNL     1       2.437   5.831  19.445  0.00  0.00    +0.000 A 
ATOM      2  C   UNL     1       2.734   6.504  18.267  0.00  0.00    +0.000 A 
ATOM      3  C   UNL     1       2.311   7.820  18.093  0.00  0.00    +0.000 A 
ATOM      4  C   UNL     1       1.587   8.489  19.096  0.00  0.00    +0.000 A 
ATOM      5  C   UNL     1       1.317   7.831  20.312  0.00  0.00    +0.000 A 
ATOM      6  C   UNL     1       1.753   6.499  20.467  0.00  0.00    +0.000 A 
ENDROOT
BRANCH   5   7
ATOM      7  N   UNL     1       0.579   8.343  21.411  0.00  0.00    +0.000 N 
ATOM      8  C   UNL     1       0.749   9.518  22.122  0.00  0.00    +0.000 C 
ATOM      9  O   UNL     1       1.696  10.293  22.085  0.00  0.00    +0.000 OA
ATOM     10  H   UNL     1      -0.119   7.712  21.781  0.00  0.00    +0.000 HD
BRANCH   8  11
ATOM     11  C   UNL     1      -0.393   9.770  23.097  0.00  0.00    +0.000 C 
BRANCH  11  12
ATOM     12  C   UNL     1      -0.921  11.199  22.958  0.00  0.00    +0.000 C 
BRANCH  12  13
ATOM     13  C   UNL     1      -1.435  11.526  21.553  0.00  0.00    +0.000 C 
BRANCH  13  14
ATOM     14  C   UNL     1      -1.530  13.030  21.288  0.00  0.00    +0.000 C 
BRANCH  14  15
ATOM     15  C   UNL     1      -2.660  13.673  22.090  0.00  0.00    +0.000 C 
BRANCH  15  16
ATOM     16  C   UNL     1      -3.975  12.924  21.876  0.00  0.00    +0.000 C 
BRANCH  16  17
ATOM     17  C   UNL     1      -4.768  12.818  23.161  0.00  0.00    +0.000 C 
ATOM     18  O   UNL     1      -5.903  13.255  23.329  0.00  0.00    +0.000 OA
ATOM     19  N   UNL     1      -4.095  12.156  24.164  0.00  0.00    +0.000 N 
ATOM     20  H   UNL     1      -3.082  12.081  24.194  0.00  0.00    +0.000 HD
BRANCH  19  21
ATOM     21  O   UNL     1      -4.755  12.139  25.415  0.00  0.00    +0.000 OA
ATOM     22  H   UNL     1      -5.465  12.809  25.285  0.00  0.00    +0.000 HD
ENDBRANCH  19  21
ENDBRANCH  16  17
ENDBRANCH  15  16
ENDBRANCH  14  15
ENDBRANCH  13  14
ENDBRANCH  12  13
ENDBRANCH  11  12
ENDBRANCH   8  11
ENDBRANCH   5   7
BRANCH   1  24
ATOM     23  C   UNL     1       3.678   3.695  18.910  0.00  0.00    +0.000 C 
ATOM     24  C   UNL     1       2.752   4.410  19.565  0.00  0.00    +0.000 C 
BRANCH  23  27
ATOM     25  C   UNL     1       5.606   4.408  15.704  0.00  0.00    +0.000 A 
ATOM     26  C   UNL     1       4.639   3.888  16.571  0.00  0.00    +0.000 A 
ATOM     27  C   UNL     1       4.722   4.099  17.950  0.00  0.00    +0.000 A 
ATOM     28  C   UNL     1       5.795   4.860  18.439  0.00  0.00    +0.000 A 
ATOM     29  C   UNL     1       6.715   5.452  17.570  0.00  0.00    +0.000 A 
ATOM     30  C   UNL     1       6.628   5.216  16.201  0.00  0.00    +0.000 A 
BRANCH  25  32
ATOM     31  C   UNL     1       6.621   4.155  13.597  0.00  0.00    +0.000 C 
ATOM     32  O   UNL     1       5.428   4.122  14.376  0.00  0.00    +0.000 OA
ENDBRANCH  25  32
BRANCH  29  33
ATOM     33  O   UNL     1       7.666   6.239  18.163  0.00  0.00    +0.000 OA
ATOM     34  C   UNL     1       8.075   5.803  19.457  0.00  0.00    +0.000 C 
ENDBRANCH  29  33
ENDBRANCH  23  27
ENDBRANCH   1  24
BRANCH   4  35
ATOM     35  O   UNL     1       1.014   9.705  18.848  0.00  0.00    +0.000 OA
ATOM     36  C   UNL     1       1.869  10.718  18.334  0.00  0.00    +0.000 C 
ENDBRANCH   4  35
TORSDOF 14
ENDMDL
MODEL 9
REMARK VINA RESULT:      -6.8      3.893      5.303
REMARK  Name = 
REMARK  17 active torsions:
REMARK  status: ('A' for Active; 'I' for Inactive)
REMARK    1  A    between atoms: C_1  and  O_2
REMARK    2  A    between atoms: O_2  and  C_3
REMARK    3  A    between atoms: C_5  and  C_6
REMARK    4  A    between atoms: C_7  and  C_8
REMARK    5  A    between atoms: C_11  and  O_12
REMARK    6  A    between atoms: O_12  and  C_13
REMARK    7  A    between atoms: C_14  and  N_15
REMARK    8  A    between atoms: C_16  and  C_18
REMARK    9  A    between atoms: C_18  and  C_19
REMARK   10  A    between atoms: C_19  and  C_20
REMARK   11  A    between atoms: C_20  and  C_21
REMARK   12  A    between atoms: C_21  and  C_22
REMARK   13  A    between atoms: C_22  and  C_23
REMARK   14  A    between atoms: C_23  and  C_24
REMARK   15  A    between atoms: N_26  and  O_27
REMARK   16  A    between atoms: C_30  and  O_31
REMARK   17  A    between atoms: O_31  and  C_32
REMARK                            x       y       z     vdW  Elec       q    Type
REMARK                         _______ _______ _______ _____ _____    ______ ____
ROOT
ATOM      1  C   UNL     1       1.517   8.887  18.993  0.00  0.00    +0.000 A 
ATOM      2  C   UNL     1       1.807   8.166  20.145  0.00  0.00    +0.000 A 
ATOM      3  C   UNL     1       1.101   8.421  21.319  0.00  0.00    +0.000 A 
ATOM      4  C   UNL     1       0.090   9.397  21.362  0.00  0.00    +0.000 A 
ATOM      5  C   UNL     1      -0.242  10.103  20.190  0.00  0.00    +0.000 A 
ATOM      6  C   UNL     1       0.485   9.832  19.013  0.00  0.00    +0.000 A 
ENDROOT
BRANCH   5   7
ATOM      7  N   UNL     1      -1.208  11.135  20.063  0.00  0.00    +0.000 N 
ATOM      8  C   UNL     1      -1.126  12.473  20.408  0.00  0.00    +0.000 C 
ATOM      9  O   UNL     1      -0.266  13.029  21.078  0.00  0.00    +0.000 OA
ATOM     10  H   UNL     1      -2.120  10.824  19.756  0.00  0.00    +0.000 HD
BRANCH   8  11
ATOM     11  C   UNL     1      -2.326  13.269  19.913  0.00  0.00    +0.000 C 
BRANCH  11  12
ATOM     12  C   UNL     1      -2.950  14.076  21.052  0.00  0.00    +0.000 C 
BRANCH  12  13
ATOM     13  C   UNL     1      -3.985  13.290  21.862  0.00  0.00    +0.000 C 
BRANCH  13  14
ATOM     14  C   UNL     1      -3.399  12.663  23.129  0.00  0.00    +0.000 C 
BRANCH  14  15
ATOM     15  C   UNL     1      -4.342  12.816  24.321  0.00  0.00    +0.000 C 
BRANCH  15  16
ATOM     16  C   UNL     1      -5.543  13.689  23.958  0.00  0.00    +0.000 C 
BRANCH  16  17
ATOM     17  C   UNL     1      -6.842  12.921  24.073  0.00  0.00    +0.000 C 
ATOM     18  O   UNL     1      -7.889  13.368  24.531  0.00  0.00    +0.000 OA
ATOM     19  N   UNL     1      -6.757  11.632  23.594  0.00  0.00    +0.000 N 
ATOM     20  H   UNL     1      -5.880  11.124  23.526  0.00  0.00    +0.000 HD
BRANCH  19  21
ATOM     21  O   UNL     1      -7.916  10.845  23.791  0.00  0.00    +0.000 OA
ATOM     22  H   UNL     1      -7.988  10.362  22.936  0.00  0.00    +0.000 HD
ENDBRANCH  19  21
ENDBRANCH  16  17
ENDBRANCH  15  16
ENDBRANCH  14  15
ENDBRANCH  13  14
ENDBRANCH  12  13
ENDBRANCH  11  12
ENDBRANCH   8  11
ENDBRANCH   5   7
BRANCH   1  24
ATOM     23  C   UNL     1       3.112   7.675  17.451  0.00  0.00    +0.000 C 
ATOM     24  C   UNL     1       2.354   8.722  17.808  0.00  0.00    +0.000 C 
BRANCH  23  27
ATOM     25  C   UNL     1       2.515   4.104  18.636  0.00  0.00    +0.000 A 
ATOM     26  C   UNL     1       2.256   5.395  18.162  0.00  0.00    +0.000 A 
ATOM     27  C   UNL     1       3.280   6.342  18.059  0.00  0.00    +0.000 A 
ATOM     28  C   UNL     1       4.577   5.956  18.431  0.00  0.00    +0.000 A 
ATOM     29  C   UNL     1       4.855   4.645  18.824  0.00  0.00    +0.000 A 
ATOM     30  C   UNL     1       3.821   3.720  18.938  0.00  0.00    +0.000 A 
BRANCH  25  32
ATOM     31  C   UNL     1       1.574   2.190  19.625  0.00  0.00    +0.000 C 
ATOM     32  O   UNL     1       1.431   3.271  18.707  0.00  0.00    +0.000 OA
ENDBRANCH  25  32
BRANCH  29  33
ATOM     33  O   UNL     1       6.172   4.371  19.079  0.00  0.00    +0.000 OA
ATOM     34  C   UNL     1       7.063   5.455  18.828  0.00  0.00    +0.000 C 
ENDBRANCH  29  33
ENDBRANCH  23  27
ENDBRANCH   1  24
BRANCH   4  35
ATOM     35  O   UNL     1      -0.465   9.773  22.554  0.00  0.00    +0.000 OA
ATOM     36  C   UNL     1       0.162   9.281  23.732  0.00  0.00    +0.000 C 
ENDBRANCH   4  35
TORSDOF 14
ENDMDL
