MODEL 1
REMARK VINA RESULT:      -8.2      0.000      0.000
REMARK  Name = 
REMARK  9 active torsions:
REMARK  status: ('A' for Active; 'I' for Inactive)
REMARK    1  A    between atoms: C_1  and  C_2
REMARK    2  A    between atoms: C_2  and  C_3
REMARK    3  A    between atoms: C_2  and  C_4
REMARK    4  A    between atoms: N_6  and  C_7
REMARK    5  A    between atoms: C_11  and  C_12
REMARK    6  A    between atoms: C_18  and  C_19
REMARK    7  A    between atoms: C_19  and  C_20
REMARK    8  A    between atoms: C_19  and  C_21
REMARK    9  A    between atoms: C_19  and  C_22
REMARK                            x       y       z     vdW  Elec       q    Type
REMARK                         _______ _______ _______ _____ _____    ______ ____
ROOT
ATOM      1  C   UNL     1       3.963   5.162  19.124  0.00  0.00    +0.000 A 
ATOM      2  C   UNL     1       3.412   4.047  19.759  0.00  0.00    +0.000 A 
ATOM      3  C   UNL     1       2.279   4.164  20.570  0.00  0.00    +0.000 A 
ATOM      4  C   UNL     1       1.687   5.405  20.764  0.00  0.00    +0.000 A 
ATOM      5  C   UNL     1       2.244   6.540  20.166  0.00  0.00    +0.000 A 
ATOM      6  C   UNL     1       3.383   6.420  19.345  0.00  0.00    +0.000 A 
ENDROOT
BRANCH   5   7
ATOM      7  C   UNL     1       1.612   7.881  20.348  0.00  0.00    +0.000 C 
ATOM      8  O   UNL     1       1.577   8.639  19.384  0.00  0.00    +0.000 OA
ATOM      9  N   UNL     1       1.175   8.141  21.627  0.00  0.00    +0.000 N 
ATOM     10  C   UNL     1       0.494   9.256  22.048  0.00  0.00    +0.000 A 
ATOM     11  N   UNL     1       0.316   9.525  23.320  0.00  0.00    +0.000 NA
ATOM     12  N   UNL     1      -0.408  10.683  23.512  0.00  0.00    +0.000 NA
ATOM     13  C   UNL     1      -0.795  11.233  22.374  0.00  0.00    +0.000 A 
ATOM     14  S   UNL     1      -0.265  10.347  20.987  0.00  0.00    +0.000 S 
ATOM     15  H   UNL     1       1.464   7.543  22.389  0.00  0.00    +0.000 HD
BRANCH  13  16
ATOM     16  C   UNL     1      -1.631  12.501  22.266  0.00  0.00    +0.000 C 
ATOM     17  C   UNL     1      -2.794  12.449  23.280  0.00  0.00    +0.000 C 
ATOM     18  C   UNL     1      -0.784  13.747  22.580  0.00  0.00    +0.000 C 
ATOM     19  C   UNL     1      -2.236  12.631  20.856  0.00  0.00    +0.000 C 
ENDBRANCH  13  16
ENDBRANCH   5   7
BRANCH   1  22
ATOM     20  C   UNL     1       6.416   5.240  18.689  0.00  0.00    +0.000 C 
ATOM     21  O   UNL     1       6.782   5.333  19.858  0.00  0.00    +0.000 OA
ATOM     22  N   UNL     1       5.101   5.073  18.279  0.00  0.00    +0.000 N 
ATOM     23  H   UNL     1       4.946   4.751  17.330  0.00  0.00    +0.000 HD
BRANCH  20  25
ATOM     24  C   UNL     1       6.965   4.416  16.373  0.00  0.00    +0.000 C 
ATOM     25  C   UNL     1       7.432   5.272  17.545  0.00  0.00    +0.000 C 
ATOM     26  C   UNL     1       7.646   6.714  17.069  0.00  0.00    +0.000 C 
ENDBRANCH  20  25
ENDBRANCH   1  22
TORSDOF 4
ENDMDL
MODEL 2
REMARK VINA RESULT:      -8.0      1.215      1.389
REMARK  Name = 
REMARK  9 active torsions:
REMARK  status: ('A' for Active; 'I' for Inactive)
REMARK    1  A    between atoms: C_1  and  C_2
REMARK    2  A    between atoms: C_2  and  C_3
REMARK    3  A    between atoms: C_2  and  C_4
REMARK    4  A    between atoms: N_6  and  C_7
REMARK    5  A    between atoms: C_11  and  C_12
REMARK    6  A    between atoms: C_18  and  C_19
REMARK    7  A    between atoms: C_19  and  C_20
REMARK    8  A    between atoms: C_19  and  C_21
REMARK    9  A    between atoms: C_19  and  C_22
REMARK                            x       y       z     vdW  Elec       q    Type
REMARK                         _______ _______ _______ _____ _____    ______ ____
ROOT
ATOM      1  C   UNL     1       3.922   4.987  18.943  0.00  0.00    +0.000 A 
ATOM      2  C   UNL     1       3.464   3.915  19.712  0.00  0.00    +0.000 A 
ATOM      3  C   UNL     1       2.434   4.082  20.643  0.00  0.00    +0.000 A 
ATOM      4  C   UNL     1       1.855   5.332  20.825  0.00  0.00    +0.000 A 
ATOM      5  C   UNL     1       2.325   6.427  20.090  0.00  0.00    +0.000 A 
ATOM      6  C   UNL     1       3.359   6.255  19.149  0.00  0.00    +0.000 A 
ENDROOT
BRANCH   5   7
ATOM      7  C   UNL     1       1.704   7.774  20.258  0.00  0.00    +0.000 C 
ATOM      8  O   UNL     1       1.663   8.517  19.282  0.00  0.00    +0.000 OA
ATOM      9  N   UNL     1       1.285   8.059  21.537  0.00  0.00    +0.000 N 
ATOM     10  C   UNL     1       0.617   9.186  21.948  0.00  0.00    +0.000 A 
ATOM     11  N   UNL     1       0.457   9.477  23.217  0.00  0.00    +0.000 NA
ATOM     12  N   UNL     1      -0.257  10.643  23.398  0.00  0.00    +0.000 NA
ATOM     13  C   UNL     1      -0.654  11.177  22.256  0.00  0.00    +0.000 A 
ATOM     14  S   UNL     1      -0.148  10.264  20.878  0.00  0.00    +0.000 S 
ATOM     15  H   UNL     1       1.579   7.472  22.305  0.00  0.00    +0.000 HD
BRANCH  13  16
ATOM     16  C   UNL     1      -1.483  12.449  22.138  0.00  0.00    +0.000 C 
ATOM     17  C   UNL     1      -2.688  12.380  23.100  0.00  0.00    +0.000 C 
ATOM     18  C   UNL     1      -0.648  13.687  22.511  0.00  0.00    +0.000 C 
ATOM     19  C   UNL     1      -2.028  12.607  20.706  0.00  0.00    +0.000 C 
ENDBRANCH  13  16
ENDBRANCH   5   7
BRANCH   1  22
ATOM     20  C   UNL     1       4.831   4.168  16.771  0.00  0.00    +0.000 C 
ATOM     21  O   UNL     1       3.778   3.735  16.311  0.00  0.00    +0.000 OA
ATOM     22  N   UNL     1       4.952   4.845  17.976  0.00  0.00    +0.000 N 
ATOM     23  H   UNL     1       5.803   5.375  18.129  0.00  0.00    +0.000 HD
BRANCH  20  25
ATOM     24  C   UNL     1       6.045   4.636  14.615  0.00  0.00    +0.000 C 
ATOM     25  C   UNL     1       6.145   4.013  16.002  0.00  0.00    +0.000 C 
ATOM     26  C   UNL     1       7.291   4.674  16.777  0.00  0.00    +0.000 C 
ENDBRANCH  20  25
ENDBRANCH   1  22
TORSDOF 4
ENDMDL
MODEL 3
REMARK VINA RESULT:      -7.8      0.738      1.235
REMARK  Name = 
REMARK  9 active torsions:
REMARK  status: ('A' for Active; 'I' for Inactive)
REMARK    1  A    between atoms: C_1  and  C_2
REMARK    2  A    between atoms: C_2  and  C_3
REMARK    3  A    between atoms: C_2  and  C_4
REMARK    4  A    between atoms: N_6  and  C_7
REMARK    5  A    between atoms: C_11  and  C_12
REMARK    6  A    between atoms: C_18  and  C_19
REMARK    7  A    between atoms: C_19  and  C_20
REMARK    8  A    between atoms: C_19  and  C_21
REMARK    9  A    between atoms: C_19  and  C_22
REMARK                            x       y       z     vdW  Elec       q    Type
REMARK                         _______ _______ _______ _____ _____    ______ ____
ROOT
ATOM      1  C   UNL     1       3.653   4.811  18.826  0.00  0.00    +0.000 A 
ATOM      2  C   UNL     1       3.165   3.797  19.652  0.00  0.00    +0.000 A 
ATOM      3  C   UNL     1       2.204   4.064  20.632  0.00  0.00    +0.000 A 
ATOM      4  C   UNL     1       1.725   5.356  20.805  0.00  0.00    +0.000 A 
ATOM      5  C   UNL     1       2.228   6.393  20.011  0.00  0.00    +0.000 A 
ATOM      6  C   UNL     1       3.193   6.121  19.020  0.00  0.00    +0.000 A 
ENDROOT
BRANCH   5   7
ATOM      7  C   UNL     1       1.714   7.786  20.168  0.00  0.00    +0.000 C 
ATOM      8  O   UNL     1       1.809   8.549  19.212  0.00  0.00    +0.000 OA
ATOM      9  N   UNL     1       1.224   8.080  21.420  0.00  0.00    +0.000 N 
ATOM     10  C   UNL     1       0.626   9.252  21.811  0.00  0.00    +0.000 A 
ATOM     11  N   UNL     1       0.395   9.530  23.073  0.00  0.00    +0.000 NA
ATOM     12  N   UNL     1      -0.228  10.750  23.232  0.00  0.00    +0.000 NA
ATOM     13  C   UNL     1      -0.491  11.339  22.078  0.00  0.00    +0.000 A 
ATOM     14  S   UNL     1       0.038  10.414  20.717  0.00  0.00    +0.000 S 
ATOM     15  H   UNL     1       1.409   7.454  22.192  0.00  0.00    +0.000 HD
BRANCH  13  16
ATOM     16  C   UNL     1      -1.197  12.680  21.933  0.00  0.00    +0.000 C 
ATOM     17  C   UNL     1      -0.501  13.522  20.842  0.00  0.00    +0.000 C 
ATOM     18  C   UNL     1      -2.667  12.487  21.519  0.00  0.00    +0.000 C 
ATOM     19  C   UNL     1      -1.132  13.470  23.254  0.00  0.00    +0.000 C 
ENDBRANCH  13  16
ENDBRANCH   5   7
BRANCH   1  22
ATOM     20  C   UNL     1       5.989   4.549  17.996  0.00  0.00    +0.000 C 
ATOM     21  O   UNL     1       6.551   4.587  19.087  0.00  0.00    +0.000 OA
ATOM     22  N   UNL     1       4.614   4.568  17.809  0.00  0.00    +0.000 N 
ATOM     23  H   UNL     1       4.263   4.274  16.904  0.00  0.00    +0.000 HD
BRANCH  20  25
ATOM     24  C   UNL     1       5.976   3.799  15.591  0.00  0.00    +0.000 C 
ATOM     25  C   UNL     1       6.798   4.445  16.701  0.00  0.00    +0.000 C 
ATOM     26  C   UNL     1       7.257   5.838  16.251  0.00  0.00    +0.000 C 
ENDBRANCH  20  25
ENDBRANCH   1  22
TORSDOF 4
ENDMDL
MODEL 4
REMARK VINA RESULT:      -7.7      0.992      1.157
REMARK  Name = 
REMARK  9 active torsions:
REMARK  status: ('A' for Active; 'I' for Inactive)
REMARK    1  A    between atoms: C_1  and  C_2
REMARK    2  A    between atoms: C_2  and  C_3
REMARK    3  A    between atoms: C_2  and  C_4
REMARK    4  A    between atoms: N_6  and  C_7
REMARK    5  A    between atoms: C_11  and  C_12
REMARK    6  A    between atoms: C_18  and  C_19
REMARK    7  A    between atoms: C_19  and  C_20
REMARK    8  A    between atoms: C_19  and  C_21
REMARK    9  A    between atoms: C_19  and  C_22
REMARK                            x       y       z     vdW  Elec       q    Type
REMARK                         _______ _______ _______ _____ _____    ______ ____
ROOT
ATOM      1  C   UNL     1       3.472   4.609  18.639  0.00  0.00    +0.000 A 
ATOM      2  C   UNL     1       3.095   3.645  19.576  0.00  0.00    +0.000 A 
ATOM      3  C   UNL     1       2.286   3.975  20.668  0.00  0.00    +0.000 A 
ATOM      4  C   UNL     1       1.852   5.283  20.842  0.00  0.00    +0.000 A 
ATOM      5  C   UNL     1       2.248   6.271  19.935  0.00  0.00    +0.000 A 
ATOM      6  C   UNL     1       3.059   5.935  18.832  0.00  0.00    +0.000 A 
ENDROOT
BRANCH   5   7
ATOM      7  C   UNL     1       1.777   7.679  20.094  0.00  0.00    +0.000 C 
ATOM      8  O   UNL     1       1.919   8.447  19.148  0.00  0.00    +0.000 OA
ATOM      9  N   UNL     1       1.271   7.978  21.338  0.00  0.00    +0.000 N 
ATOM     10  C   UNL     1       0.704   9.167  21.727  0.00  0.00    +0.000 A 
ATOM     11  N   UNL     1       0.455   9.441  22.986  0.00  0.00    +0.000 NA
ATOM     12  N   UNL     1      -0.130  10.680  23.144  0.00  0.00    +0.000 NA
ATOM     13  C   UNL     1      -0.348  11.288  21.991  0.00  0.00    +0.000 A 
ATOM     14  S   UNL     1       0.179  10.357  20.632  0.00  0.00    +0.000 S 
ATOM     15  H   UNL     1       1.418   7.340  22.108  0.00  0.00    +0.000 HD
BRANCH  13  16
ATOM     16  C   UNL     1      -1.005  12.653  21.843  0.00  0.00    +0.000 C 
ATOM     17  C   UNL     1      -1.163  13.311  23.231  0.00  0.00    +0.000 C 
ATOM     18  C   UNL     1      -0.146  13.587  20.971  0.00  0.00    +0.000 C 
ATOM     19  C   UNL     1      -2.408  12.514  21.222  0.00  0.00    +0.000 C 
ENDBRANCH  13  16
ENDBRANCH   5   7
BRANCH   1  22
ATOM     20  C   UNL     1       5.663   4.294  17.494  0.00  0.00    +0.000 C 
ATOM     21  O   UNL     1       6.379   4.402  18.486  0.00  0.00    +0.000 OA
ATOM     22  N   UNL     1       4.276   4.301  17.510  0.00  0.00    +0.000 N 
ATOM     23  H   UNL     1       3.798   3.949  16.688  0.00  0.00    +0.000 HD
BRANCH  20  25
ATOM     24  C   UNL     1       5.242   4.362  15.011  0.00  0.00    +0.000 C 
ATOM     25  C   UNL     1       6.274   4.106  16.103  0.00  0.00    +0.000 C 
ATOM     26  C   UNL     1       7.462   5.057  15.915  0.00  0.00    +0.000 C 
ENDBRANCH  20  25
ENDBRANCH   1  22
TORSDOF 4
ENDMDL
MODEL 5
REMARK VINA RESULT:      -7.6      3.225      4.891
REMARK  Name = 
REMARK  9 active torsions:
REMARK  status: ('A' for Active; 'I' for Inactive)
REMARK    1  A    between atoms: C_1  and  C_2
REMARK    2  A    between atoms: C_2  and  C_3
REMARK    3  A    between atoms: C_2  and  C_4
REMARK    4  A    between atoms: N_6  and  C_7
REMARK    5  A    between atoms: C_11  and  C_12
REMARK    6  A    between atoms: C_18  and  C_19
REMARK    7  A    between atoms: C_19  and  C_20
REMARK    8  A    between atoms: C_19  and  C_21
REMARK    9  A    between atoms: C_19  and  C_22
REMARK                            x       y       z     vdW  Elec       q    Type
REMARK                         _______ _______ _______ _____ _____    ______ ____
ROOT
ATOM      1  C   UNL     1       6.191   4.285  15.729  0.00  0.00    +0.000 A 
ATOM      2  C   UNL     1       7.368   4.158  16.470  0.00  0.00    +0.000 A 
ATOM      3  C   UNL     1       7.457   4.650  17.776  0.00  0.00    +0.000 A 
ATOM      4  C   UNL     1       6.367   5.288  18.355  0.00  0.00    +0.000 A 
ATOM      5  C   UNL     1       5.191   5.457  17.617  0.00  0.00    +0.000 A 
ATOM      6  C   UNL     1       5.102   4.956  16.303  0.00  0.00    +0.000 A 
ENDROOT
BRANCH   5   7
ATOM      7  C   UNL     1       4.002   6.124  18.227  0.00  0.00    +0.000 C 
ATOM      8  O   UNL     1       3.399   5.531  19.115  0.00  0.00    +0.000 OA
ATOM      9  N   UNL     1       3.678   7.341  17.672  0.00  0.00    +0.000 N 
ATOM     10  C   UNL     1       2.687   8.194  18.091  0.00  0.00    +0.000 A 
ATOM     11  N   UNL     1       2.301   9.221  17.371  0.00  0.00    +0.000 NA
ATOM     12  N   UNL     1       1.308   9.949  17.992  0.00  0.00    +0.000 NA
ATOM     13  C   UNL     1       1.003   9.474  19.187  0.00  0.00    +0.000 A 
ATOM     14  S   UNL     1       1.928   8.075  19.608  0.00  0.00    +0.000 S 
ATOM     15  H   UNL     1       4.098   7.623  16.797  0.00  0.00    +0.000 HD
BRANCH  13  16
ATOM     16  C   UNL     1      -0.035  10.081  20.121  0.00  0.00    +0.000 C 
ATOM     17  C   UNL     1      -1.376  10.250  19.374  0.00  0.00    +0.000 C 
ATOM     18  C   UNL     1      -0.280   9.172  21.338  0.00  0.00    +0.000 C 
ATOM     19  C   UNL     1       0.419  11.473  20.600  0.00  0.00    +0.000 C 
ENDBRANCH  13  16
ENDBRANCH   5   7
BRANCH   1  22
ATOM     20  C   UNL     1       6.685   4.307  13.286  0.00  0.00    +0.000 C 
ATOM     21  O   UNL     1       7.545   5.183  13.305  0.00  0.00    +0.000 OA
ATOM     22  N   UNL     1       6.064   3.778  14.409  0.00  0.00    +0.000 N 
ATOM     23  H   UNL     1       5.574   2.897  14.299  0.00  0.00    +0.000 HD
BRANCH  20  25
ATOM     24  C   UNL     1       7.147   2.528  11.563  0.00  0.00    +0.000 C 
ATOM     25  C   UNL     1       6.233   3.680  11.965  0.00  0.00    +0.000 C 
ATOM     26  C   UNL     1       4.792   3.170  12.089  0.00  0.00    +0.000 C 
ENDBRANCH  20  25
ENDBRANCH   1  22
TORSDOF 4
ENDMDL
MODEL 6
REMARK VINA RESULT:      -7.6      3.071      4.529
REMARK  Name = 
REMARK  9 active torsions:
REMARK  status: ('A' for Active; 'I' for Inactive)
REMARK    1  A    between atoms: C_1  and  C_2
REMARK    2  A    between atoms: C_2  and  C_3
REMARK    3  A    between atoms: C_2  and  C_4
REMARK    4  A    between atoms: N_6  and  C_7
REMARK    5  A    between atoms: C_11  and  C_12
REMARK    6  A    between atoms: C_18  and  C_19
REMARK    7  A    between atoms: C_19  and  C_20
REMARK    8  A    between atoms: C_19  and  C_21
REMARK    9  A    between atoms: C_19  and  C_22
REMARK                            x       y       z     vdW  Elec       q    Type
REMARK                         _______ _______ _______ _____ _____    ______ ____
ROOT
ATOM      1  C   UNL     1       6.240   4.354  16.342  0.00  0.00    +0.000 A 
ATOM      2  C   UNL     1       7.410   4.361  17.104  0.00  0.00    +0.000 A 
ATOM      3  C   UNL     1       7.458   4.996  18.349  0.00  0.00    +0.000 A 
ATOM      4  C   UNL     1       6.334   5.644  18.844  0.00  0.00    +0.000 A 
ATOM      5  C   UNL     1       5.162   5.679  18.079  0.00  0.00    +0.000 A 
ATOM      6  C   UNL     1       5.114   5.034  16.828  0.00  0.00    +0.000 A 
ENDROOT
BRANCH   5   7
ATOM      7  C   UNL     1       3.937   6.355  18.601  0.00  0.00    +0.000 C 
ATOM      8  O   UNL     1       3.354   5.843  19.551  0.00  0.00    +0.000 OA
ATOM      9  N   UNL     1       3.560   7.481  17.904  0.00  0.00    +0.000 N 
ATOM     10  C   UNL     1       2.525   8.328  18.215  0.00  0.00    +0.000 A 
ATOM     11  N   UNL     1       2.098   9.242  17.375  0.00  0.00    +0.000 NA
ATOM     12  N   UNL     1       1.064   9.989  17.901  0.00  0.00    +0.000 NA
ATOM     13  C   UNL     1       0.771   9.644  19.143  0.00  0.00    +0.000 A 
ATOM     14  S   UNL     1       1.758   8.353  19.732  0.00  0.00    +0.000 S 
ATOM     15  H   UNL     1       3.975   7.676  17.003  0.00  0.00    +0.000 HD
BRANCH  13  16
ATOM     16  C   UNL     1      -0.304  10.307  19.993  0.00  0.00    +0.000 C 
ATOM     17  C   UNL     1      -0.601   9.437  21.234  0.00  0.00    +0.000 C 
ATOM     18  C   UNL     1       0.158  11.691  20.485  0.00  0.00    +0.000 C 
ATOM     19  C   UNL     1      -1.612  10.454  19.193  0.00  0.00    +0.000 C 
ENDBRANCH  13  16
ENDBRANCH   5   7
BRANCH   1  22
ATOM     20  C   UNL     1       6.592   4.229  13.877  0.00  0.00    +0.000 C 
ATOM     21  O   UNL     1       7.248   5.260  13.757  0.00  0.00    +0.000 OA
ATOM     22  N   UNL     1       6.155   3.701  15.084  0.00  0.00    +0.000 N 
ATOM     23  H   UNL     1       5.856   2.732  15.088  0.00  0.00    +0.000 HD
BRANCH  20  25
ATOM     24  C   UNL     1       4.751   3.598  12.278  0.00  0.00    +0.000 C 
ATOM     25  C   UNL     1       6.214   3.393  12.652  0.00  0.00    +0.000 C 
ATOM     26  C   UNL     1       7.103   3.770  11.461  0.00  0.00    +0.000 C 
ENDBRANCH  20  25
ENDBRANCH   1  22
TORSDOF 4
ENDMDL
MODEL 7
REMARK VINA RESULT:      -7.5      1.135      1.619
REMARK  Name = 
REMARK  9 active torsions:
REMARK  status: ('A' for Active; 'I' for Inactive)
REMARK    1  A    between atoms: C_1  and  C_2
REMARK    2  A    between atoms: C_2  and  C_3
REMARK    3  A    between atoms: C_2  and  C_4
REMARK    4  A    between atoms: N_6  and  C_7
REMARK    5  A    between atoms: C_11  and  C_12
REMARK    6  A    between atoms: C_18  and  C_19
REMARK    7  A    between atoms: C_19  and  C_20
REMARK    8  A    between atoms: C_19  and  C_21
REMARK    9  A    between atoms: C_19  and  C_22
REMARK                            x       y       z     vdW  Elec       q    Type
REMARK                         _______ _______ _______ _____ _____    ______ ____
ROOT
ATOM      1  C   UNL     1       3.906   5.061  18.859  0.00  0.00    +0.000 A 
ATOM      2  C   UNL     1       3.438   3.973  19.597  0.00  0.00    +0.000 A 
ATOM      3  C   UNL     1       2.399   4.120  20.522  0.00  0.00    +0.000 A 
ATOM      4  C   UNL     1       1.821   5.366  20.727  0.00  0.00    +0.000 A 
ATOM      5  C   UNL     1       2.300   6.476  20.023  0.00  0.00    +0.000 A 
ATOM      6  C   UNL     1       3.343   6.325  19.088  0.00  0.00    +0.000 A 
ENDROOT
BRANCH   5   7
ATOM      7  C   UNL     1       1.680   7.821  20.217  0.00  0.00    +0.000 C 
ATOM      8  O   UNL     1       1.623   8.575  19.251  0.00  0.00    +0.000 OA
ATOM      9  N   UNL     1       1.278   8.089  21.506  0.00  0.00    +0.000 N 
ATOM     10  C   UNL     1       0.615   9.210  21.940  0.00  0.00    +0.000 A 
ATOM     11  N   UNL     1       0.473   9.485  23.215  0.00  0.00    +0.000 NA
ATOM     12  N   UNL     1      -0.240  10.647  23.421  0.00  0.00    +0.000 NA
ATOM     13  C   UNL     1      -0.654  11.195  22.292  0.00  0.00    +0.000 A 
ATOM     14  S   UNL     1      -0.167  10.300  20.895  0.00  0.00    +0.000 S 
ATOM     15  H   UNL     1       1.585   7.493  22.262  0.00  0.00    +0.000 HD
BRANCH  13  16
ATOM     16  C   UNL     1      -1.486  12.467  22.201  0.00  0.00    +0.000 C 
ATOM     17  C   UNL     1      -2.024  12.639  20.764  0.00  0.00    +0.000 C 
ATOM     18  C   UNL     1      -2.693  12.405  23.155  0.00  0.00    +0.000 C 
ATOM     19  C   UNL     1      -0.626  13.700  22.537  0.00  0.00    +0.000 C 
ENDBRANCH  13  16
ENDBRANCH   5   7
BRANCH   1  22
ATOM     20  C   UNL     1       5.125   5.775  16.805  0.00  0.00    +0.000 C 
ATOM     21  O   UNL     1       4.506   6.816  16.605  0.00  0.00    +0.000 OA
ATOM     22  N   UNL     1       4.945   4.940  17.899  0.00  0.00    +0.000 N 
ATOM     23  H   UNL     1       5.674   4.263  18.093  0.00  0.00    +0.000 HD
BRANCH  20  25
ATOM     24  C   UNL     1       7.320   4.563  16.566  0.00  0.00    +0.000 C 
ATOM     25  C   UNL     1       6.212   5.311  15.833  0.00  0.00    +0.000 C 
ATOM     26  C   UNL     1       5.606   4.400  14.758  0.00  0.00    +0.000 C 
ENDBRANCH  20  25
ENDBRANCH   1  22
TORSDOF 4
ENDMDL
MODEL 8
REMARK VINA RESULT:      -7.5      2.507      3.339
REMARK  Name = 
REMARK  9 active torsions:
REMARK  status: ('A' for Active; 'I' for Inactive)
REMARK    1  A    between atoms: C_1  and  C_2
REMARK    2  A    between atoms: C_2  and  C_3
REMARK    3  A    between atoms: C_2  and  C_4
REMARK    4  A    between atoms: N_6  and  C_7
REMARK    5  A    between atoms: C_11  and  C_12
REMARK    6  A    between atoms: C_18  and  C_19
REMARK    7  A    between atoms: C_19  and  C_20
REMARK    8  A    between atoms: C_19  and  C_21
REMARK    9  A    between atoms: C_19  and  C_22
REMARK                            x       y       z     vdW  Elec       q    Type
REMARK                         _______ _______ _______ _____ _____    ______ ____
ROOT
ATOM      1  C   UNL     1       5.060   4.642  16.917  0.00  0.00    +0.000 A 
ATOM      2  C   UNL     1       5.276   3.984  18.130  0.00  0.00    +0.000 A 
ATOM      3  C   UNL     1       4.729   4.468  19.322  0.00  0.00    +0.000 A 
ATOM      4  C   UNL     1       3.965   5.628  19.317  0.00  0.00    +0.000 A 
ATOM      5  C   UNL     1       3.767   6.322  18.119  0.00  0.00    +0.000 A 
ATOM      6  C   UNL     1       4.315   5.829  16.917  0.00  0.00    +0.000 A 
ENDROOT
BRANCH   5   7
ATOM      7  C   UNL     1       2.934   7.561  18.089  0.00  0.00    +0.000 C 
ATOM      8  O   UNL     1       2.982   8.266  17.086  0.00  0.00    +0.000 OA
ATOM      9  N   UNL     1       2.227   7.806  19.244  0.00  0.00    +0.000 N 
ATOM     10  C   UNL     1       1.332   8.825  19.455  0.00  0.00    +0.000 A 
ATOM     11  N   UNL     1       0.878   9.116  20.651  0.00  0.00    +0.000 NA
ATOM     12  N   UNL     1      -0.022  10.162  20.627  0.00  0.00    +0.000 NA
ATOM     13  C   UNL     1      -0.254  10.602  19.402  0.00  0.00    +0.000 A 
ATOM     14  S   UNL     1       0.649   9.747  18.200  0.00  0.00    +0.000 S 
ATOM     15  H   UNL     1       2.444   7.289  20.085  0.00  0.00    +0.000 HD
BRANCH  13  16
ATOM     16  C   UNL     1      -1.219  11.727  19.056  0.00  0.00    +0.000 C 
ATOM     17  C   UNL     1      -0.444  12.908  18.431  0.00  0.00    +0.000 C 
ATOM     18  C   UNL     1      -2.270  11.256  18.034  0.00  0.00    +0.000 C 
ATOM     19  C   UNL     1      -1.926  12.242  20.323  0.00  0.00    +0.000 C 
ENDBRANCH  13  16
ENDBRANCH   5   7
BRANCH   1  22
ATOM     20  C   UNL     1       6.693   4.687  15.034  0.00  0.00    +0.000 C 
ATOM     21  O   UNL     1       7.455   5.527  15.503  0.00  0.00    +0.000 OA
ATOM     22  N   UNL     1       5.586   4.164  15.687  0.00  0.00    +0.000 N 
ATOM     23  H   UNL     1       5.190   3.306  15.320  0.00  0.00    +0.000 HD
BRANCH  20  25
ATOM     24  C   UNL     1       5.619   3.690  12.984  0.00  0.00    +0.000 C 
ATOM     25  C   UNL     1       6.932   4.103  13.639  0.00  0.00    +0.000 C 
ATOM     26  C   UNL     1       7.644   5.132  12.752  0.00  0.00    +0.000 C 
ENDBRANCH  20  25
ENDBRANCH   1  22
TORSDOF 4
ENDMDL
MODEL 9
REMARK VINA RESULT:      -7.5      1.226      1.486
REMARK  Name = 
REMARK  9 active torsions:
REMARK  status: ('A' for Active; 'I' for Inactive)
REMARK    1  A    between atoms: C_1  and  C_2
REMARK    2  A    between atoms: C_2  and  C_3
REMARK    3  A    between atoms: C_2  and  C_4
REMARK    4  A    between atoms: N_6  and  C_7
REMARK    5  A    between atoms: C_11  and  C_12
REMARK    6  A    between atoms: C_18  and  C_19
REMARK    7  A    between atoms: C_19  and  C_20
REMARK    8  A    between atoms: C_19  and  C_21
REMARK    9  A    between atoms: C_19  and  C_22
REMARK                            x       y       z     vdW  Elec       q    Type
REMARK                         _______ _______ _______ _____ _____    ______ ____
ROOT
ATOM      1  C   UNL     1       3.744   5.015  18.138  0.00  0.00    +0.000 A 
ATOM      2  C   UNL     1       3.633   3.998  19.089  0.00  0.00    +0.000 A 
ATOM      3  C   UNL     1       2.927   4.195  20.279  0.00  0.00    +0.000 A 
ATOM      4  C   UNL     1       2.329   5.422  20.540  0.00  0.00    +0.000 A 
ATOM      5  C   UNL     1       2.459   6.465  19.616  0.00  0.00    +0.000 A 
ATOM      6  C   UNL     1       3.167   6.263  18.415  0.00  0.00    +0.000 A 
ENDROOT
BRANCH   5   7
ATOM      7  C   UNL     1       1.809   7.786  19.869  0.00  0.00    +0.000 C 
ATOM      8  O   UNL     1       1.690   8.561  18.926  0.00  0.00    +0.000 OA
ATOM      9  N   UNL     1       1.455   8.010  21.180  0.00  0.00    +0.000 N 
ATOM     10  C   UNL     1       0.778   9.100  21.669  0.00  0.00    +0.000 A 
ATOM     11  N   UNL     1       0.682   9.340  22.956  0.00  0.00    +0.000 NA
ATOM     12  N   UNL     1      -0.055  10.475  23.221  0.00  0.00    +0.000 NA
ATOM     13  C   UNL     1      -0.532  11.037  22.124  0.00  0.00    +0.000 A 
ATOM     14  S   UNL     1      -0.079  10.191  20.686  0.00  0.00    +0.000 S 
ATOM     15  H   UNL     1       1.810   7.406  21.907  0.00  0.00    +0.000 HD
BRANCH  13  16
ATOM     16  C   UNL     1      -1.404  12.285  22.099  0.00  0.00    +0.000 C 
ATOM     17  C   UNL     1      -2.517  12.167  23.162  0.00  0.00    +0.000 C 
ATOM     18  C   UNL     1      -0.574  13.542  22.419  0.00  0.00    +0.000 C 
ATOM     19  C   UNL     1      -2.077  12.447  20.724  0.00  0.00    +0.000 C 
ENDBRANCH  13  16
ENDBRANCH   5   7
BRANCH   1  22
ATOM     20  C   UNL     1       5.538   5.579  16.502  0.00  0.00    +0.000 C 
ATOM     21  O   UNL     1       6.151   6.376  17.206  0.00  0.00    +0.000 OA
ATOM     22  N   UNL     1       4.438   4.839  16.912  0.00  0.00    +0.000 N 
ATOM     23  H   UNL     1       4.178   4.038  16.347  0.00  0.00    +0.000 HD
BRANCH  20  25
ATOM     24  C   UNL     1       7.464   4.979  14.994  0.00  0.00    +0.000 C 
ATOM     25  C   UNL     1       5.977   5.306  15.061  0.00  0.00    +0.000 C 
ATOM     26  C   UNL     1       5.171   4.140  14.476  0.00  0.00    +0.000 C 
ENDBRANCH  20  25
ENDBRANCH   1  22
TORSDOF 4
ENDMDL
