MODEL 1
REMARK VINA RESULT:     -10.9      0.000      0.000
REMARK  Name = 
REMARK  4 active torsions:
REMARK  status: ('A' for Active; 'I' for Inactive)
REMARK    1  A    between atoms: C_7  and  C_8
REMARK    2  A    between atoms: C_8  and  C_9
REMARK    3  A    between atoms: C_8  and  C_27
REMARK    4  A    between atoms: C_12  and  C_13
REMARK                            x       y       z     vdW  Elec       q    Type
REMARK                         _______ _______ _______ _____ _____    ______ ____
ROOT
ATOM      1  C   UNL     1       2.729   6.392  19.192  0.00  0.00    +0.000 A 
ATOM      2  C   UNL     1       2.543   7.610  18.645  0.00  0.00    +0.000 A 
ATOM      3  C   UNL     1       1.762   8.630  19.305  0.00  0.00    +0.000 A 
ATOM      4  C   UNL     1       1.162   8.361  20.474  0.00  0.00    +0.000 A 
ATOM      5  N   UNL     1       1.376   7.153  21.085  0.00  0.00    +0.000 N 
ATOM      6  C   UNL     1       2.190   6.167  20.579  0.00  0.00    +0.000 A 
ATOM      7  O   UNL     1       2.453   5.161  21.229  0.00  0.00    +0.000 OA
ATOM      8  H   UNL     1       0.971   6.971  21.994  0.00  0.00    +0.000 HD
ENDROOT
BRANCH   4   9
ATOM      9  C   UNL     1       0.296   9.343  21.134  0.00  0.00    +0.000 A 
ATOM     10  C   UNL     1       0.055   9.260  22.508  0.00  0.00    +0.000 A 
ATOM     11  C   UNL     1      -0.733  10.224  23.144  0.00  0.00    +0.000 A 
ATOM     12  C   UNL     1      -1.296  11.288  22.415  0.00  0.00    +0.000 A 
ATOM     13  C   UNL     1      -2.078  12.270  23.048  0.00  0.00    +0.000 A 
ATOM     14  C   UNL     1      -2.630  13.326  22.317  0.00  0.00    +0.000 A 
ATOM     15  C   UNL     1      -2.411  13.409  20.946  0.00  0.00    +0.000 A 
ATOM     16  C   UNL     1      -1.638  12.440  20.312  0.00  0.00    +0.000 A 
ATOM     17  F   UNL     1      -1.444  12.545  18.989  0.00  0.00    +0.000 F 
ATOM     18  C   UNL     1      -1.068  11.371  21.022  0.00  0.00    +0.000 A 
ATOM     19  C   UNL     1      -0.272  10.392  20.396  0.00  0.00    +0.000 A 
ENDBRANCH   4   9
BRANCH   1  20
ATOM     20  C   UNL     1       3.424   5.206  18.532  0.00  0.00    +0.000 C 
BRANCH  20  27
ATOM     21  O   UNL     1       8.257   5.269  20.719  0.00  0.00    +0.000 OA
ATOM     22  C   UNL     1       7.580   5.497  19.728  0.00  0.00    +0.000 C 
ATOM     23  N   UNL     1       8.073   6.044  18.592  0.00  0.00    +0.000 N 
ATOM     24  C   UNL     1       7.088   6.278  17.710  0.00  0.00    +0.000 C 
ATOM     25  O   UNL     1       7.145   6.831  16.631  0.00  0.00    +0.000 OA
ATOM     26  C   UNL     1       5.914   5.725  18.395  0.00  0.00    +0.000 C 
ATOM     27  C   UNL     1       4.686   5.720  17.858  0.00  0.00    +0.000 C 
ATOM     28  O   UNL     1       6.230   5.227  19.646  0.00  0.00    +0.000 OA
ATOM     29  H   UNL     1       9.025   6.338  18.482  0.00  0.00    +0.000 HD
ENDBRANCH  20  27
BRANCH  20  30
ATOM     30  C   UNL     1       2.563   4.393  17.496  0.00  0.00    +0.000 C 
ATOM     31  C   UNL     1       3.220   3.050  17.091  0.00  0.00    +0.000 C 
ATOM     32  C   UNL     1       3.134   1.971  18.170  0.00  0.00    +0.000 C 
ATOM     33  C   UNL     1       1.711   1.738  18.663  0.00  0.00    +0.000 C 
ATOM     34  C   UNL     1       0.966   3.025  18.997  0.00  0.00    +0.000 C 
ATOM     35  C   UNL     1       1.108   4.097  17.922  0.00  0.00    +0.000 C 
ENDBRANCH  20  30
ENDBRANCH   1  20
TORSDOF 4
ENDMDL
MODEL 2
REMARK VINA RESULT:     -10.9      1.117      1.709
REMARK  Name = 
REMARK  4 active torsions:
REMARK  status: ('A' for Active; 'I' for Inactive)
REMARK    1  A    between atoms: C_7  and  C_8
REMARK    2  A    between atoms: C_8  and  C_9
REMARK    3  A    between atoms: C_8  and  C_27
REMARK    4  A    between atoms: C_12  and  C_13
REMARK                            x       y       z     vdW  Elec       q    Type
REMARK                         _______ _______ _______ _____ _____    ______ ____
ROOT
ATOM      1  C   UNL     1       2.866   6.542  18.662  0.00  0.00    +0.000 A 
ATOM      2  C   UNL     1       2.789   7.622  17.857  0.00  0.00    +0.000 A 
ATOM      3  C   UNL     1       2.026   8.792  18.224  0.00  0.00    +0.000 A 
ATOM      4  C   UNL     1       1.333   8.806  19.372  0.00  0.00    +0.000 A 
ATOM      5  N   UNL     1       1.434   7.750  20.238  0.00  0.00    +0.000 N 
ATOM      6  C   UNL     1       2.220   6.644  20.018  0.00  0.00    +0.000 A 
ATOM      7  O   UNL     1       2.379   5.790  20.884  0.00  0.00    +0.000 OA
ATOM      8  H   UNL     1       0.957   7.784  21.131  0.00  0.00    +0.000 HD
ENDROOT
BRANCH   4   9
ATOM      9  C   UNL     1       0.484   9.943  19.740  0.00  0.00    +0.000 A 
ATOM     10  C   UNL     1       0.117  10.890  18.781  0.00  0.00    +0.000 A 
ATOM     11  C   UNL     1      -0.731  11.947  19.123  0.00  0.00    +0.000 A 
ATOM     12  C   UNL     1      -1.226  12.076  20.434  0.00  0.00    +0.000 A 
ATOM     13  C   UNL     1      -2.091  13.128  20.785  0.00  0.00    +0.000 A 
ATOM     14  C   UNL     1      -2.581  13.247  22.088  0.00  0.00    +0.000 A 
ATOM     15  C   UNL     1      -2.209  12.320  23.056  0.00  0.00    +0.000 A 
ATOM     16  C   UNL     1      -1.353  11.276  22.717  0.00  0.00    +0.000 A 
ATOM     17  F   UNL     1      -1.010  10.397  23.670  0.00  0.00    +0.000 F 
ATOM     18  C   UNL     1      -0.848  11.130  21.415  0.00  0.00    +0.000 A 
ATOM     19  C   UNL     1       0.006  10.071  21.053  0.00  0.00    +0.000 A 
ENDBRANCH   4   9
BRANCH   1  20
ATOM     20  C   UNL     1       3.532   5.214  18.324  0.00  0.00    +0.000 C 
BRANCH  20  27
ATOM     21  O   UNL     1       8.218   5.292  20.812  0.00  0.00    +0.000 OA
ATOM     22  C   UNL     1       7.621   5.400  19.750  0.00  0.00    +0.000 C 
ATOM     23  N   UNL     1       8.223   5.713  18.580  0.00  0.00    +0.000 N 
ATOM     24  C   UNL     1       7.315   5.867  17.603  0.00  0.00    +0.000 C 
ATOM     25  O   UNL     1       7.481   6.228  16.456  0.00  0.00    +0.000 OA
ATOM     26  C   UNL     1       6.061   5.522  18.282  0.00  0.00    +0.000 C 
ATOM     27  C   UNL     1       4.870   5.516  17.667  0.00  0.00    +0.000 C 
ATOM     28  O   UNL     1       6.261   5.217  19.617  0.00  0.00    +0.000 OA
ATOM     29  H   UNL     1       9.202   5.916  18.492  0.00  0.00    +0.000 HD
ENDBRANCH  20  27
BRANCH  20  30
ATOM     30  C   UNL     1       2.702   4.239  17.409  0.00  0.00    +0.000 C 
ATOM     31  C   UNL     1       3.350   2.839  17.279  0.00  0.00    +0.000 C 
ATOM     32  C   UNL     1       3.197   1.970  18.527  0.00  0.00    +0.000 C 
ATOM     33  C   UNL     1       1.749   1.844  18.988  0.00  0.00    +0.000 C 
ATOM     34  C   UNL     1       1.016   3.178  19.054  0.00  0.00    +0.000 C 
ATOM     35  C   UNL     1       1.224   4.040  17.814  0.00  0.00    +0.000 C 
ENDBRANCH  20  30
ENDBRANCH   1  20
TORSDOF 4
ENDMDL
MODEL 3
REMARK VINA RESULT:     -10.6      1.502      2.010
REMARK  Name = 
REMARK  4 active torsions:
REMARK  status: ('A' for Active; 'I' for Inactive)
REMARK    1  A    between atoms: C_7  and  C_8
REMARK    2  A    between atoms: C_8  and  C_9
REMARK    3  A    between atoms: C_8  and  C_27
REMARK    4  A    between atoms: C_12  and  C_13
REMARK                            x       y       z     vdW  Elec       q    Type
REMARK                         _______ _______ _______ _____ _____    ______ ____
ROOT
ATOM      1  C   UNL     1       2.578   6.777  18.565  0.00  0.00    +0.000 A 
ATOM      2  C   UNL     1       2.439   7.826  17.729  0.00  0.00    +0.000 A 
ATOM      3  C   UNL     1       1.811   9.057  18.150  0.00  0.00    +0.000 A 
ATOM      4  C   UNL     1       1.309   9.162  19.388  0.00  0.00    +0.000 A 
ATOM      5  N   UNL     1       1.483   8.137  20.281  0.00  0.00    +0.000 N 
ATOM      6  C   UNL     1       2.160   6.975  19.997  0.00  0.00    +0.000 A 
ATOM      7  O   UNL     1       2.403   6.148  20.870  0.00  0.00    +0.000 OA
ATOM      8  H   UNL     1       1.154   8.237  21.233  0.00  0.00    +0.000 HD
ENDROOT
BRANCH   4   9
ATOM      9  C   UNL     1       0.594  10.365  19.826  0.00  0.00    +0.000 A 
ATOM     10  C   UNL     1       0.524  11.486  18.995  0.00  0.00    +0.000 A 
ATOM     11  C   UNL     1      -0.197  12.615  19.395  0.00  0.00    +0.000 A 
ATOM     12  C   UNL     1      -0.860  12.642  20.635  0.00  0.00    +0.000 A 
ATOM     13  C   UNL     1      -1.600  13.768  21.040  0.00  0.00    +0.000 A 
ATOM     14  C   UNL     1      -2.260  13.786  22.272  0.00  0.00    +0.000 A 
ATOM     15  C   UNL     1      -2.183  12.682  23.114  0.00  0.00    +0.000 A 
ATOM     16  C   UNL     1      -1.453  11.564  22.722  0.00  0.00    +0.000 A 
ATOM     17  F   UNL     1      -1.395  10.514  23.555  0.00  0.00    +0.000 F 
ATOM     18  C   UNL     1      -0.783  11.518  21.488  0.00  0.00    +0.000 A 
ATOM     19  C   UNL     1      -0.053  10.388  21.070  0.00  0.00    +0.000 A 
ENDBRANCH   4   9
BRANCH   1  20
ATOM     20  C   UNL     1       3.106   5.396  18.195  0.00  0.00    +0.000 C 
BRANCH  20  27
ATOM     21  O   UNL     1       8.304   4.380  18.507  0.00  0.00    +0.000 OA
ATOM     22  C   UNL     1       7.370   4.726  17.798  0.00  0.00    +0.000 C 
ATOM     23  N   UNL     1       7.507   5.094  16.504  0.00  0.00    +0.000 N 
ATOM     24  C   UNL     1       6.337   5.524  16.004  0.00  0.00    +0.000 C 
ATOM     25  O   UNL     1       6.103   6.006  14.915  0.00  0.00    +0.000 OA
ATOM     26  C   UNL     1       5.415   5.296  17.123  0.00  0.00    +0.000 C 
ATOM     27  C   UNL     1       4.104   5.565  17.060  0.00  0.00    +0.000 C 
ATOM     28  O   UNL     1       6.063   4.784  18.233  0.00  0.00    +0.000 OA
ATOM     29  H   UNL     1       8.389   5.147  16.028  0.00  0.00    +0.000 HD
ENDBRANCH  20  27
BRANCH  20  30
ATOM     30  C   UNL     1       2.022   4.329  17.792  0.00  0.00    +0.000 C 
ATOM     31  C   UNL     1       2.623   3.114  17.043  0.00  0.00    +0.000 C 
ATOM     32  C   UNL     1       3.391   2.150  17.947  0.00  0.00    +0.000 C 
ATOM     33  C   UNL     1       2.572   1.682  19.145  0.00  0.00    +0.000 C 
ATOM     34  C   UNL     1       1.874   2.818  19.883  0.00  0.00    +0.000 C 
ATOM     35  C   UNL     1       1.155   3.787  18.950  0.00  0.00    +0.000 C 
ENDBRANCH  20  30
ENDBRANCH   1  20
TORSDOF 4
ENDMDL
MODEL 4
REMARK VINA RESULT:     -10.5      1.543      2.073
REMARK  Name = 
REMARK  4 active torsions:
REMARK  status: ('A' for Active; 'I' for Inactive)
REMARK    1  A    between atoms: C_7  and  C_8
REMARK    2  A    between atoms: C_8  and  C_9
REMARK    3  A    between atoms: C_8  and  C_27
REMARK    4  A    between atoms: C_12  and  C_13
REMARK                            x       y       z     vdW  Elec       q    Type
REMARK                         _______ _______ _______ _____ _____    ______ ____
ROOT
ATOM      1  C   UNL     1       2.963   6.136  18.284  0.00  0.00    +0.000 A 
ATOM      2  C   UNL     1       2.680   7.159  17.453  0.00  0.00    +0.000 A 
ATOM      3  C   UNL     1       2.040   8.366  17.921  0.00  0.00    +0.000 A 
ATOM      4  C   UNL     1       1.670   8.472  19.206  0.00  0.00    +0.000 A 
ATOM      5  N   UNL     1       1.992   7.475  20.089  0.00  0.00    +0.000 N 
ATOM      6  C   UNL     1       2.693   6.342  19.751  0.00  0.00    +0.000 A 
ATOM      7  O   UNL     1       3.071   5.547  20.604  0.00  0.00    +0.000 OA
ATOM      8  H   UNL     1       1.764   7.579  21.070  0.00  0.00    +0.000 HD
ENDROOT
BRANCH   4   9
ATOM      9  C   UNL     1       0.946   9.647  19.700  0.00  0.00    +0.000 A 
ATOM     10  C   UNL     1       0.746  10.753  18.871  0.00  0.00    +0.000 A 
ATOM     11  C   UNL     1       0.016  11.854  19.329  0.00  0.00    +0.000 A 
ATOM     12  C   UNL     1      -0.525  11.867  20.628  0.00  0.00    +0.000 A 
ATOM     13  C   UNL     1      -1.273  12.964  21.093  0.00  0.00    +0.000 A 
ATOM     14  C   UNL     1      -1.812  12.967  22.383  0.00  0.00    +0.000 A 
ATOM     15  C   UNL     1      -1.604  11.879  23.223  0.00  0.00    +0.000 A 
ATOM     16  C   UNL     1      -0.864  10.790  22.771  0.00  0.00    +0.000 A 
ATOM     17  F   UNL     1      -0.679   9.754  23.603  0.00  0.00    +0.000 F 
ATOM     18  C   UNL     1      -0.315  10.758  21.479  0.00  0.00    +0.000 A 
ATOM     19  C   UNL     1       0.422   9.657  21.002  0.00  0.00    +0.000 A 
ENDBRANCH   4   9
BRANCH   1  20
ATOM     20  C   UNL     1       3.517   4.775  17.880  0.00  0.00    +0.000 C 
BRANCH  20  27
ATOM     21  O   UNL     1       8.205   7.140  18.647  0.00  0.00    +0.000 OA
ATOM     22  C   UNL     1       7.465   6.565  17.862  0.00  0.00    +0.000 C 
ATOM     23  N   UNL     1       7.760   6.376  16.554  0.00  0.00    +0.000 N 
ATOM     24  C   UNL     1       6.727   5.812  15.910  0.00  0.00    +0.000 C 
ATOM     25  O   UNL     1       6.602   5.577  14.725  0.00  0.00    +0.000 OA
ATOM     26  C   UNL     1       5.766   5.581  16.995  0.00  0.00    +0.000 C 
ATOM     27  C   UNL     1       4.573   5.000  16.809  0.00  0.00    +0.000 C 
ATOM     28  O   UNL     1       6.239   6.039  18.212  0.00  0.00    +0.000 OA
ATOM     29  H   UNL     1       8.593   6.722  16.115  0.00  0.00    +0.000 HD
ENDBRANCH  20  27
BRANCH  20  30
ATOM     30  C   UNL     1       2.462   3.724  17.371  0.00  0.00    +0.000 C 
ATOM     31  C   UNL     1       2.972   2.265  17.465  0.00  0.00    +0.000 C 
ATOM     32  C   UNL     1       2.996   1.711  18.889  0.00  0.00    +0.000 C 
ATOM     33  C   UNL     1       1.656   1.851  19.602  0.00  0.00    +0.000 C 
ATOM     34  C   UNL     1       1.045   3.242  19.476  0.00  0.00    +0.000 C 
ATOM     35  C   UNL     1       1.077   3.785  18.052  0.00  0.00    +0.000 C 
ENDBRANCH  20  30
ENDBRANCH   1  20
TORSDOF 4
ENDMDL
MODEL 5
REMARK VINA RESULT:     -10.5      1.258      1.301
REMARK  Name = 
REMARK  4 active torsions:
REMARK  status: ('A' for Active; 'I' for Inactive)
REMARK    1  A    between atoms: C_7  and  C_8
REMARK    2  A    between atoms: C_8  and  C_9
REMARK    3  A    between atoms: C_8  and  C_27
REMARK    4  A    between atoms: C_12  and  C_13
REMARK                            x       y       z     vdW  Elec       q    Type
REMARK                         _______ _______ _______ _____ _____    ______ ____
ROOT
ATOM      1  C   UNL     1       2.493   6.426  19.106  0.00  0.00    +0.000 A 
ATOM      2  C   UNL     1       2.317   7.615  18.494  0.00  0.00    +0.000 A 
ATOM      3  C   UNL     1       1.698   8.733  19.167  0.00  0.00    +0.000 A 
ATOM      4  C   UNL     1       1.241   8.591  20.419  0.00  0.00    +0.000 A 
ATOM      5  N   UNL     1       1.454   7.414  21.089  0.00  0.00    +0.000 N 
ATOM      6  C   UNL     1       2.127   6.338  20.563  0.00  0.00    +0.000 A 
ATOM      7  O   UNL     1       2.407   5.361  21.250  0.00  0.00    +0.000 OA
ATOM      8  H   UNL     1       1.160   7.325  22.054  0.00  0.00    +0.000 HD
ENDROOT
BRANCH   4   9
ATOM      9  C   UNL     1       0.536   9.677  21.106  0.00  0.00    +0.000 A 
ATOM     10  C   UNL     1      -0.161   9.428  22.290  0.00  0.00    +0.000 A 
ATOM     11  C   UNL     1      -0.793  10.475  22.969  0.00  0.00    +0.000 A 
ATOM     12  C   UNL     1      -0.741  11.790  22.471  0.00  0.00    +0.000 A 
ATOM     13  C   UNL     1      -1.362  12.851  23.153  0.00  0.00    +0.000 A 
ATOM     14  C   UNL     1      -1.301  14.155  22.654  0.00  0.00    +0.000 A 
ATOM     15  C   UNL     1      -0.624  14.412  21.466  0.00  0.00    +0.000 A 
ATOM     16  C   UNL     1      -0.008  13.367  20.784  0.00  0.00    +0.000 A 
ATOM     17  F   UNL     1       0.637  13.643  19.641  0.00  0.00    +0.000 F 
ATOM     18  C   UNL     1      -0.049  12.048  21.265  0.00  0.00    +0.000 A 
ATOM     19  C   UNL     1       0.583  10.983  20.594  0.00  0.00    +0.000 A 
ENDBRANCH   4   9
BRANCH   1  20
ATOM     20  C   UNL     1       3.015   5.149  18.457  0.00  0.00    +0.000 C 
BRANCH  20  27
ATOM     21  O   UNL     1       8.259   4.347  18.342  0.00  0.00    +0.000 OA
ATOM     22  C   UNL     1       7.273   4.758  17.747  0.00  0.00    +0.000 C 
ATOM     23  N   UNL     1       7.322   5.338  16.525  0.00  0.00    +0.000 N 
ATOM     24  C   UNL     1       6.110   5.786  16.161  0.00  0.00    +0.000 C 
ATOM     25  O   UNL     1       5.796   6.426  15.179  0.00  0.00    +0.000 OA
ATOM     26  C   UNL     1       5.262   5.336  17.271  0.00  0.00    +0.000 C 
ATOM     27  C   UNL     1       3.940   5.548  17.317  0.00  0.00    +0.000 C 
ATOM     28  O   UNL     1       5.991   4.682  18.249  0.00  0.00    +0.000 OA
ATOM     29  H   UNL     1       8.173   5.508  16.022  0.00  0.00    +0.000 HD
ENDBRANCH  20  27
BRANCH  20  30
ATOM     30  C   UNL     1       1.922   4.149  17.927  0.00  0.00    +0.000 C 
ATOM     31  C   UNL     1       2.522   2.990  17.093  0.00  0.00    +0.000 C 
ATOM     32  C   UNL     1       3.236   1.931  17.934  0.00  0.00    +0.000 C 
ATOM     33  C   UNL     1       2.366   1.382  19.058  0.00  0.00    +0.000 C 
ATOM     34  C   UNL     1       1.668   2.466  19.870  0.00  0.00    +0.000 C 
ATOM     35  C   UNL     1       1.004   3.531  19.004  0.00  0.00    +0.000 C 
ENDBRANCH  20  30
ENDBRANCH   1  20
TORSDOF 4
ENDMDL
MODEL 6
REMARK VINA RESULT:     -10.4      1.926      2.772
REMARK  Name = 
REMARK  4 active torsions:
REMARK  status: ('A' for Active; 'I' for Inactive)
REMARK    1  A    between atoms: C_7  and  C_8
REMARK    2  A    between atoms: C_8  and  C_9
REMARK    3  A    between atoms: C_8  and  C_27
REMARK    4  A    between atoms: C_12  and  C_13
REMARK                            x       y       z     vdW  Elec       q    Type
REMARK                         _______ _______ _______ _____ _____    ______ ____
ROOT
ATOM      1  C   UNL     1       3.408   5.469  19.051  0.00  0.00    +0.000 A 
ATOM      2  C   UNL     1       3.485   6.545  18.242  0.00  0.00    +0.000 A 
ATOM      3  C   UNL     1       2.758   7.762  18.522  0.00  0.00    +0.000 A 
ATOM      4  C   UNL     1       1.946   7.825  19.588  0.00  0.00    +0.000 A 
ATOM      5  N   UNL     1       1.888   6.771  20.461  0.00  0.00    +0.000 N 
ATOM      6  C   UNL     1       2.626   5.618  20.328  0.00  0.00    +0.000 A 
ATOM      7  O   UNL     1       2.639   4.763  21.207  0.00  0.00    +0.000 OA
ATOM      8  H   UNL     1       1.320   6.839  21.296  0.00  0.00    +0.000 HD
ENDROOT
BRANCH   4   9
ATOM      9  C   UNL     1       1.132   9.013  19.861  0.00  0.00    +0.000 A 
ATOM     10  C   UNL     1       0.820   9.906  18.833  0.00  0.00    +0.000 A 
ATOM     11  C   UNL     1       0.004  11.013  19.085  0.00  0.00    +0.000 A 
ATOM     12  C   UNL     1      -0.513  11.247  20.373  0.00  0.00    +0.000 A 
ATOM     13  C   UNL     1      -1.345  12.350  20.634  0.00  0.00    +0.000 A 
ATOM     14  C   UNL     1      -1.858  12.572  21.914  0.00  0.00    +0.000 A 
ATOM     15  C   UNL     1      -1.541  11.699  22.949  0.00  0.00    +0.000 A 
ATOM     16  C   UNL     1      -0.716  10.605  22.700  0.00  0.00    +0.000 A 
ATOM     17  F   UNL     1      -0.426   9.780  23.717  0.00  0.00    +0.000 F 
ATOM     18  C   UNL     1      -0.191  10.356  21.422  0.00  0.00    +0.000 A 
ATOM     19  C   UNL     1       0.632   9.245  21.151  0.00  0.00    +0.000 A 
ENDBRANCH   4   9
BRANCH   1  20
ATOM     20  C   UNL     1       4.027   4.101  18.788  0.00  0.00    +0.000 C 
BRANCH  20  27
ATOM     21  O   UNL     1       5.629   4.194  13.731  0.00  0.00    +0.000 OA
ATOM     22  C   UNL     1       5.943   4.316  14.907  0.00  0.00    +0.000 C 
ATOM     23  N   UNL     1       7.211   4.536  15.325  0.00  0.00    +0.000 N 
ATOM     24  C   UNL     1       7.278   4.523  16.666  0.00  0.00    +0.000 C 
ATOM     25  O   UNL     1       8.255   4.600  17.382  0.00  0.00    +0.000 OA
ATOM     26  C   UNL     1       5.872   4.358  17.051  0.00  0.00    +0.000 C 
ATOM     27  C   UNL     1       5.459   4.316  18.325  0.00  0.00    +0.000 C 
ATOM     28  O   UNL     1       5.043   4.244  15.949  0.00  0.00    +0.000 OA
ATOM     29  H   UNL     1       8.002   4.582  14.710  0.00  0.00    +0.000 HD
ENDBRANCH  20  27
BRANCH  20  30
ATOM     30  C   UNL     1       3.268   3.188  17.754  0.00  0.00    +0.000 C 
ATOM     31  C   UNL     1       3.094   1.732  18.252  0.00  0.00    +0.000 C 
ATOM     32  C   UNL     1       2.027   1.574  19.336  0.00  0.00    +0.000 C 
ATOM     33  C   UNL     1       0.681   2.162  18.932  0.00  0.00    +0.000 C 
ATOM     34  C   UNL     1       0.782   3.565  18.347  0.00  0.00    +0.000 C 
ATOM     35  C   UNL     1       1.883   3.701  17.301  0.00  0.00    +0.000 C 
ENDBRANCH  20  30
ENDBRANCH   1  20
TORSDOF 4
ENDMDL
MODEL 7
REMARK VINA RESULT:     -10.3      1.583      2.007
REMARK  Name = 
REMARK  4 active torsions:
REMARK  status: ('A' for Active; 'I' for Inactive)
REMARK    1  A    between atoms: C_7  and  C_8
REMARK    2  A    between atoms: C_8  and  C_9
REMARK    3  A    between atoms: C_8  and  C_27
REMARK    4  A    between atoms: C_12  and  C_13
REMARK                            x       y       z     vdW  Elec       q    Type
REMARK                         _______ _______ _______ _____ _____    ______ ____
ROOT
ATOM      1  C   UNL     1       2.753   6.837  18.488  0.00  0.00    +0.000 A 
ATOM      2  C   UNL     1       2.754   7.845  17.592  0.00  0.00    +0.000 A 
ATOM      3  C   UNL     1       2.094   9.102  17.860  0.00  0.00    +0.000 A 
ATOM      4  C   UNL     1       1.421   9.273  19.007  0.00  0.00    +0.000 A 
ATOM      5  N   UNL     1       1.448   8.291  19.962  0.00  0.00    +0.000 N 
ATOM      6  C   UNL     1       2.138   7.109  19.834  0.00  0.00    +0.000 A 
ATOM      7  O   UNL     1       2.239   6.324  20.771  0.00  0.00    +0.000 OA
ATOM      8  H   UNL     1       0.988   8.442  20.851  0.00  0.00    +0.000 HD
ENDROOT
BRANCH   4   9
ATOM      9  C   UNL     1       0.673  10.504  19.279  0.00  0.00    +0.000 A 
ATOM     10  C   UNL     1      -0.538  10.454  19.974  0.00  0.00    +0.000 A 
ATOM     11  C   UNL     1      -1.227  11.633  20.274  0.00  0.00    +0.000 A 
ATOM     12  C   UNL     1      -0.716  12.884  19.881  0.00  0.00    +0.000 A 
ATOM     13  C   UNL     1      -1.394  14.076  20.190  0.00  0.00    +0.000 A 
ATOM     14  C   UNL     1      -0.878  15.315  19.801  0.00  0.00    +0.000 A 
ATOM     15  C   UNL     1       0.319  15.375  19.094  0.00  0.00    +0.000 A 
ATOM     16  C   UNL     1       0.996  14.200  18.783  0.00  0.00    +0.000 A 
ATOM     17  F   UNL     1       2.147  14.288  18.100  0.00  0.00    +0.000 F 
ATOM     18  C   UNL     1       0.502  12.942  19.166  0.00  0.00    +0.000 A 
ATOM     19  C   UNL     1       1.184  11.745  18.872  0.00  0.00    +0.000 A 
ENDBRANCH   4   9
BRANCH   1  20
ATOM     20  C   UNL     1       3.305   5.434  18.263  0.00  0.00    +0.000 C 
BRANCH  20  27
ATOM     21  O   UNL     1       8.113   5.391  20.506  0.00  0.00    +0.000 OA
ATOM     22  C   UNL     1       7.468   5.440  19.468  0.00  0.00    +0.000 C 
ATOM     23  N   UNL     1       8.027   5.587  18.245  0.00  0.00    +0.000 N 
ATOM     24  C   UNL     1       7.080   5.713  17.301  0.00  0.00    +0.000 C 
ATOM     25  O   UNL     1       7.208   5.944  16.117  0.00  0.00    +0.000 OA
ATOM     26  C   UNL     1       5.843   5.537  18.071  0.00  0.00    +0.000 C 
ATOM     27  C   UNL     1       4.623   5.563  17.516  0.00  0.00    +0.000 C 
ATOM     28  O   UNL     1       6.093   5.352  19.419  0.00  0.00    +0.000 OA
ATOM     29  H   UNL     1       9.011   5.702  18.090  0.00  0.00    +0.000 HD
ENDBRANCH  20  27
BRANCH  20  30
ATOM     30  C   UNL     1       2.358   4.436  17.498  0.00  0.00    +0.000 C 
ATOM     31  C   UNL     1       3.056   3.100  17.140  0.00  0.00    +0.000 C 
ATOM     32  C   UNL     1       3.250   2.167  18.335  0.00  0.00    +0.000 C 
ATOM     33  C   UNL     1       1.957   1.903  19.097  0.00  0.00    +0.000 C 
ATOM     34  C   UNL     1       1.167   3.168  19.407  0.00  0.00    +0.000 C 
ATOM     35  C   UNL     1       1.029   4.099  18.207  0.00  0.00    +0.000 C 
ENDBRANCH  20  30
ENDBRANCH   1  20
TORSDOF 4
ENDMDL
MODEL 8
REMARK VINA RESULT:     -10.2      2.384      2.940
REMARK  Name = 
REMARK  4 active torsions:
REMARK  status: ('A' for Active; 'I' for Inactive)
REMARK    1  A    between atoms: C_7  and  C_8
REMARK    2  A    between atoms: C_8  and  C_9
REMARK    3  A    between atoms: C_8  and  C_27
REMARK    4  A    between atoms: C_12  and  C_13
REMARK                            x       y       z     vdW  Elec       q    Type
REMARK                         _______ _______ _______ _____ _____    ______ ____
ROOT
ATOM      1  C   UNL     1       2.489   6.988  18.805  0.00  0.00    +0.000 A 
ATOM      2  C   UNL     1       2.747   7.792  17.753  0.00  0.00    +0.000 A 
ATOM      3  C   UNL     1       2.314   9.170  17.724  0.00  0.00    +0.000 A 
ATOM      4  C   UNL     1       1.597   9.668  18.742  0.00  0.00    +0.000 A 
ATOM      5  N   UNL     1       1.366   8.895  19.850  0.00  0.00    +0.000 N 
ATOM      6  C   UNL     1       1.832   7.612  20.007  0.00  0.00    +0.000 A 
ATOM      7  O   UNL     1       1.711   7.014  21.071  0.00  0.00    +0.000 OA
ATOM      8  H   UNL     1       0.874   9.288  20.643  0.00  0.00    +0.000 HD
ENDROOT
BRANCH   4   9
ATOM      9  C   UNL     1       1.072  11.036  18.712  0.00  0.00    +0.000 A 
ATOM     10  C   UNL     1      -0.301  11.267  18.816  0.00  0.00    +0.000 A 
ATOM     11  C   UNL     1      -0.796  12.574  18.835  0.00  0.00    +0.000 A 
ATOM     12  C   UNL     1       0.076  13.674  18.747  0.00  0.00    +0.000 A 
ATOM     13  C   UNL     1      -0.410  14.994  18.779  0.00  0.00    +0.000 A 
ATOM     14  C   UNL     1       0.463  16.081  18.696  0.00  0.00    +0.000 A 
ATOM     15  C   UNL     1       1.832  15.863  18.575  0.00  0.00    +0.000 A 
ATOM     16  C   UNL     1       2.322  14.560  18.542  0.00  0.00    +0.000 A 
ATOM     17  F   UNL     1       3.645  14.379  18.424  0.00  0.00    +0.000 F 
ATOM     18  C   UNL     1       1.467  13.449  18.628  0.00  0.00    +0.000 A 
ATOM     19  C   UNL     1       1.949  12.126  18.611  0.00  0.00    +0.000 A 
ENDBRANCH   4   9
BRANCH   1  20
ATOM     20  C   UNL     1       2.785   5.495  18.890  0.00  0.00    +0.000 C 
BRANCH  20  27
ATOM     21  O   UNL     1       7.873   5.407  20.392  0.00  0.00    +0.000 OA
ATOM     22  C   UNL     1       7.071   5.241  19.485  0.00  0.00    +0.000 C 
ATOM     23  N   UNL     1       7.427   4.933  18.216  0.00  0.00    +0.000 N 
ATOM     24  C   UNL     1       6.353   4.913  17.411  0.00  0.00    +0.000 C 
ATOM     25  O   UNL     1       6.303   4.760  16.208  0.00  0.00    +0.000 OA
ATOM     26  C   UNL     1       5.252   5.159  18.350  0.00  0.00    +0.000 C 
ATOM     27  C   UNL     1       3.965   5.200  17.977  0.00  0.00    +0.000 C 
ATOM     28  O   UNL     1       5.705   5.347  19.643  0.00  0.00    +0.000 OA
ATOM     29  H   UNL     1       8.378   4.850  17.908  0.00  0.00    +0.000 HD
ENDBRANCH  20  27
BRANCH  20  30
ATOM     30  C   UNL     1       1.589   4.534  18.537  0.00  0.00    +0.000 C 
ATOM     31  C   UNL     1       2.004   3.382  17.589  0.00  0.00    +0.000 C 
ATOM     32  C   UNL     1       2.823   2.287  18.272  0.00  0.00    +0.000 C 
ATOM     33  C   UNL     1       2.146   1.731  19.519  0.00  0.00    +0.000 C 
ATOM     34  C   UNL     1       1.628   2.811  20.461  0.00  0.00    +0.000 C 
ATOM     35  C   UNL     1       0.854   3.912  19.744  0.00  0.00    +0.000 C 
ENDBRANCH  20  30
ENDBRANCH   1  20
TORSDOF 4
ENDMDL
MODEL 9
REMARK VINA RESULT:     -10.2      1.268      1.454
REMARK  Name = 
REMARK  4 active torsions:
REMARK  status: ('A' for Active; 'I' for Inactive)
REMARK    1  A    between atoms: C_7  and  C_8
REMARK    2  A    between atoms: C_8  and  C_9
REMARK    3  A    between atoms: C_8  and  C_27
REMARK    4  A    between atoms: C_12  and  C_13
REMARK                            x       y       z     vdW  Elec       q    Type
REMARK                         _______ _______ _______ _____ _____    ______ ____
ROOT
ATOM      1  C   UNL     1       2.646   6.233  19.319  0.00  0.00    +0.000 A 
ATOM      2  C   UNL     1       2.009   6.063  20.496  0.00  0.00    +0.000 A 
ATOM      3  C   UNL     1       1.263   7.131  21.120  0.00  0.00    +0.000 A 
ATOM      4  C   UNL     1       1.228   8.344  20.549  0.00  0.00    +0.000 A 
ATOM      5  N   UNL     1       1.816   8.536  19.326  0.00  0.00    +0.000 N 
ATOM      6  C   UNL     1       2.454   7.549  18.613  0.00  0.00    +0.000 A 
ATOM      7  O   UNL     1       2.845   7.740  17.467  0.00  0.00    +0.000 OA
ATOM      8  H   UNL     1       1.741   9.436  18.868  0.00  0.00    +0.000 HD
ENDROOT
BRANCH   4   9
ATOM      9  C   UNL     1       0.549   9.473  21.192  0.00  0.00    +0.000 A 
ATOM     10  C   UNL     1      -0.214   9.274  22.344  0.00  0.00    +0.000 A 
ATOM     11  C   UNL     1      -0.823  10.360  22.982  0.00  0.00    +0.000 A 
ATOM     12  C   UNL     1      -0.679  11.664  22.475  0.00  0.00    +0.000 A 
ATOM     13  C   UNL     1      -1.275  12.764  23.117  0.00  0.00    +0.000 A 
ATOM     14  C   UNL     1      -1.124  14.058  22.610  0.00  0.00    +0.000 A 
ATOM     15  C   UNL     1      -0.380  14.265  21.453  0.00  0.00    +0.000 A 
ATOM     16  C   UNL     1       0.213  13.182  20.811  0.00  0.00    +0.000 A 
ATOM     17  F   UNL     1       0.924  13.411  19.697  0.00  0.00    +0.000 F 
ATOM     18  C   UNL     1       0.081  11.872  21.301  0.00  0.00    +0.000 A 
ATOM     19  C   UNL     1       0.687  10.769  20.671  0.00  0.00    +0.000 A 
ENDBRANCH   4   9
BRANCH   1  20
ATOM     20  C   UNL     1       3.560   5.223  18.636  0.00  0.00    +0.000 C 
BRANCH  20  27
ATOM     21  O   UNL     1       8.437   5.141  20.723  0.00  0.00    +0.000 OA
ATOM     22  C   UNL     1       7.717   5.543  19.820  0.00  0.00    +0.000 C 
ATOM     23  N   UNL     1       8.137   6.377  18.841  0.00  0.00    +0.000 N 
ATOM     24  C   UNL     1       7.113   6.736  18.050  0.00  0.00    +0.000 C 
ATOM     25  O   UNL     1       7.099   7.530  17.132  0.00  0.00    +0.000 OA
ATOM     26  C   UNL     1       6.001   5.949  18.597  0.00  0.00    +0.000 C 
ATOM     27  C   UNL     1       4.762   5.976  18.088  0.00  0.00    +0.000 C 
ATOM     28  O   UNL     1       6.389   5.197  19.692  0.00  0.00    +0.000 OA
ATOM     29  H   UNL     1       9.062   6.761  18.793  0.00  0.00    +0.000 HD
ENDBRANCH  20  27
BRANCH  20  30
ATOM     30  C   UNL     1       2.905   4.366  17.490  0.00  0.00    +0.000 C 
ATOM     31  C   UNL     1       3.620   3.010  17.270  0.00  0.00    +0.000 C 
ATOM     32  C   UNL     1       3.329   1.975  18.357  0.00  0.00    +0.000 C 
ATOM     33  C   UNL     1       1.837   1.758  18.583  0.00  0.00    +0.000 C 
ATOM     34  C   UNL     1       1.049   3.055  18.719  0.00  0.00    +0.000 C 
ATOM     35  C   UNL     1       1.395   4.083  17.647  0.00  0.00    +0.000 C 
ENDBRANCH  20  30
ENDBRANCH   1  20
TORSDOF 4
ENDMDL
