MODEL 1
REMARK VINA RESULT:      -7.1      0.000      0.000
REMARK  Name = 
REMARK  9 active torsions:
REMARK  status: ('A' for Active; 'I' for Inactive)
REMARK    1  A    between atoms: C_1  and  C_2
REMARK    2  A    between atoms: C_2  and  C_3
REMARK    3  A    between atoms: C_3  and  C_4
REMARK    4  A    between atoms: C_3  and  C_5
REMARK    5  A    between atoms: C_7  and  C_8
REMARK    6  A    between atoms: N_10  and  C_11
REMARK    7  A    between atoms: N_10  and  C_12
REMARK    8  A    between atoms: C_17  and  S_18
REMARK    9  A    between atoms: S_18  and  C_19
REMARK                            x       y       z     vdW  Elec       q    Type
REMARK                         _______ _______ _______ _____ _____    ______ ____
ROOT
ATOM      1  C   UNL     1       5.336   4.295  17.921  0.00  0.00    +0.000 C 
ATOM      2  O   UNL     1       5.973   4.483  18.963  0.00  0.00    +0.000 OA
ATOM      3  N   UNL     1       3.976   3.945  17.981  0.00  0.00    +0.000 N 
ATOM      4  C   UNL     1       3.121   3.533  16.860  0.00  0.00    +0.000 C 
ENDROOT
BRANCH   3   5
ATOM      5  C   UNL     1       3.382   3.802  19.265  0.00  0.00    +0.000 A 
ATOM      6  C   UNL     1       3.493   2.529  19.845  0.00  0.00    +0.000 A 
ATOM      7  C   UNL     1       2.931   2.258  21.092  0.00  0.00    +0.000 A 
ATOM      8  C   UNL     1       2.271   3.264  21.787  0.00  0.00    +0.000 A 
ATOM      9  C   UNL     1       2.154   4.537  21.226  0.00  0.00    +0.000 A 
ATOM     10  C   UNL     1       2.687   4.809  19.952  0.00  0.00    +0.000 A 
BRANCH  10  11
ATOM     11  S   UNL     1       2.487   6.472  19.345  0.00  0.00    +0.000 S 
ATOM     12  C   UNL     1       1.599   7.299  20.634  0.00  0.00    +0.000 C 
ATOM     13  O   UNL     1       3.813   7.062  19.289  0.00  0.00    +0.000 OA
ATOM     14  O   UNL     1       1.653   6.465  18.162  0.00  0.00    +0.000 OA
ENDBRANCH  10  11
ENDBRANCH   3   5
BRANCH   1  17
ATOM     15  C   UNL     1       6.621   4.548  14.528  0.00  0.00    +0.000 A 
ATOM     16  C   UNL     1       5.504   4.325  15.362  0.00  0.00    +0.000 A 
ATOM     17  C   UNL     1       6.003   4.411  16.644  0.00  0.00    +0.000 A 
ATOM     18  O   UNL     1       7.351   4.558  16.566  0.00  0.00    +0.000 OA
ATOM     19  N   UNL     1       7.742   4.672  15.250  0.00  0.00    +0.000 NA
BRANCH  15  20
ATOM     20  C   UNL     1       6.655   4.666  13.033  0.00  0.00    +0.000 C 
ATOM     21  C   UNL     1       8.005   5.237  12.579  0.00  0.00    +0.000 C 
BRANCH  20  23
ATOM     22  C   UNL     1       4.935   3.188  11.844  0.00  0.00    +0.000 C 
ATOM     23  C   UNL     1       6.376   3.330  12.320  0.00  0.00    +0.000 C 
ENDBRANCH  20  23
ENDBRANCH  15  20
ENDBRANCH   1  17
TORSDOF 5
ENDMDL
MODEL 2
REMARK VINA RESULT:      -6.7      0.935      1.203
REMARK  Name = 
REMARK  9 active torsions:
REMARK  status: ('A' for Active; 'I' for Inactive)
REMARK    1  A    between atoms: C_1  and  C_2
REMARK    2  A    between atoms: C_2  and  C_3
REMARK    3  A    between atoms: C_3  and  C_4
REMARK    4  A    between atoms: C_3  and  C_5
REMARK    5  A    between atoms: C_7  and  C_8
REMARK    6  A    between atoms: N_10  and  C_11
REMARK    7  A    between atoms: N_10  and  C_12
REMARK    8  A    between atoms: C_17  and  S_18
REMARK    9  A    between atoms: S_18  and  C_19
REMARK                            x       y       z     vdW  Elec       q    Type
REMARK                         _______ _______ _______ _____ _____    ______ ____
ROOT
ATOM      1  C   UNL     1       4.497   3.927  17.294  0.00  0.00    +0.000 C 
ATOM      2  O   UNL     1       3.379   3.480  17.017  0.00  0.00    +0.000 OA
ATOM      3  N   UNL     1       4.833   4.202  18.632  0.00  0.00    +0.000 N 
ATOM      4  C   UNL     1       6.042   4.880  19.116  0.00  0.00    +0.000 C 
ENDROOT
BRANCH   3   5
ATOM      5  C   UNL     1       3.845   3.966  19.627  0.00  0.00    +0.000 A 
ATOM      6  C   UNL     1       3.932   2.728  20.284  0.00  0.00    +0.000 A 
ATOM      7  C   UNL     1       3.006   2.370  21.264  0.00  0.00    +0.000 A 
ATOM      8  C   UNL     1       1.995   3.256  21.617  0.00  0.00    +0.000 A 
ATOM      9  C   UNL     1       1.896   4.491  20.975  0.00  0.00    +0.000 A 
ATOM     10  C   UNL     1       2.805   4.845  19.960  0.00  0.00    +0.000 A 
BRANCH  10  11
ATOM     11  S   UNL     1       2.587   6.453  19.224  0.00  0.00    +0.000 S 
ATOM     12  C   UNL     1       1.618   7.344  20.408  0.00  0.00    +0.000 C 
ATOM     13  O   UNL     1       3.897   7.078  19.181  0.00  0.00    +0.000 OA
ATOM     14  O   UNL     1       1.807   6.334  18.009  0.00  0.00    +0.000 OA
ENDBRANCH  10  11
ENDBRANCH   3   5
BRANCH   1  17
ATOM     15  C   UNL     1       6.547   4.562  14.359  0.00  0.00    +0.000 A 
ATOM     16  C   UNL     1       5.273   4.234  14.870  0.00  0.00    +0.000 A 
ATOM     17  C   UNL     1       5.446   4.190  16.236  0.00  0.00    +0.000 A 
ATOM     18  O   UNL     1       6.766   4.365  16.503  0.00  0.00    +0.000 OA
ATOM     19  N   UNL     1       7.456   4.625  15.340  0.00  0.00    +0.000 NA
BRANCH  15  20
ATOM     20  C   UNL     1       6.934   4.840  12.937  0.00  0.00    +0.000 C 
ATOM     21  C   UNL     1       8.304   5.530  12.886  0.00  0.00    +0.000 C 
BRANCH  20  23
ATOM     22  C   UNL     1       5.551   3.047  11.740  0.00  0.00    +0.000 C 
ATOM     23  C   UNL     1       6.945   3.574  12.060  0.00  0.00    +0.000 C 
ENDBRANCH  20  23
ENDBRANCH  15  20
ENDBRANCH   1  17
TORSDOF 5
ENDMDL
MODEL 3
REMARK VINA RESULT:      -6.7      1.724      2.907
REMARK  Name = 
REMARK  9 active torsions:
REMARK  status: ('A' for Active; 'I' for Inactive)
REMARK    1  A    between atoms: C_1  and  C_2
REMARK    2  A    between atoms: C_2  and  C_3
REMARK    3  A    between atoms: C_3  and  C_4
REMARK    4  A    between atoms: C_3  and  C_5
REMARK    5  A    between atoms: C_7  and  C_8
REMARK    6  A    between atoms: N_10  and  C_11
REMARK    7  A    between atoms: N_10  and  C_12
REMARK    8  A    between atoms: C_17  and  S_18
REMARK    9  A    between atoms: S_18  and  C_19
REMARK                            x       y       z     vdW  Elec       q    Type
REMARK                         _______ _______ _______ _____ _____    ______ ____
ROOT
ATOM      1  C   UNL     1       4.292   4.751  17.040  0.00  0.00    +0.000 C 
ATOM      2  O   UNL     1       3.152   4.342  16.794  0.00  0.00    +0.000 OA
ATOM      3  N   UNL     1       4.586   5.297  18.302  0.00  0.00    +0.000 N 
ATOM      4  C   UNL     1       5.829   5.969  18.704  0.00  0.00    +0.000 C 
ENDROOT
BRANCH   3   5
ATOM      5  C   UNL     1       3.534   5.372  19.256  0.00  0.00    +0.000 A 
ATOM      6  C   UNL     1       2.856   6.600  19.312  0.00  0.00    +0.000 A 
ATOM      7  C   UNL     1       1.819   6.804  20.223  0.00  0.00    +0.000 A 
ATOM      8  C   UNL     1       1.433   5.776  21.074  0.00  0.00    +0.000 A 
ATOM      9  C   UNL     1       2.096   4.549  21.029  0.00  0.00    +0.000 A 
ATOM     10  C   UNL     1       3.166   4.346  20.137  0.00  0.00    +0.000 A 
BRANCH  10  11
ATOM     11  S   UNL     1       3.925   2.734  20.161  0.00  0.00    +0.000 S 
ATOM     12  C   UNL     1       3.078   1.837  18.892  0.00  0.00    +0.000 C 
ATOM     13  O   UNL     1       5.298   2.909  19.722  0.00  0.00    +0.000 OA
ATOM     14  O   UNL     1       3.652   2.082  21.425  0.00  0.00    +0.000 OA
ENDBRANCH  10  11
ENDBRANCH   3   5
BRANCH   1  17
ATOM     15  C   UNL     1       6.539   4.689  14.182  0.00  0.00    +0.000 A 
ATOM     16  C   UNL     1       5.212   4.805  14.648  0.00  0.00    +0.000 A 
ATOM     17  C   UNL     1       5.311   4.689  16.017  0.00  0.00    +0.000 A 
ATOM     18  O   UNL     1       6.602   4.404  16.326  0.00  0.00    +0.000 OA
ATOM     19  N   UNL     1       7.380   4.429  15.191  0.00  0.00    +0.000 NA
BRANCH  15  20
ATOM     20  C   UNL     1       7.047   4.836  12.778  0.00  0.00    +0.000 C 
ATOM     21  C   UNL     1       8.406   5.549  12.780  0.00  0.00    +0.000 C 
BRANCH  20  23
ATOM     22  C   UNL     1       5.806   2.819  11.803  0.00  0.00    +0.000 C 
ATOM     23  C   UNL     1       7.154   3.491  12.035  0.00  0.00    +0.000 C 
ENDBRANCH  20  23
ENDBRANCH  15  20
ENDBRANCH   1  17
TORSDOF 5
ENDMDL
MODEL 4
REMARK VINA RESULT:      -6.6      1.564      2.676
REMARK  Name = 
REMARK  9 active torsions:
REMARK  status: ('A' for Active; 'I' for Inactive)
REMARK    1  A    between atoms: C_1  and  C_2
REMARK    2  A    between atoms: C_2  and  C_3
REMARK    3  A    between atoms: C_3  and  C_4
REMARK    4  A    between atoms: C_3  and  C_5
REMARK    5  A    between atoms: C_7  and  C_8
REMARK    6  A    between atoms: N_10  and  C_11
REMARK    7  A    between atoms: N_10  and  C_12
REMARK    8  A    between atoms: C_17  and  S_18
REMARK    9  A    between atoms: S_18  and  C_19
REMARK                            x       y       z     vdW  Elec       q    Type
REMARK                         _______ _______ _______ _____ _____    ______ ____
ROOT
ATOM      1  C   UNL     1       5.066   5.546  17.559  0.00  0.00    +0.000 C 
ATOM      2  O   UNL     1       5.540   6.234  18.469  0.00  0.00    +0.000 OA
ATOM      3  N   UNL     1       3.758   5.041  17.667  0.00  0.00    +0.000 N 
ATOM      4  C   UNL     1       3.105   4.084  16.764  0.00  0.00    +0.000 C 
ENDROOT
BRANCH   3   5
ATOM      5  C   UNL     1       3.027   5.336  18.851  0.00  0.00    +0.000 A 
ATOM      6  C   UNL     1       2.503   6.636  18.930  0.00  0.00    +0.000 A 
ATOM      7  C   UNL     1       1.786   7.052  20.052  0.00  0.00    +0.000 A 
ATOM      8  C   UNL     1       1.565   6.166  21.099  0.00  0.00    +0.000 A 
ATOM      9  C   UNL     1       2.077   4.869  21.035  0.00  0.00    +0.000 A 
ATOM     10  C   UNL     1       2.832   4.452  19.922  0.00  0.00    +0.000 A 
BRANCH  10  11
ATOM     11  S   UNL     1       3.422   2.772  19.946  0.00  0.00    +0.000 S 
ATOM     12  C   UNL     1       3.019   2.195  21.570  0.00  0.00    +0.000 C 
ATOM     13  O   UNL     1       2.604   2.024  19.008  0.00  0.00    +0.000 OA
ATOM     14  O   UNL     1       4.864   2.757  19.814  0.00  0.00    +0.000 OA
ENDBRANCH  10  11
ENDBRANCH   3   5
BRANCH   1  17
ATOM     15  C   UNL     1       6.772   4.954  14.402  0.00  0.00    +0.000 A 
ATOM     16  C   UNL     1       5.602   5.397  15.056  0.00  0.00    +0.000 A 
ATOM     17  C   UNL     1       5.871   5.241  16.398  0.00  0.00    +0.000 A 
ATOM     18  O   UNL     1       7.080   4.634  16.520  0.00  0.00    +0.000 OA
ATOM     19  N   UNL     1       7.660   4.476  15.282  0.00  0.00    +0.000 NA
BRANCH  15  20
ATOM     20  C   UNL     1       7.085   4.986  12.936  0.00  0.00    +0.000 C 
ATOM     21  C   UNL     1       8.486   5.570  12.707  0.00  0.00    +0.000 C 
BRANCH  20  23
ATOM     22  C   UNL     1       5.531   3.178  12.000  0.00  0.00    +0.000 C 
ATOM     23  C   UNL     1       6.970   3.604  12.267  0.00  0.00    +0.000 C 
ENDBRANCH  20  23
ENDBRANCH  15  20
ENDBRANCH   1  17
TORSDOF 5
ENDMDL
MODEL 5
REMARK VINA RESULT:      -6.4      1.695      3.149
REMARK  Name = 
REMARK  9 active torsions:
REMARK  status: ('A' for Active; 'I' for Inactive)
REMARK    1  A    between atoms: C_1  and  C_2
REMARK    2  A    between atoms: C_2  and  C_3
REMARK    3  A    between atoms: C_3  and  C_4
REMARK    4  A    between atoms: C_3  and  C_5
REMARK    5  A    between atoms: C_7  and  C_8
REMARK    6  A    between atoms: N_10  and  C_11
REMARK    7  A    between atoms: N_10  and  C_12
REMARK    8  A    between atoms: C_17  and  S_18
REMARK    9  A    between atoms: S_18  and  C_19
REMARK                            x       y       z     vdW  Elec       q    Type
REMARK                         _______ _______ _______ _____ _____    ______ ____
ROOT
ATOM      1  C   UNL     1       4.281   4.663  17.047  0.00  0.00    +0.000 C 
ATOM      2  O   UNL     1       3.116   4.358  16.768  0.00  0.00    +0.000 OA
ATOM      3  N   UNL     1       4.576   5.238  18.296  0.00  0.00    +0.000 N 
ATOM      4  C   UNL     1       5.863   5.802  18.724  0.00  0.00    +0.000 C 
ENDROOT
BRANCH   3   5
ATOM      5  C   UNL     1       3.499   5.466  19.196  0.00  0.00    +0.000 A 
ATOM      6  C   UNL     1       3.017   6.783  19.242  0.00  0.00    +0.000 A 
ATOM      7  C   UNL     1       1.977   7.136  20.102  0.00  0.00    +0.000 A 
ATOM      8  C   UNL     1       1.390   6.170  20.911  0.00  0.00    +0.000 A 
ATOM      9  C   UNL     1       1.856   4.855  20.875  0.00  0.00    +0.000 A 
ATOM     10  C   UNL     1       2.928   4.498  20.036  0.00  0.00    +0.000 A 
BRANCH  10  11
ATOM     11  S   UNL     1       3.426   2.788  20.066  0.00  0.00    +0.000 S 
ATOM     12  C   UNL     1       2.823   2.189  21.619  0.00  0.00    +0.000 C 
ATOM     13  O   UNL     1       2.676   2.112  19.023  0.00  0.00    +0.000 OA
ATOM     14  O   UNL     1       4.871   2.698  20.085  0.00  0.00    +0.000 OA
ENDBRANCH  10  11
ENDBRANCH   3   5
BRANCH   1  17
ATOM     15  C   UNL     1       6.605   4.127  14.303  0.00  0.00    +0.000 A 
ATOM     16  C   UNL     1       5.260   4.242  14.716  0.00  0.00    +0.000 A 
ATOM     17  C   UNL     1       5.329   4.449  16.076  0.00  0.00    +0.000 A 
ATOM     18  O   UNL     1       6.629   4.344  16.456  0.00  0.00    +0.000 OA
ATOM     19  N   UNL     1       7.434   4.170  15.353  0.00  0.00    +0.000 NA
BRANCH  15  20
ATOM     20  C   UNL     1       7.140   3.989  12.909  0.00  0.00    +0.000 C 
ATOM     21  C   UNL     1       6.142   3.219  12.033  0.00  0.00    +0.000 C 
BRANCH  20  23
ATOM     22  C   UNL     1       8.780   5.952  12.776  0.00  0.00    +0.000 C 
ATOM     23  C   UNL     1       7.481   5.343  12.260  0.00  0.00    +0.000 C 
ENDBRANCH  20  23
ENDBRANCH  15  20
ENDBRANCH   1  17
TORSDOF 5
ENDMDL
MODEL 6
REMARK VINA RESULT:      -6.4      1.574      2.931
REMARK  Name = 
REMARK  9 active torsions:
REMARK  status: ('A' for Active; 'I' for Inactive)
REMARK    1  A    between atoms: C_1  and  C_2
REMARK    2  A    between atoms: C_2  and  C_3
REMARK    3  A    between atoms: C_3  and  C_4
REMARK    4  A    between atoms: C_3  and  C_5
REMARK    5  A    between atoms: C_7  and  C_8
REMARK    6  A    between atoms: N_10  and  C_11
REMARK    7  A    between atoms: N_10  and  C_12
REMARK    8  A    between atoms: C_17  and  S_18
REMARK    9  A    between atoms: S_18  and  C_19
REMARK                            x       y       z     vdW  Elec       q    Type
REMARK                         _______ _______ _______ _____ _____    ______ ____
ROOT
ATOM      1  C   UNL     1       5.116   5.447  17.346  0.00  0.00    +0.000 C 
ATOM      2  O   UNL     1       5.618   6.190  18.197  0.00  0.00    +0.000 OA
ATOM      3  N   UNL     1       3.796   4.989  17.503  0.00  0.00    +0.000 N 
ATOM      4  C   UNL     1       3.108   3.984  16.682  0.00  0.00    +0.000 C 
ENDROOT
BRANCH   3   5
ATOM      5  C   UNL     1       3.085   5.395  18.666  0.00  0.00    +0.000 A 
ATOM      6  C   UNL     1       2.623   6.720  18.661  0.00  0.00    +0.000 A 
ATOM      7  C   UNL     1       1.932   7.242  19.754  0.00  0.00    +0.000 A 
ATOM      8  C   UNL     1       1.673   6.438  20.857  0.00  0.00    +0.000 A 
ATOM      9  C   UNL     1       2.123   5.117  20.877  0.00  0.00    +0.000 A 
ATOM     10  C   UNL     1       2.853   4.593  19.793  0.00  0.00    +0.000 A 
BRANCH  10  11
ATOM     11  S   UNL     1       3.363   2.891  19.926  0.00  0.00    +0.000 S 
ATOM     12  C   UNL     1       2.858   2.414  21.554  0.00  0.00    +0.000 C 
ATOM     13  O   UNL     1       2.556   2.135  18.986  0.00  0.00    +0.000 OA
ATOM     14  O   UNL     1       4.807   2.807  19.865  0.00  0.00    +0.000 OA
ENDBRANCH  10  11
ENDBRANCH   3   5
BRANCH   1  17
ATOM     15  C   UNL     1       6.715   4.333  14.276  0.00  0.00    +0.000 A 
ATOM     16  C   UNL     1       5.510   4.528  14.986  0.00  0.00    +0.000 A 
ATOM     17  C   UNL     1       5.902   5.031  16.207  0.00  0.00    +0.000 A 
ATOM     18  O   UNL     1       7.259   5.022  16.254  0.00  0.00    +0.000 OA
ATOM     19  N   UNL     1       7.774   4.614  15.044  0.00  0.00    +0.000 NA
BRANCH  15  20
ATOM     20  C   UNL     1       6.894   3.894  12.853  0.00  0.00    +0.000 C 
ATOM     21  C   UNL     1       5.583   3.308  12.311  0.00  0.00    +0.000 C 
BRANCH  20  23
ATOM     22  C   UNL     1       8.490   5.876  12.559  0.00  0.00    +0.000 C 
ATOM     23  C   UNL     1       7.390   5.025  11.933  0.00  0.00    +0.000 C 
ENDBRANCH  20  23
ENDBRANCH  15  20
ENDBRANCH   1  17
TORSDOF 5
ENDMDL
MODEL 7
REMARK VINA RESULT:      -6.4      5.060      8.380
REMARK  Name = 
REMARK  9 active torsions:
REMARK  status: ('A' for Active; 'I' for Inactive)
REMARK    1  A    between atoms: C_1  and  C_2
REMARK    2  A    between atoms: C_2  and  C_3
REMARK    3  A    between atoms: C_3  and  C_4
REMARK    4  A    between atoms: C_3  and  C_5
REMARK    5  A    between atoms: C_7  and  C_8
REMARK    6  A    between atoms: N_10  and  C_11
REMARK    7  A    between atoms: N_10  and  C_12
REMARK    8  A    between atoms: C_17  and  S_18
REMARK    9  A    between atoms: S_18  and  C_19
REMARK                            x       y       z     vdW  Elec       q    Type
REMARK                         _______ _______ _______ _____ _____    ______ ____
ROOT
ATOM      1  C   UNL     1       0.961   9.721  21.376  0.00  0.00    +0.000 C 
ATOM      2  O   UNL     1       1.427   9.956  22.497  0.00  0.00    +0.000 OA
ATOM      3  N   UNL     1      -0.040  10.551  20.843  0.00  0.00    +0.000 N 
ATOM      4  C   UNL     1      -0.810  10.326  19.612  0.00  0.00    +0.000 C 
ENDROOT
BRANCH   3   5
ATOM      5  C   UNL     1      -0.495  11.639  21.638  0.00  0.00    +0.000 A 
ATOM      6  C   UNL     1      -1.562  11.350  22.504  0.00  0.00    +0.000 A 
ATOM      7  C   UNL     1      -2.111  12.340  23.319  0.00  0.00    +0.000 A 
ATOM      8  C   UNL     1      -1.586  13.627  23.295  0.00  0.00    +0.000 A 
ATOM      9  C   UNL     1      -0.524  13.929  22.441  0.00  0.00    +0.000 A 
ATOM     10  C   UNL     1       0.013  12.945  21.590  0.00  0.00    +0.000 A 
BRANCH  10  11
ATOM     11  S   UNL     1       1.374  13.446  20.555  0.00  0.00    +0.000 S 
ATOM     12  C   UNL     1       1.483  15.196  20.800  0.00  0.00    +0.000 C 
ATOM     13  O   UNL     1       2.573  12.855  21.121  0.00  0.00    +0.000 OA
ATOM     14  O   UNL     1       1.045  13.211  19.164  0.00  0.00    +0.000 OA
ENDBRANCH  10  11
ENDBRANCH   3   5
BRANCH   1  17
ATOM     15  C   UNL     1       2.002   6.596  19.835  0.00  0.00    +0.000 A 
ATOM     16  C   UNL     1       1.463   7.240  20.970  0.00  0.00    +0.000 A 
ATOM     17  C   UNL     1       1.431   8.575  20.632  0.00  0.00    +0.000 A 
ATOM     18  O   UNL     1       2.025   8.720  19.418  0.00  0.00    +0.000 OA
ATOM     19  N   UNL     1       2.359   7.488  18.902  0.00  0.00    +0.000 NA
BRANCH  15  20
ATOM     20  C   UNL     1       2.179   5.126  19.597  0.00  0.00    +0.000 C 
ATOM     21  C   UNL     1       1.312   4.324  20.578  0.00  0.00    +0.000 C 
BRANCH  20  23
ATOM     22  C   UNL     1       3.021   3.996  17.458  0.00  0.00    +0.000 C 
ATOM     23  C   UNL     1       1.864   4.710  18.148  0.00  0.00    +0.000 C 
ENDBRANCH  20  23
ENDBRANCH  15  20
ENDBRANCH   1  17
TORSDOF 5
ENDMDL
MODEL 8
REMARK VINA RESULT:      -6.3      1.206      1.770
REMARK  Name = 
REMARK  9 active torsions:
REMARK  status: ('A' for Active; 'I' for Inactive)
REMARK    1  A    between atoms: C_1  and  C_2
REMARK    2  A    between atoms: C_2  and  C_3
REMARK    3  A    between atoms: C_3  and  C_4
REMARK    4  A    between atoms: C_3  and  C_5
REMARK    5  A    between atoms: C_7  and  C_8
REMARK    6  A    between atoms: N_10  and  C_11
REMARK    7  A    between atoms: N_10  and  C_12
REMARK    8  A    between atoms: C_17  and  S_18
REMARK    9  A    between atoms: S_18  and  C_19
REMARK                            x       y       z     vdW  Elec       q    Type
REMARK                         _______ _______ _______ _____ _____    ______ ____
ROOT
ATOM      1  C   UNL     1       4.217   4.096  17.232  0.00  0.00    +0.000 C 
ATOM      2  O   UNL     1       3.067   3.702  17.007  0.00  0.00    +0.000 OA
ATOM      3  N   UNL     1       4.669   4.223  18.558  0.00  0.00    +0.000 N 
ATOM      4  C   UNL     1       5.933   4.823  19.004  0.00  0.00    +0.000 C 
ENDROOT
BRANCH   3   5
ATOM      5  C   UNL     1       3.760   3.903  19.604  0.00  0.00    +0.000 A 
ATOM      6  C   UNL     1       3.932   2.639  20.189  0.00  0.00    +0.000 A 
ATOM      7  C   UNL     1       3.088   2.201  21.210  0.00  0.00    +0.000 A 
ATOM      8  C   UNL     1       2.076   3.032  21.675  0.00  0.00    +0.000 A 
ATOM      9  C   UNL     1       1.894   4.293  21.106  0.00  0.00    +0.000 A 
ATOM     10  C   UNL     1       2.718   4.728  20.051  0.00  0.00    +0.000 A 
BRANCH  10  11
ATOM     11  S   UNL     1       2.398   6.361  19.414  0.00  0.00    +0.000 S 
ATOM     12  C   UNL     1       1.453   7.146  20.689  0.00  0.00    +0.000 C 
ATOM     13  O   UNL     1       3.677   7.044  19.344  0.00  0.00    +0.000 OA
ATOM     14  O   UNL     1       1.565   6.272  18.233  0.00  0.00    +0.000 OA
ENDBRANCH  10  11
ENDBRANCH   3   5
BRANCH   1  17
ATOM     15  C   UNL     1       6.465   4.559  14.412  0.00  0.00    +0.000 A 
ATOM     16  C   UNL     1       5.881   3.660  15.331  0.00  0.00    +0.000 A 
ATOM     17  C   UNL     1       5.082   4.449  16.130  0.00  0.00    +0.000 A 
ATOM     18  O   UNL     1       5.277   5.746  15.777  0.00  0.00    +0.000 OA
ATOM     19  N   UNL     1       6.116   5.821  14.688  0.00  0.00    +0.000 NA
BRANCH  15  20
ATOM     20  C   UNL     1       7.351   4.246  13.243  0.00  0.00    +0.000 C 
ATOM     21  C   UNL     1       6.527   3.629  12.105  0.00  0.00    +0.000 C 
BRANCH  20  23
ATOM     22  C   UNL     1       7.709   5.917  11.335  0.00  0.00    +0.000 C 
ATOM     23  C   UNL     1       8.127   5.474  12.732  0.00  0.00    +0.000 C 
ENDBRANCH  20  23
ENDBRANCH  15  20
ENDBRANCH   1  17
TORSDOF 5
ENDMDL
MODEL 9
REMARK VINA RESULT:      -6.3      5.188      8.568
REMARK  Name = 
REMARK  9 active torsions:
REMARK  status: ('A' for Active; 'I' for Inactive)
REMARK    1  A    between atoms: C_1  and  C_2
REMARK    2  A    between atoms: C_2  and  C_3
REMARK    3  A    between atoms: C_3  and  C_4
REMARK    4  A    between atoms: C_3  and  C_5
REMARK    5  A    between atoms: C_7  and  C_8
REMARK    6  A    between atoms: N_10  and  C_11
REMARK    7  A    between atoms: N_10  and  C_12
REMARK    8  A    between atoms: C_17  and  S_18
REMARK    9  A    between atoms: S_18  and  C_19
REMARK                            x       y       z     vdW  Elec       q    Type
REMARK                         _______ _______ _______ _____ _____    ______ ____
ROOT
ATOM      1  C   UNL     1       0.888   9.847  21.353  0.00  0.00    +0.000 C 
ATOM      2  O   UNL     1       1.333  10.044  22.489  0.00  0.00    +0.000 OA
ATOM      3  N   UNL     1      -0.106  10.693  20.831  0.00  0.00    +0.000 N 
ATOM      4  C   UNL     1      -0.852  10.509  19.579  0.00  0.00    +0.000 C 
ENDROOT
BRANCH   3   5
ATOM      5  C   UNL     1      -0.579  11.751  21.655  0.00  0.00    +0.000 A 
ATOM      6  C   UNL     1      -1.657  11.428  22.495  0.00  0.00    +0.000 A 
ATOM      7  C   UNL     1      -2.224  12.387  23.334  0.00  0.00    +0.000 A 
ATOM      8  C   UNL     1      -1.706  13.675  23.361  0.00  0.00    +0.000 A 
ATOM      9  C   UNL     1      -0.633  14.012  22.535  0.00  0.00    +0.000 A 
ATOM     10  C   UNL     1      -0.078  13.060  21.659  0.00  0.00    +0.000 A 
BRANCH  10  11
ATOM     11  S   UNL     1       1.296  13.603  20.663  0.00  0.00    +0.000 S 
ATOM     12  C   UNL     1       1.383  15.346  20.957  0.00  0.00    +0.000 C 
ATOM     13  O   UNL     1       2.492  13.009  21.236  0.00  0.00    +0.000 OA
ATOM     14  O   UNL     1       0.995  13.402  19.261  0.00  0.00    +0.000 OA
ENDBRANCH  10  11
ENDBRANCH   3   5
BRANCH   1  17
ATOM     15  C   UNL     1       2.024   6.788  19.746  0.00  0.00    +0.000 A 
ATOM     16  C   UNL     1       1.543   7.406  20.921  0.00  0.00    +0.000 A 
ATOM     17  C   UNL     1       1.376   8.729  20.577  0.00  0.00    +0.000 A 
ATOM     18  O   UNL     1       1.841   8.901  19.313  0.00  0.00    +0.000 OA
ATOM     19  N   UNL     1       2.222   7.691  18.778  0.00  0.00    +0.000 NA
BRANCH  15  20
ATOM     20  C   UNL     1       2.292   5.333  19.505  0.00  0.00    +0.000 C 
ATOM     21  C   UNL     1       3.804   5.071  19.479  0.00  0.00    +0.000 C 
BRANCH  20  23
ATOM     22  C   UNL     1       0.886   3.231  19.916  0.00  0.00    +0.000 C 
ATOM     23  C   UNL     1       1.612   4.417  20.540  0.00  0.00    +0.000 C 
ENDBRANCH  20  23
ENDBRANCH  15  20
ENDBRANCH   1  17
TORSDOF 5
ENDMDL
