MODEL 1
REMARK VINA RESULT:      -7.2      0.000      0.000
REMARK  Name = 
REMARK  7 active torsions:
REMARK  status: ('A' for Active; 'I' for Inactive)
REMARK    1  A    between atoms: C_1  and  C_2
REMARK    2  A    between atoms: C_2  and  C_3
REMARK    3  A    between atoms: C_3  and  C_4
REMARK    4  A    between atoms: C_4  and  N_5
REMARK    5  A    between atoms: C_6  and  C_8
REMARK    6  A    between atoms: N_14  and  C_15
REMARK    7  A    between atoms: C_15  and  C_16
REMARK                            x       y       z     vdW  Elec       q    Type
REMARK                         _______ _______ _______ _____ _____    ______ ____
ROOT
ATOM      1  C   UNL     1       6.121   4.665  15.754  0.00  0.00    +0.000 A 
ATOM      2  C   UNL     1       6.883   4.234  16.848  0.00  0.00    +0.000 A 
ATOM      3  C   UNL     1       6.381   4.365  18.139  0.00  0.00    +0.000 A 
ATOM      4  C   UNL     1       5.116   4.915  18.342  0.00  0.00    +0.000 A 
ATOM      5  C   UNL     1       4.320   5.292  17.258  0.00  0.00    +0.000 A 
ATOM      6  C   UNL     1       4.834   5.194  15.959  0.00  0.00    +0.000 A 
ATOM      7  N   UNL     1       3.005   5.760  17.498  0.00  0.00    +0.000 N 
ATOM      8  C   UNL     1       1.987   4.879  17.859  0.00  0.00    +0.000 C 
ATOM      9  O   UNL     1       0.928   4.843  17.240  0.00  0.00    +0.000 OA
ATOM     10  C   UNL     1       2.127   4.080  19.131  0.00  0.00    +0.000 A 
ATOM     11  C   UNL     1       1.040   3.241  19.442  0.00  0.00    +0.000 A 
ATOM     12  C   UNL     1       0.994   2.531  20.645  0.00  0.00    +0.000 A 
ATOM     13  C   UNL     1       2.034   2.641  21.557  0.00  0.00    +0.000 A 
ATOM     14  C   UNL     1       3.107   3.474  21.276  0.00  0.00    +0.000 A 
ATOM     15  C   UNL     1       3.161   4.211  20.078  0.00  0.00    +0.000 A 
ATOM     16  S   UNL     1       4.590   5.270  19.994  0.00  0.00    +0.000 S 
ENDROOT
BRANCH   1  18
ATOM     17  N   UNL     1       6.124   3.761  13.488  0.00  0.00    +0.000 N 
ATOM     18  C   UNL     1       6.692   4.644  14.380  0.00  0.00    +0.000 C 
ATOM     19  O   UNL     1       7.628   5.385  14.102  0.00  0.00    +0.000 OA
ATOM     20  H   UNL     1       5.299   3.236  13.742  0.00  0.00    +0.000 HD
BRANCH  17  21
ATOM     21  C   UNL     1       6.657   3.566  12.154  0.00  0.00    +0.000 C 
BRANCH  21  22
ATOM     22  C   UNL     1       5.705   2.779  11.252  0.00  0.00    +0.000 C 
BRANCH  22  24
ATOM     23  C   UNL     1       3.563   3.704  10.286  0.00  0.00    +0.000 C 
ATOM     24  C   UNL     1       4.236   3.114  11.516  0.00  0.00    +0.000 C 
ENDBRANCH  22  24
ENDBRANCH  21  22
ENDBRANCH  17  21
ENDBRANCH   1  18
BRANCH   7  25
ATOM     25  C   UNL     1       2.656   7.140  17.198  0.00  0.00    +0.000 C 
ATOM     26  C   UNL     1       2.316   7.891  18.490  0.00  0.00    +0.000 C 
ENDBRANCH   7  25
TORSDOF 5
ENDMDL
MODEL 2
REMARK VINA RESULT:      -7.1      0.715      1.153
REMARK  Name = 
REMARK  7 active torsions:
REMARK  status: ('A' for Active; 'I' for Inactive)
REMARK    1  A    between atoms: C_1  and  C_2
REMARK    2  A    between atoms: C_2  and  C_3
REMARK    3  A    between atoms: C_3  and  C_4
REMARK    4  A    between atoms: C_4  and  N_5
REMARK    5  A    between atoms: C_6  and  C_8
REMARK    6  A    between atoms: N_14  and  C_15
REMARK    7  A    between atoms: C_15  and  C_16
REMARK                            x       y       z     vdW  Elec       q    Type
REMARK                         _______ _______ _______ _____ _____    ______ ____
ROOT
ATOM      1  C   UNL     1       6.166   4.629  15.725  0.00  0.00    +0.000 A 
ATOM      2  C   UNL     1       6.929   4.191  16.816  0.00  0.00    +0.000 A 
ATOM      3  C   UNL     1       6.433   4.327  18.110  0.00  0.00    +0.000 A 
ATOM      4  C   UNL     1       5.174   4.889  18.317  0.00  0.00    +0.000 A 
ATOM      5  C   UNL     1       4.377   5.273  17.236  0.00  0.00    +0.000 A 
ATOM      6  C   UNL     1       4.884   5.169  15.936  0.00  0.00    +0.000 A 
ATOM      7  N   UNL     1       3.068   5.754  17.481  0.00  0.00    +0.000 N 
ATOM      8  C   UNL     1       2.042   4.882  17.846  0.00  0.00    +0.000 C 
ATOM      9  O   UNL     1       0.981   4.855  17.232  0.00  0.00    +0.000 OA
ATOM     10  C   UNL     1       2.179   4.083  19.118  0.00  0.00    +0.000 A 
ATOM     11  C   UNL     1       1.086   3.254  19.434  0.00  0.00    +0.000 A 
ATOM     12  C   UNL     1       1.039   2.545  20.638  0.00  0.00    +0.000 A 
ATOM     13  C   UNL     1       2.083   2.645  21.545  0.00  0.00    +0.000 A 
ATOM     14  C   UNL     1       3.163   3.468  21.260  0.00  0.00    +0.000 A 
ATOM     15  C   UNL     1       3.219   4.204  20.061  0.00  0.00    +0.000 A 
ATOM     16  S   UNL     1       4.658   5.249  19.971  0.00  0.00    +0.000 S 
ENDROOT
BRANCH   1  18
ATOM     17  N   UNL     1       6.186   3.687  13.475  0.00  0.00    +0.000 N 
ATOM     18  C   UNL     1       6.731   4.601  14.349  0.00  0.00    +0.000 C 
ATOM     19  O   UNL     1       7.643   5.365  14.054  0.00  0.00    +0.000 OA
ATOM     20  H   UNL     1       5.379   3.141  13.742  0.00  0.00    +0.000 HD
BRANCH  17  21
ATOM     21  C   UNL     1       6.719   3.486  12.142  0.00  0.00    +0.000 C 
BRANCH  21  22
ATOM     22  C   UNL     1       5.970   2.399  11.369  0.00  0.00    +0.000 C 
BRANCH  22  24
ATOM     23  C   UNL     1       6.129  -0.119  11.267  0.00  0.00    +0.000 C 
ATOM     24  C   UNL     1       6.858   1.196  11.041  0.00  0.00    +0.000 C 
ENDBRANCH  22  24
ENDBRANCH  21  22
ENDBRANCH  17  21
ENDBRANCH   1  18
BRANCH   7  25
ATOM     25  C   UNL     1       2.730   7.137  17.182  0.00  0.00    +0.000 C 
ATOM     26  C   UNL     1       2.310   7.866  18.463  0.00  0.00    +0.000 C 
ENDBRANCH   7  25
TORSDOF 5
ENDMDL
MODEL 3
REMARK VINA RESULT:      -7.0      5.534      8.856
REMARK  Name = 
REMARK  7 active torsions:
REMARK  status: ('A' for Active; 'I' for Inactive)
REMARK    1  A    between atoms: C_1  and  C_2
REMARK    2  A    between atoms: C_2  and  C_3
REMARK    3  A    between atoms: C_3  and  C_4
REMARK    4  A    between atoms: C_4  and  N_5
REMARK    5  A    between atoms: C_6  and  C_8
REMARK    6  A    between atoms: N_14  and  C_15
REMARK    7  A    between atoms: C_15  and  C_16
REMARK                            x       y       z     vdW  Elec       q    Type
REMARK                         _______ _______ _______ _____ _____    ______ ____
ROOT
ATOM      1  C   UNL     1       1.388   8.573  20.193  0.00  0.00    +0.000 A 
ATOM      2  C   UNL     1       1.079   8.562  21.560  0.00  0.00    +0.000 A 
ATOM      3  C   UNL     1       0.440   9.656  22.137  0.00  0.00    +0.000 A 
ATOM      4  C   UNL     1       0.100  10.757  21.352  0.00  0.00    +0.000 A 
ATOM      5  C   UNL     1       0.347  10.757  19.977  0.00  0.00    +0.000 A 
ATOM      6  C   UNL     1       1.019   9.673  19.398  0.00  0.00    +0.000 A 
ATOM      7  N   UNL     1      -0.096  11.852  19.197  0.00  0.00    +0.000 N 
ATOM      8  C   UNL     1      -1.447  12.013  18.891  0.00  0.00    +0.000 C 
ATOM      9  O   UNL     1      -1.825  12.155  17.732  0.00  0.00    +0.000 OA
ATOM     10  C   UNL     1      -2.437  12.184  20.016  0.00  0.00    +0.000 A 
ATOM     11  C   UNL     1      -3.775  12.377  19.622  0.00  0.00    +0.000 A 
ATOM     12  C   UNL     1      -4.773  12.656  20.560  0.00  0.00    +0.000 A 
ATOM     13  C   UNL     1      -4.456  12.743  21.907  0.00  0.00    +0.000 A 
ATOM     14  C   UNL     1      -3.141  12.571  22.315  0.00  0.00    +0.000 A 
ATOM     15  C   UNL     1      -2.119  12.308  21.383  0.00  0.00    +0.000 A 
ATOM     16  S   UNL     1      -0.512  12.218  22.142  0.00  0.00    +0.000 S 
ENDROOT
BRANCH   1  18
ATOM     17  N   UNL     1       2.352   6.338  20.359  0.00  0.00    +0.000 N 
ATOM     18  C   UNL     1       2.177   7.466  19.588  0.00  0.00    +0.000 C 
ATOM     19  O   UNL     1       2.639   7.598  18.460  0.00  0.00    +0.000 OA
ATOM     20  H   UNL     1       1.879   6.247  21.247  0.00  0.00    +0.000 HD
BRANCH  17  21
ATOM     21  C   UNL     1       3.189   5.236  19.930  0.00  0.00    +0.000 C 
BRANCH  21  22
ATOM     22  C   UNL     1       2.391   3.955  19.684  0.00  0.00    +0.000 C 
BRANCH  22  24
ATOM     23  C   UNL     1       1.356   2.672  21.597  0.00  0.00    +0.000 C 
ATOM     24  C   UNL     1       1.187   3.825  20.620  0.00  0.00    +0.000 C 
ENDBRANCH  22  24
ENDBRANCH  21  22
ENDBRANCH  17  21
ENDBRANCH   1  18
BRANCH   7  25
ATOM     25  C   UNL     1       0.871  12.728  18.552  0.00  0.00    +0.000 C 
ATOM     26  C   UNL     1       0.733  14.155  19.094  0.00  0.00    +0.000 C 
ENDBRANCH   7  25
TORSDOF 5
ENDMDL
MODEL 4
REMARK VINA RESULT:      -6.8      5.770      8.827
REMARK  Name = 
REMARK  7 active torsions:
REMARK  status: ('A' for Active; 'I' for Inactive)
REMARK    1  A    between atoms: C_1  and  C_2
REMARK    2  A    between atoms: C_2  and  C_3
REMARK    3  A    between atoms: C_3  and  C_4
REMARK    4  A    between atoms: C_4  and  N_5
REMARK    5  A    between atoms: C_6  and  C_8
REMARK    6  A    between atoms: N_14  and  C_15
REMARK    7  A    between atoms: C_15  and  C_16
REMARK                            x       y       z     vdW  Elec       q    Type
REMARK                         _______ _______ _______ _____ _____    ______ ____
ROOT
ATOM      1  C   UNL     1       1.140   8.680  20.494  0.00  0.00    +0.000 A 
ATOM      2  C   UNL     1       0.836   8.734  21.861  0.00  0.00    +0.000 A 
ATOM      3  C   UNL     1       0.197   9.853  22.387  0.00  0.00    +0.000 A 
ATOM      4  C   UNL     1      -0.148  10.914  21.551  0.00  0.00    +0.000 A 
ATOM      5  C   UNL     1       0.093  10.848  20.177  0.00  0.00    +0.000 A 
ATOM      6  C   UNL     1       0.765   9.739  19.648  0.00  0.00    +0.000 A 
ATOM      7  N   UNL     1      -0.355  11.904  19.346  0.00  0.00    +0.000 N 
ATOM      8  C   UNL     1      -1.708  12.047  19.039  0.00  0.00    +0.000 C 
ATOM      9  O   UNL     1      -2.090  12.133  17.876  0.00  0.00    +0.000 OA
ATOM     10  C   UNL     1      -2.693  12.271  20.158  0.00  0.00    +0.000 A 
ATOM     11  C   UNL     1      -4.034  12.442  19.761  0.00  0.00    +0.000 A 
ATOM     12  C   UNL     1      -5.028  12.765  20.689  0.00  0.00    +0.000 A 
ATOM     13  C   UNL     1      -4.706  12.917  22.029  0.00  0.00    +0.000 A 
ATOM     14  C   UNL     1      -3.389  12.767  22.439  0.00  0.00    +0.000 A 
ATOM     15  C   UNL     1      -2.371  12.461  21.516  0.00  0.00    +0.000 A 
ATOM     16  S   UNL     1      -0.760  12.411  22.273  0.00  0.00    +0.000 S 
ENDROOT
BRANCH   1  18
ATOM     17  N   UNL     1       1.874   6.357  20.634  0.00  0.00    +0.000 N 
ATOM     18  C   UNL     1       1.928   7.546  19.940  0.00  0.00    +0.000 C 
ATOM     19  O   UNL     1       2.588   7.709  18.919  0.00  0.00    +0.000 OA
ATOM     20  H   UNL     1       1.247   6.251  21.420  0.00  0.00    +0.000 HD
BRANCH  17  21
ATOM     21  C   UNL     1       2.679   5.212  20.261  0.00  0.00    +0.000 C 
BRANCH  21  22
ATOM     22  C   UNL     1       1.869   4.136  19.537  0.00  0.00    +0.000 C 
BRANCH  22  24
ATOM     23  C   UNL     1       2.511   3.141  17.307  0.00  0.00    +0.000 C 
ATOM     24  C   UNL     1       1.871   4.323  18.018  0.00  0.00    +0.000 C 
ENDBRANCH  22  24
ENDBRANCH  21  22
ENDBRANCH  17  21
ENDBRANCH   1  18
BRANCH   7  25
ATOM     25  C   UNL     1       0.608  12.749  18.656  0.00  0.00    +0.000 C 
ATOM     26  C   UNL     1       0.465  14.201  19.125  0.00  0.00    +0.000 C 
ENDBRANCH   7  25
TORSDOF 5
ENDMDL
MODEL 5
REMARK VINA RESULT:      -6.4      5.515      8.495
REMARK  Name = 
REMARK  7 active torsions:
REMARK  status: ('A' for Active; 'I' for Inactive)
REMARK    1  A    between atoms: C_1  and  C_2
REMARK    2  A    between atoms: C_2  and  C_3
REMARK    3  A    between atoms: C_3  and  C_4
REMARK    4  A    between atoms: C_4  and  N_5
REMARK    5  A    between atoms: C_6  and  C_8
REMARK    6  A    between atoms: N_14  and  C_15
REMARK    7  A    between atoms: C_15  and  C_16
REMARK                            x       y       z     vdW  Elec       q    Type
REMARK                         _______ _______ _______ _____ _____    ______ ____
ROOT
ATOM      1  C   UNL     1       1.344   8.464  20.311  0.00  0.00    +0.000 A 
ATOM      2  C   UNL     1       1.003   8.511  21.669  0.00  0.00    +0.000 A 
ATOM      3  C   UNL     1       0.378   9.640  22.190  0.00  0.00    +0.000 A 
ATOM      4  C   UNL     1       0.084  10.719  21.358  0.00  0.00    +0.000 A 
ATOM      5  C   UNL     1       0.363  10.662  19.991  0.00  0.00    +0.000 A 
ATOM      6  C   UNL     1       1.021   9.542  19.468  0.00  0.00    +0.000 A 
ATOM      7  N   UNL     1      -0.034  11.739  19.160  0.00  0.00    +0.000 N 
ATOM      8  C   UNL     1      -1.373  11.920  18.816  0.00  0.00    +0.000 C 
ATOM      9  O   UNL     1      -1.719  12.029  17.644  0.00  0.00    +0.000 OA
ATOM     10  C   UNL     1      -2.384  12.157  19.909  0.00  0.00    +0.000 A 
ATOM     11  C   UNL     1      -3.707  12.367  19.477  0.00  0.00    +0.000 A 
ATOM     12  C   UNL     1      -4.719  12.706  20.379  0.00  0.00    +0.000 A 
ATOM     13  C   UNL     1      -4.432  12.834  21.730  0.00  0.00    +0.000 A 
ATOM     14  C   UNL     1      -3.132  12.645  22.176  0.00  0.00    +0.000 A 
ATOM     15  C   UNL     1      -2.096  12.323  21.278  0.00  0.00    +0.000 A 
ATOM     16  S   UNL     1      -0.509  12.223  22.080  0.00  0.00    +0.000 S 
ENDROOT
BRANCH   1  18
ATOM     17  N   UNL     1       2.751   7.514  18.559  0.00  0.00    +0.000 N 
ATOM     18  C   UNL     1       2.119   7.316  19.766  0.00  0.00    +0.000 C 
ATOM     19  O   UNL     1       2.156   6.261  20.389  0.00  0.00    +0.000 OA
ATOM     20  H   UNL     1       2.760   8.429  18.129  0.00  0.00    +0.000 HD
BRANCH  17  21
ATOM     21  C   UNL     1       3.446   6.445  17.870  0.00  0.00    +0.000 C 
BRANCH  21  22
ATOM     22  C   UNL     1       4.724   6.925  17.181  0.00  0.00    +0.000 C 
BRANCH  22  24
ATOM     23  C   UNL     1       7.230   7.045  17.472  0.00  0.00    +0.000 C 
ATOM     24  C   UNL     1       5.975   6.219  17.710  0.00  0.00    +0.000 C 
ENDBRANCH  22  24
ENDBRANCH  21  22
ENDBRANCH  17  21
ENDBRANCH   1  18
BRANCH   7  25
ATOM     25  C   UNL     1       0.970  12.566  18.508  0.00  0.00    +0.000 C 
ATOM     26  C   UNL     1       0.892  14.003  19.036  0.00  0.00    +0.000 C 
ENDBRANCH   7  25
TORSDOF 5
ENDMDL
MODEL 6
REMARK VINA RESULT:      -6.3      5.933      9.006
REMARK  Name = 
REMARK  7 active torsions:
REMARK  status: ('A' for Active; 'I' for Inactive)
REMARK    1  A    between atoms: C_1  and  C_2
REMARK    2  A    between atoms: C_2  and  C_3
REMARK    3  A    between atoms: C_3  and  C_4
REMARK    4  A    between atoms: C_4  and  N_5
REMARK    5  A    between atoms: C_6  and  C_8
REMARK    6  A    between atoms: N_14  and  C_15
REMARK    7  A    between atoms: C_15  and  C_16
REMARK                            x       y       z     vdW  Elec       q    Type
REMARK                         _______ _______ _______ _____ _____    ______ ____
ROOT
ATOM      1  C   UNL     1       0.856   8.684  20.904  0.00  0.00    +0.000 A 
ATOM      2  C   UNL     1       0.529   8.849  22.256  0.00  0.00    +0.000 A 
ATOM      3  C   UNL     1      -0.090  10.020  22.684  0.00  0.00    +0.000 A 
ATOM      4  C   UNL     1      -0.392  11.024  21.764  0.00  0.00    +0.000 A 
ATOM      5  C   UNL     1      -0.127  10.848  20.404  0.00  0.00    +0.000 A 
ATOM      6  C   UNL     1       0.525   9.686  19.974  0.00  0.00    +0.000 A 
ATOM      7  N   UNL     1      -0.532  11.849  19.488  0.00  0.00    +0.000 N 
ATOM      8  C   UNL     1      -1.874  12.002  19.142  0.00  0.00    +0.000 C 
ATOM      9  O   UNL     1      -2.233  12.009  17.969  0.00  0.00    +0.000 OA
ATOM     10  C   UNL     1      -2.874  12.334  20.222  0.00  0.00    +0.000 A 
ATOM     11  C   UNL     1      -4.202  12.508  19.786  0.00  0.00    +0.000 A 
ATOM     12  C   UNL     1      -5.204  12.925  20.666  0.00  0.00    +0.000 A 
ATOM     13  C   UNL     1      -4.903  13.169  21.997  0.00  0.00    +0.000 A 
ATOM     14  C   UNL     1      -3.598  13.018  22.444  0.00  0.00    +0.000 A 
ATOM     15  C   UNL     1      -2.572  12.618  21.568  0.00  0.00    +0.000 A 
ATOM     16  S   UNL     1      -0.977  12.585  22.359  0.00  0.00    +0.000 S 
ENDROOT
BRANCH   1  18
ATOM     17  N   UNL     1       2.350   7.629  19.289  0.00  0.00    +0.000 N 
ATOM     18  C   UNL     1       1.625   7.493  20.452  0.00  0.00    +0.000 C 
ATOM     19  O   UNL     1       1.577   6.458  21.109  0.00  0.00    +0.000 OA
ATOM     20  H   UNL     1       2.423   8.527  18.834  0.00  0.00    +0.000 HD
BRANCH  17  21
ATOM     21  C   UNL     1       3.052   6.513  18.686  0.00  0.00    +0.000 C 
BRANCH  21  22
ATOM     22  C   UNL     1       2.125   5.607  17.874  0.00  0.00    +0.000 C 
BRANCH  22  24
ATOM     23  C   UNL     1       1.327   3.286  18.466  0.00  0.00    +0.000 C 
ATOM     24  C   UNL     1       2.501   4.128  17.992  0.00  0.00    +0.000 C 
ENDBRANCH  22  24
ENDBRANCH  21  22
ENDBRANCH  17  21
ENDBRANCH   1  18
BRANCH   7  25
ATOM     25  C   UNL     1       0.466  12.615  18.756  0.00  0.00    +0.000 C 
ATOM     26  C   UNL     1       0.325  14.107  19.079  0.00  0.00    +0.000 C 
ENDBRANCH   7  25
TORSDOF 5
ENDMDL
MODEL 7
REMARK VINA RESULT:      -6.3      5.344      8.347
REMARK  Name = 
REMARK  7 active torsions:
REMARK  status: ('A' for Active; 'I' for Inactive)
REMARK    1  A    between atoms: C_1  and  C_2
REMARK    2  A    between atoms: C_2  and  C_3
REMARK    3  A    between atoms: C_3  and  C_4
REMARK    4  A    between atoms: C_4  and  N_5
REMARK    5  A    between atoms: C_6  and  C_8
REMARK    6  A    between atoms: N_14  and  C_15
REMARK    7  A    between atoms: C_15  and  C_16
REMARK                            x       y       z     vdW  Elec       q    Type
REMARK                         _______ _______ _______ _____ _____    ______ ____
ROOT
ATOM      1  C   UNL     1       1.484   8.380  19.990  0.00  0.00    +0.000 A 
ATOM      2  C   UNL     1       1.187   8.340  21.359  0.00  0.00    +0.000 A 
ATOM      3  C   UNL     1       0.600   9.441  21.976  0.00  0.00    +0.000 A 
ATOM      4  C   UNL     1       0.299  10.579  21.228  0.00  0.00    +0.000 A 
ATOM      5  C   UNL     1       0.533  10.611  19.852  0.00  0.00    +0.000 A 
ATOM      6  C   UNL     1       1.153   9.519  19.233  0.00  0.00    +0.000 A 
ATOM      7  N   UNL     1       0.129  11.748  19.109  0.00  0.00    +0.000 N 
ATOM      8  C   UNL     1      -1.216  11.974  18.823  0.00  0.00    +0.000 C 
ATOM      9  O   UNL     1      -1.599  12.168  17.673  0.00  0.00    +0.000 OA
ATOM     10  C   UNL     1      -2.188  12.152  19.963  0.00  0.00    +0.000 A 
ATOM     11  C   UNL     1      -3.520  12.412  19.590  0.00  0.00    +0.000 A 
ATOM     12  C   UNL     1      -4.496  12.704  20.546  0.00  0.00    +0.000 A 
ATOM     13  C   UNL     1      -4.163  12.736  21.892  0.00  0.00    +0.000 A 
ATOM     14  C   UNL     1      -2.853  12.497  22.281  0.00  0.00    +0.000 A 
ATOM     15  C   UNL     1      -1.853  12.220  21.330  0.00  0.00    +0.000 A 
ATOM     16  S   UNL     1      -0.243  12.039  22.069  0.00  0.00    +0.000 S 
ENDROOT
BRANCH   1  18
ATOM     17  N   UNL     1       2.572   6.203  20.153  0.00  0.00    +0.000 N 
ATOM     18  C   UNL     1       2.219   7.260  19.343  0.00  0.00    +0.000 C 
ATOM     19  O   UNL     1       2.486   7.322  18.148  0.00  0.00    +0.000 OA
ATOM     20  H   UNL     1       2.253   6.163  21.111  0.00  0.00    +0.000 HD
BRANCH  17  21
ATOM     21  C   UNL     1       3.384   5.104  19.671  0.00  0.00    +0.000 C 
BRANCH  21  22
ATOM     22  C   UNL     1       4.823   5.524  19.368  0.00  0.00    +0.000 C 
BRANCH  22  24
ATOM     23  C   UNL     1       4.337   4.412  17.154  0.00  0.00    +0.000 C 
ATOM     24  C   UNL     1       5.410   4.781  18.167  0.00  0.00    +0.000 C 
ENDBRANCH  22  24
ENDBRANCH  21  22
ENDBRANCH  17  21
ENDBRANCH   1  18
BRANCH   7  25
ATOM     25  C   UNL     1       1.126  12.601  18.481  0.00  0.00    +0.000 C 
ATOM     26  C   UNL     1       1.061  14.013  19.076  0.00  0.00    +0.000 C 
ENDBRANCH   7  25
TORSDOF 5
ENDMDL
MODEL 8
REMARK VINA RESULT:      -6.2      5.205      8.089
REMARK  Name = 
REMARK  7 active torsions:
REMARK  status: ('A' for Active; 'I' for Inactive)
REMARK    1  A    between atoms: C_1  and  C_2
REMARK    2  A    between atoms: C_2  and  C_3
REMARK    3  A    between atoms: C_3  and  C_4
REMARK    4  A    between atoms: C_4  and  N_5
REMARK    5  A    between atoms: C_6  and  C_8
REMARK    6  A    between atoms: N_14  and  C_15
REMARK    7  A    between atoms: C_15  and  C_16
REMARK                            x       y       z     vdW  Elec       q    Type
REMARK                         _______ _______ _______ _____ _____    ______ ____
ROOT
ATOM      1  C   UNL     1       1.707   8.394  19.392  0.00  0.00    +0.000 A 
ATOM      2  C   UNL     1       1.445   8.205  20.756  0.00  0.00    +0.000 A 
ATOM      3  C   UNL     1       0.881   9.233  21.505  0.00  0.00    +0.000 A 
ATOM      4  C   UNL     1       0.569  10.448  20.896  0.00  0.00    +0.000 A 
ATOM      5  C   UNL     1       0.767  10.630  19.525  0.00  0.00    +0.000 A 
ATOM      6  C   UNL     1       1.365   9.611  18.774  0.00  0.00    +0.000 A 
ATOM      7  N   UNL     1       0.353  11.843  18.924  0.00  0.00    +0.000 N 
ATOM      8  C   UNL     1      -0.999  12.104  18.699  0.00  0.00    +0.000 C 
ATOM      9  O   UNL     1      -1.409  12.425  17.588  0.00  0.00    +0.000 OA
ATOM     10  C   UNL     1      -1.939  12.159  19.877  0.00  0.00    +0.000 A 
ATOM     11  C   UNL     1      -3.279  12.464  19.569  0.00  0.00    +0.000 A 
ATOM     12  C   UNL     1      -4.229  12.652  20.577  0.00  0.00    +0.000 A 
ATOM     13  C   UNL     1      -3.861  12.534  21.909  0.00  0.00    +0.000 A 
ATOM     14  C   UNL     1      -2.543  12.249  22.235  0.00  0.00    +0.000 A 
ATOM     15  C   UNL     1      -1.569  12.075  21.233  0.00  0.00    +0.000 A 
ATOM     16  S   UNL     1       0.058  11.808  21.906  0.00  0.00    +0.000 S 
ENDROOT
BRANCH   1  18
ATOM     17  N   UNL     1       2.226   6.043  18.999  0.00  0.00    +0.000 N 
ATOM     18  C   UNL     1       2.419   7.350  18.607  0.00  0.00    +0.000 C 
ATOM     19  O   UNL     1       3.139   7.682  17.672  0.00  0.00    +0.000 OA
ATOM     20  H   UNL     1       1.556   5.819  19.721  0.00  0.00    +0.000 HD
BRANCH  17  21
ATOM     21  C   UNL     1       2.945   4.944  18.388  0.00  0.00    +0.000 C 
BRANCH  21  22
ATOM     22  C   UNL     1       2.024   3.997  17.617  0.00  0.00    +0.000 C 
BRANCH  22  24
ATOM     23  C   UNL     1       3.082   2.208  19.051  0.00  0.00    +0.000 C 
ATOM     24  C   UNL     1       2.486   2.540  17.691  0.00  0.00    +0.000 C 
ENDBRANCH  22  24
ENDBRANCH  21  22
ENDBRANCH  17  21
ENDBRANCH   1  18
BRANCH   7  25
ATOM     25  C   UNL     1       1.339  12.757  18.368  0.00  0.00    +0.000 C 
ATOM     26  C   UNL     1       1.292  14.098  19.109  0.00  0.00    +0.000 C 
ENDBRANCH   7  25
TORSDOF 5
ENDMDL
MODEL 9
REMARK VINA RESULT:      -6.2      6.712      9.808
REMARK  Name = 
REMARK  7 active torsions:
REMARK  status: ('A' for Active; 'I' for Inactive)
REMARK    1  A    between atoms: C_1  and  C_2
REMARK    2  A    between atoms: C_2  and  C_3
REMARK    3  A    between atoms: C_3  and  C_4
REMARK    4  A    between atoms: C_4  and  N_5
REMARK    5  A    between atoms: C_6  and  C_8
REMARK    6  A    between atoms: N_14  and  C_15
REMARK    7  A    between atoms: C_15  and  C_16
REMARK                            x       y       z     vdW  Elec       q    Type
REMARK                         _______ _______ _______ _____ _____    ______ ____
ROOT
ATOM      1  C   UNL     1       0.450   9.371  21.019  0.00  0.00    +0.000 A 
ATOM      2  C   UNL     1       0.310   9.285  22.411  0.00  0.00    +0.000 A 
ATOM      3  C   UNL     1      -0.362  10.287  23.106  0.00  0.00    +0.000 A 
ATOM      4  C   UNL     1      -0.904  11.370  22.414  0.00  0.00    +0.000 A 
ATOM      5  C   UNL     1      -0.825  11.438  21.021  0.00  0.00    +0.000 A 
ATOM      6  C   UNL     1      -0.122  10.450  20.322  0.00  0.00    +0.000 A 
ATOM      7  N   UNL     1      -1.467  12.505  20.346  0.00  0.00    +0.000 N 
ATOM      8  C   UNL     1      -2.854  12.532  20.207  0.00  0.00    +0.000 C 
ATOM      9  O   UNL     1      -3.381  12.669  19.107  0.00  0.00    +0.000 OA
ATOM     10  C   UNL     1      -3.714  12.563  21.446  0.00  0.00    +0.000 A 
ATOM     11  C   UNL     1      -5.102  12.626  21.219  0.00  0.00    +0.000 A 
ATOM     12  C   UNL     1      -6.003  12.769  22.278  0.00  0.00    +0.000 A 
ATOM     13  C   UNL     1      -5.536  12.847  23.582  0.00  0.00    +0.000 A 
ATOM     14  C   UNL     1      -4.171  12.801  23.826  0.00  0.00    +0.000 A 
ATOM     15  C   UNL     1      -3.248  12.677  22.771  0.00  0.00    +0.000 A 
ATOM     16  S   UNL     1      -1.560  12.733  23.333  0.00  0.00    +0.000 S 
ENDROOT
BRANCH   1  18
ATOM     17  N   UNL     1       1.404   7.131  20.861  0.00  0.00    +0.000 N 
ATOM     18  C   UNL     1       1.267   8.372  20.279  0.00  0.00    +0.000 C 
ATOM     19  O   UNL     1       1.785   8.685  19.212  0.00  0.00    +0.000 OA
ATOM     20  H   UNL     1       0.887   6.898  21.697  0.00  0.00    +0.000 HD
BRANCH  17  21
ATOM     21  C   UNL     1       2.261   6.108  20.297  0.00  0.00    +0.000 C 
BRANCH  21  22
ATOM     22  C   UNL     1       2.064   4.745  20.963  0.00  0.00    +0.000 C 
BRANCH  22  24
ATOM     23  C   UNL     1       1.376   3.799  18.726  0.00  0.00    +0.000 C 
ATOM     24  C   UNL     1       1.061   3.866  20.212  0.00  0.00    +0.000 C 
ENDBRANCH  22  24
ENDBRANCH  21  22
ENDBRANCH  17  21
ENDBRANCH   1  18
BRANCH   7  25
ATOM     25  C   UNL     1      -0.678  13.497  19.632  0.00  0.00    +0.000 C 
ATOM     26  C   UNL     1      -0.518  13.086  18.164  0.00  0.00    +0.000 C 
ENDBRANCH   7  25
TORSDOF 5
ENDMDL
