MODEL 1
REMARK VINA RESULT:      -8.7      0.000      0.000
REMARK  Name = 
REMARK  10 active torsions:
REMARK  status: ('A' for Active; 'I' for Inactive)
REMARK    1  A    between atoms: C_2  and  O_3
REMARK    2  A    between atoms: C_2  and  C_4
REMARK    3  A    between atoms: C_4  and  C_5
REMARK    4  A    between atoms: C_4  and  C_27
REMARK    5  A    between atoms: C_5  and  S_6
REMARK    6  A    between atoms: S_6  and  C_7
REMARK    7  A    between atoms: C_7  and  C_8
REMARK    8  A    between atoms: C_8  and  N_9
REMARK    9  A    between atoms: C_10  and  C_11
REMARK   10  A    between atoms: C_15  and  C_16
REMARK                            x       y       z     vdW  Elec       q    Type
REMARK                         _______ _______ _______ _____ _____    ______ ____
ROOT
ATOM      1  N   UNL     1       3.177   4.266  19.121  0.00  0.00    +0.000 N 
ATOM      2  C   UNL     1       4.501   3.904  19.038  0.00  0.00    +0.000 A 
ATOM      3  N   UNL     1       4.803   2.856  19.762  0.00  0.00    +0.000 NA
ATOM      4  N   UNL     1       3.638   2.500  20.363  0.00  0.00    +0.000 N 
ATOM      5  C   UNL     1       2.630   3.386  20.036  0.00  0.00    +0.000 A 
ATOM      6  S   UNL     1       1.124   3.327  20.734  0.00  0.00    +0.000 S 
ATOM      7  H   UNL     1       3.579   1.739  21.030  0.00  0.00    +0.000 HD
ENDROOT
BRANCH   2   8
ATOM      8  C   UNL     1       5.549   4.630  18.270  0.00  0.00    +0.000 A 
ATOM      9  C   UNL     1       6.359   5.631  18.797  0.00  0.00    +0.000 A 
ATOM     10  C   UNL     1       7.300   6.288  18.010  0.00  0.00    +0.000 A 
ATOM     11  C   UNL     1       7.411   5.972  16.662  0.00  0.00    +0.000 A 
ATOM     12  C   UNL     1       6.601   4.989  16.072  0.00  0.00    +0.000 A 
ATOM     13  C   UNL     1       5.689   4.315  16.907  0.00  0.00    +0.000 A 
BRANCH  12  14
ATOM     14  C   UNL     1       6.682   4.713  14.617  0.00  0.00    +0.000 A 
ATOM     15  C   UNL     1       5.838   3.772  13.999  0.00  0.00    +0.000 A 
ATOM     16  C   UNL     1       5.966   3.454  12.645  0.00  0.00    +0.000 A 
ATOM     17  C   UNL     1       6.928   4.092  11.869  0.00  0.00    +0.000 A 
ATOM     18  C   UNL     1       7.759   5.047  12.448  0.00  0.00    +0.000 A 
ATOM     19  C   UNL     1       7.641   5.347  13.807  0.00  0.00    +0.000 A 
ENDBRANCH  12  14
ENDBRANCH   2   8
BRANCH   1  20
ATOM     20  C   UNL     1       2.464   5.386  18.502  0.00  0.00    +0.000 C 
BRANCH  20  21
ATOM     21  C   UNL     1       2.613   6.719  19.253  0.00  0.00    +0.000 C 
BRANCH  21  22
ATOM     22  S   UNL     1       2.231   8.205  18.287  0.00  0.00    +0.000 S 
BRANCH  22  23
ATOM     23  C   UNL     1       1.160   9.052  19.512  0.00  0.00    +0.000 C 
BRANCH  23  24
ATOM     24  C   UNL     1       0.861  10.479  19.048  0.00  0.00    +0.000 C 
BRANCH  24  25
ATOM     25  C   UNL     1      -0.578  10.637  18.579  0.00  0.00    +0.000 A 
ATOM     26  C   UNL     1      -1.401  11.600  19.187  0.00  0.00    +0.000 A 
ATOM     27  C   UNL     1      -2.745  11.715  18.831  0.00  0.00    +0.000 A 
ATOM     28  C   UNL     1      -3.283  10.878  17.858  0.00  0.00    +0.000 A 
ATOM     29  C   UNL     1      -2.473   9.941  17.221  0.00  0.00    +0.000 A 
ATOM     30  C   UNL     1      -1.125   9.826  17.573  0.00  0.00    +0.000 A 
ENDBRANCH  24  25
BRANCH  24  32
ATOM     31  O   UNL     1       1.030  11.262  21.352  0.00  0.00    +0.000 OA
ATOM     32  C   UNL     1       1.200  11.472  20.158  0.00  0.00    +0.000 C 
BRANCH  32  33
ATOM     33  O   UNL     1       1.718  12.642  19.713  0.00  0.00    +0.000 OA
ATOM     34  H   UNL     1       2.657  12.599  19.450  0.00  0.00    +0.000 HD
ENDBRANCH  32  33
ENDBRANCH  24  32
ENDBRANCH  23  24
ENDBRANCH  22  23
ENDBRANCH  21  22
ENDBRANCH  20  21
ENDBRANCH   1  20
TORSDOF 10
ENDMDL
MODEL 2
REMARK VINA RESULT:      -8.6      1.572      2.206
REMARK  Name = 
REMARK  10 active torsions:
REMARK  status: ('A' for Active; 'I' for Inactive)
REMARK    1  A    between atoms: C_2  and  O_3
REMARK    2  A    between atoms: C_2  and  C_4
REMARK    3  A    between atoms: C_4  and  C_5
REMARK    4  A    between atoms: C_4  and  C_27
REMARK    5  A    between atoms: C_5  and  S_6
REMARK    6  A    between atoms: S_6  and  C_7
REMARK    7  A    between atoms: C_7  and  C_8
REMARK    8  A    between atoms: C_8  and  N_9
REMARK    9  A    between atoms: C_10  and  C_11
REMARK   10  A    between atoms: C_15  and  C_16
REMARK                            x       y       z     vdW  Elec       q    Type
REMARK                         _______ _______ _______ _____ _____    ______ ____
ROOT
ATOM      1  N   UNL     1       3.053   4.302  18.941  0.00  0.00    +0.000 N 
ATOM      2  C   UNL     1       4.390   3.977  18.931  0.00  0.00    +0.000 A 
ATOM      3  N   UNL     1       4.691   2.979  19.722  0.00  0.00    +0.000 NA
ATOM      4  N   UNL     1       3.513   2.619  20.294  0.00  0.00    +0.000 N 
ATOM      5  C   UNL     1       2.494   3.455  19.879  0.00  0.00    +0.000 A 
ATOM      6  S   UNL     1       0.962   3.386  20.517  0.00  0.00    +0.000 S 
ATOM      7  H   UNL     1       3.447   1.892  20.997  0.00  0.00    +0.000 HD
ENDROOT
BRANCH   2   8
ATOM      8  C   UNL     1       5.448   4.694  18.168  0.00  0.00    +0.000 A 
ATOM      9  C   UNL     1       6.237   5.716  18.688  0.00  0.00    +0.000 A 
ATOM     10  C   UNL     1       7.189   6.362  17.906  0.00  0.00    +0.000 A 
ATOM     11  C   UNL     1       7.332   6.015  16.569  0.00  0.00    +0.000 A 
ATOM     12  C   UNL     1       6.544   5.009  15.986  0.00  0.00    +0.000 A 
ATOM     13  C   UNL     1       5.620   4.347  16.817  0.00  0.00    +0.000 A 
BRANCH  12  14
ATOM     14  C   UNL     1       6.660   4.699  14.541  0.00  0.00    +0.000 A 
ATOM     15  C   UNL     1       5.857   3.716  13.933  0.00  0.00    +0.000 A 
ATOM     16  C   UNL     1       6.019   3.368  12.590  0.00  0.00    +0.000 A 
ATOM     17  C   UNL     1       6.975   4.015  11.814  0.00  0.00    +0.000 A 
ATOM     18  C   UNL     1       7.766   5.009  12.382  0.00  0.00    +0.000 A 
ATOM     19  C   UNL     1       7.614   5.340  13.730  0.00  0.00    +0.000 A 
ENDBRANCH  12  14
ENDBRANCH   2   8
BRANCH   1  20
ATOM     20  C   UNL     1       2.336   5.365  18.234  0.00  0.00    +0.000 C 
BRANCH  20  21
ATOM     21  C   UNL     1       2.364   6.726  18.949  0.00  0.00    +0.000 C 
BRANCH  21  22
ATOM     22  S   UNL     1       2.552   8.171  17.869  0.00  0.00    +0.000 S 
BRANCH  22  23
ATOM     23  C   UNL     1       1.965   9.456  19.037  0.00  0.00    +0.000 C 
BRANCH  23  24
ATOM     24  C   UNL     1       0.443   9.375  19.184  0.00  0.00    +0.000 C 
BRANCH  24  25
ATOM     25  C   UNL     1      -0.011   9.704  20.598  0.00  0.00    +0.000 A 
ATOM     26  C   UNL     1      -0.645  10.932  20.852  0.00  0.00    +0.000 A 
ATOM     27  C   UNL     1      -1.004  11.293  22.151  0.00  0.00    +0.000 A 
ATOM     28  C   UNL     1      -0.744  10.431  23.212  0.00  0.00    +0.000 A 
ATOM     29  C   UNL     1      -0.148   9.195  22.973  0.00  0.00    +0.000 A 
ATOM     30  C   UNL     1       0.209   8.828  21.673  0.00  0.00    +0.000 A 
ENDBRANCH  24  25
BRANCH  24  32
ATOM     31  O   UNL     1      -1.223   9.973  17.506  0.00  0.00    +0.000 OA
ATOM     32  C   UNL     1      -0.231  10.279  18.154  0.00  0.00    +0.000 C 
BRANCH  32  33
ATOM     33  O   UNL     1       0.369  11.484  18.000  0.00  0.00    +0.000 OA
ATOM     34  H   UNL     1       0.414  11.803  17.080  0.00  0.00    +0.000 HD
ENDBRANCH  32  33
ENDBRANCH  24  32
ENDBRANCH  23  24
ENDBRANCH  22  23
ENDBRANCH  21  22
ENDBRANCH  20  21
ENDBRANCH   1  20
TORSDOF 10
ENDMDL
MODEL 3
REMARK VINA RESULT:      -8.5      1.588      2.435
REMARK  Name = 
REMARK  10 active torsions:
REMARK  status: ('A' for Active; 'I' for Inactive)
REMARK    1  A    between atoms: C_2  and  O_3
REMARK    2  A    between atoms: C_2  and  C_4
REMARK    3  A    between atoms: C_4  and  C_5
REMARK    4  A    between atoms: C_4  and  C_27
REMARK    5  A    between atoms: C_5  and  S_6
REMARK    6  A    between atoms: S_6  and  C_7
REMARK    7  A    between atoms: C_7  and  C_8
REMARK    8  A    between atoms: C_8  and  N_9
REMARK    9  A    between atoms: C_10  and  C_11
REMARK   10  A    between atoms: C_15  and  C_16
REMARK                            x       y       z     vdW  Elec       q    Type
REMARK                         _______ _______ _______ _____ _____    ______ ____
ROOT
ATOM      1  N   UNL     1       3.583   4.201  19.828  0.00  0.00    +0.000 N 
ATOM      2  C   UNL     1       4.746   3.731  19.263  0.00  0.00    +0.000 A 
ATOM      3  N   UNL     1       4.985   2.472  19.528  0.00  0.00    +0.000 NA
ATOM      4  N   UNL     1       3.944   2.076  20.307  0.00  0.00    +0.000 N 
ATOM      5  C   UNL     1       3.094   3.135  20.559  0.00  0.00    +0.000 A 
ATOM      6  S   UNL     1       1.814   3.025  21.612  0.00  0.00    +0.000 S 
ATOM      7  H   UNL     1       3.885   1.147  20.707  0.00  0.00    +0.000 HD
ENDROOT
BRANCH   2   8
ATOM      8  C   UNL     1       5.714   4.543  18.476  0.00  0.00    +0.000 A 
ATOM      9  C   UNL     1       6.429   5.625  18.981  0.00  0.00    +0.000 A 
ATOM     10  C   UNL     1       7.295   6.356  18.175  0.00  0.00    +0.000 A 
ATOM     11  C   UNL     1       7.425   6.033  16.831  0.00  0.00    +0.000 A 
ATOM     12  C   UNL     1       6.708   4.968  16.263  0.00  0.00    +0.000 A 
ATOM     13  C   UNL     1       5.872   4.222  17.116  0.00  0.00    +0.000 A 
BRANCH  12  14
ATOM     14  C   UNL     1       6.803   4.680  14.812  0.00  0.00    +0.000 A 
ATOM     15  C   UNL     1       7.696   5.381  13.980  0.00  0.00    +0.000 A 
ATOM     16  C   UNL     1       7.732   5.166  12.600  0.00  0.00    +0.000 A 
ATOM     17  C   UNL     1       6.890   4.222  12.022  0.00  0.00    +0.000 A 
ATOM     18  C   UNL     1       6.014   3.495  12.823  0.00  0.00    +0.000 A 
ATOM     19  C   UNL     1       5.968   3.728  14.200  0.00  0.00    +0.000 A 
ENDBRANCH  12  14
ENDBRANCH   2   8
BRANCH   1  20
ATOM     20  C   UNL     1       2.994   5.542  19.797  0.00  0.00    +0.000 C 
BRANCH  20  21
ATOM     21  C   UNL     1       2.325   5.904  18.462  0.00  0.00    +0.000 C 
BRANCH  21  22
ATOM     22  S   UNL     1       2.528   7.625  17.929  0.00  0.00    +0.000 S 
BRANCH  22  23
ATOM     23  C   UNL     1       2.088   8.448  19.508  0.00  0.00    +0.000 C 
BRANCH  23  24
ATOM     24  C   UNL     1       0.756   9.187  19.359  0.00  0.00    +0.000 C 
BRANCH  24  25
ATOM     25  C   UNL     1       0.232   9.694  20.695  0.00  0.00    +0.000 A 
ATOM     26  C   UNL     1      -0.060   8.774  21.716  0.00  0.00    +0.000 A 
ATOM     27  C   UNL     1      -0.613   9.202  22.923  0.00  0.00    +0.000 A 
ATOM     28  C   UNL     1      -0.873  10.554  23.132  0.00  0.00    +0.000 A 
ATOM     29  C   UNL     1      -0.556  11.483  22.143  0.00  0.00    +0.000 A 
ATOM     30  C   UNL     1       0.001  11.058  20.934  0.00  0.00    +0.000 A 
ENDBRANCH  24  25
BRANCH  24  32
ATOM     31  O   UNL     1       1.915  10.984  18.185  0.00  0.00    +0.000 OA
ATOM     32  C   UNL     1       0.898  10.323  18.347  0.00  0.00    +0.000 C 
BRANCH  32  33
ATOM     33  O   UNL     1      -0.220  10.556  17.618  0.00  0.00    +0.000 OA
ATOM     34  H   UNL     1      -0.474  11.495  17.550  0.00  0.00    +0.000 HD
ENDBRANCH  32  33
ENDBRANCH  24  32
ENDBRANCH  23  24
ENDBRANCH  22  23
ENDBRANCH  21  22
ENDBRANCH  20  21
ENDBRANCH   1  20
TORSDOF 10
ENDMDL
MODEL 4
REMARK VINA RESULT:      -8.4      2.900      8.902
REMARK  Name = 
REMARK  10 active torsions:
REMARK  status: ('A' for Active; 'I' for Inactive)
REMARK    1  A    between atoms: C_2  and  O_3
REMARK    2  A    between atoms: C_2  and  C_4
REMARK    3  A    between atoms: C_4  and  C_5
REMARK    4  A    between atoms: C_4  and  C_27
REMARK    5  A    between atoms: C_5  and  S_6
REMARK    6  A    between atoms: S_6  and  C_7
REMARK    7  A    between atoms: C_7  and  C_8
REMARK    8  A    between atoms: C_8  and  N_9
REMARK    9  A    between atoms: C_10  and  C_11
REMARK   10  A    between atoms: C_15  and  C_16
REMARK                            x       y       z     vdW  Elec       q    Type
REMARK                         _______ _______ _______ _____ _____    ______ ____
ROOT
ATOM      1  N   UNL     1       3.680   4.468  19.622  0.00  0.00    +0.000 N 
ATOM      2  C   UNL     1       2.601   5.204  20.053  0.00  0.00    +0.000 A 
ATOM      3  N   UNL     1       1.843   4.568  20.910  0.00  0.00    +0.000 NA
ATOM      4  N   UNL     1       2.429   3.352  21.059  0.00  0.00    +0.000 N 
ATOM      5  C   UNL     1       3.530   3.237  20.232  0.00  0.00    +0.000 A 
ATOM      6  S   UNL     1       4.373   1.817  20.054  0.00  0.00    +0.000 S 
ATOM      7  H   UNL     1       2.029   2.620  21.635  0.00  0.00    +0.000 HD
ENDROOT
BRANCH   2   8
ATOM      8  C   UNL     1       2.241   6.569  19.580  0.00  0.00    +0.000 A 
ATOM      9  C   UNL     1       2.691   7.134  18.391  0.00  0.00    +0.000 A 
ATOM     10  C   UNL     1       2.335   8.428  18.027  0.00  0.00    +0.000 A 
ATOM     11  C   UNL     1       1.549   9.193  18.880  0.00  0.00    +0.000 A 
ATOM     12  C   UNL     1       1.089   8.681  20.104  0.00  0.00    +0.000 A 
ATOM     13  C   UNL     1       1.433   7.353  20.422  0.00  0.00    +0.000 A 
BRANCH  12  14
ATOM     14  C   UNL     1       0.311   9.533  21.035  0.00  0.00    +0.000 A 
ATOM     15  C   UNL     1      -0.321  10.713  20.599  0.00  0.00    +0.000 A 
ATOM     16  C   UNL     1      -0.988  11.557  21.490  0.00  0.00    +0.000 A 
ATOM     17  C   UNL     1      -1.062  11.225  22.839  0.00  0.00    +0.000 A 
ATOM     18  C   UNL     1      -0.469  10.051  23.294  0.00  0.00    +0.000 A 
ATOM     19  C   UNL     1       0.215   9.221  22.403  0.00  0.00    +0.000 A 
ENDBRANCH  12  14
ENDBRANCH   2   8
BRANCH   1  20
ATOM     20  C   UNL     1       4.725   4.805  18.652  0.00  0.00    +0.000 C 
BRANCH  20  21
ATOM     21  C   UNL     1       5.995   5.404  19.277  0.00  0.00    +0.000 C 
BRANCH  21  22
ATOM     22  S   UNL     1       7.553   4.936  18.478  0.00  0.00    +0.000 S 
BRANCH  22  23
ATOM     23  C   UNL     1       6.873   4.378  16.870  0.00  0.00    +0.000 C 
BRANCH  23  24
ATOM     24  C   UNL     1       7.139   5.433  15.794  0.00  0.00    +0.000 C 
BRANCH  24  25
ATOM     25  C   UNL     1       6.936   4.881  14.390  0.00  0.00    +0.000 A 
ATOM     26  C   UNL     1       5.978   3.876  14.176  0.00  0.00    +0.000 A 
ATOM     27  C   UNL     1       5.824   3.297  12.916  0.00  0.00    +0.000 A 
ATOM     28  C   UNL     1       6.615   3.720  11.851  0.00  0.00    +0.000 A 
ATOM     29  C   UNL     1       7.545   4.740  12.039  0.00  0.00    +0.000 A 
ATOM     30  C   UNL     1       7.700   5.324  13.299  0.00  0.00    +0.000 A 
ENDBRANCH  24  25
BRANCH  24  32
ATOM     31  O   UNL     1       5.112   6.784  15.663  0.00  0.00    +0.000 OA
ATOM     32  C   UNL     1       6.270   6.665  16.042  0.00  0.00    +0.000 C 
BRANCH  32  33
ATOM     33  O   UNL     1       6.893   7.650  16.732  0.00  0.00    +0.000 OA
ATOM     34  H   UNL     1       6.303   8.206  17.273  0.00  0.00    +0.000 HD
ENDBRANCH  32  33
ENDBRANCH  24  32
ENDBRANCH  23  24
ENDBRANCH  22  23
ENDBRANCH  21  22
ENDBRANCH  20  21
ENDBRANCH   1  20
TORSDOF 10
ENDMDL
MODEL 5
REMARK VINA RESULT:      -8.3      1.111      1.573
REMARK  Name = 
REMARK  10 active torsions:
REMARK  status: ('A' for Active; 'I' for Inactive)
REMARK    1  A    between atoms: C_2  and  O_3
REMARK    2  A    between atoms: C_2  and  C_4
REMARK    3  A    between atoms: C_4  and  C_5
REMARK    4  A    between atoms: C_4  and  C_27
REMARK    5  A    between atoms: C_5  and  S_6
REMARK    6  A    between atoms: S_6  and  C_7
REMARK    7  A    between atoms: C_7  and  C_8
REMARK    8  A    between atoms: C_8  and  N_9
REMARK    9  A    between atoms: C_10  and  C_11
REMARK   10  A    between atoms: C_15  and  C_16
REMARK                            x       y       z     vdW  Elec       q    Type
REMARK                         _______ _______ _______ _____ _____    ______ ____
ROOT
ATOM      1  N   UNL     1       3.214   4.171  19.118  0.00  0.00    +0.000 N 
ATOM      2  C   UNL     1       4.553   3.858  19.066  0.00  0.00    +0.000 A 
ATOM      3  N   UNL     1       4.883   2.845  19.826  0.00  0.00    +0.000 NA
ATOM      4  N   UNL     1       3.722   2.462  20.420  0.00  0.00    +0.000 N 
ATOM      5  C   UNL     1       2.687   3.298  20.050  0.00  0.00    +0.000 A 
ATOM      6  S   UNL     1       1.172   3.202  20.726  0.00  0.00    +0.000 S 
ATOM      7  H   UNL     1       3.681   1.719  21.109  0.00  0.00    +0.000 HD
ENDROOT
BRANCH   2   8
ATOM      8  C   UNL     1       5.585   4.601  18.293  0.00  0.00    +0.000 A 
ATOM      9  C   UNL     1       6.357   5.639  18.806  0.00  0.00    +0.000 A 
ATOM     10  C   UNL     1       7.284   6.308  18.014  0.00  0.00    +0.000 A 
ATOM     11  C   UNL     1       7.420   5.968  16.674  0.00  0.00    +0.000 A 
ATOM     12  C   UNL     1       6.648   4.946  16.098  0.00  0.00    +0.000 A 
ATOM     13  C   UNL     1       5.749   4.261  16.938  0.00  0.00    +0.000 A 
BRANCH  12  14
ATOM     14  C   UNL     1       6.753   4.643  14.650  0.00  0.00    +0.000 A 
ATOM     15  C   UNL     1       7.676   5.310  13.824  0.00  0.00    +0.000 A 
ATOM     16  C   UNL     1       7.723   5.081  12.447  0.00  0.00    +0.000 A 
ATOM     17  C   UNL     1       6.861   4.158  11.866  0.00  0.00    +0.000 A 
ATOM     18  C   UNL     1       5.954   3.464  12.662  0.00  0.00    +0.000 A 
ATOM     19  C   UNL     1       5.898   3.710  14.036  0.00  0.00    +0.000 A 
ENDBRANCH  12  14
ENDBRANCH   2   8
BRANCH   1  20
ATOM     20  C   UNL     1       2.470   5.243  18.453  0.00  0.00    +0.000 C 
BRANCH  20  21
ATOM     21  C   UNL     1       2.907   6.659  18.862  0.00  0.00    +0.000 C 
BRANCH  21  22
ATOM     22  S   UNL     1       1.943   7.417  20.198  0.00  0.00    +0.000 S 
BRANCH  22  23
ATOM     23  C   UNL     1       1.351   8.898  19.294  0.00  0.00    +0.000 C 
BRANCH  23  24
ATOM     24  C   UNL     1       0.813   9.935  20.283  0.00  0.00    +0.000 C 
BRANCH  24  25
ATOM     25  C   UNL     1      -0.431  10.635  19.756  0.00  0.00    +0.000 A 
ATOM     26  C   UNL     1      -0.997  11.687  20.493  0.00  0.00    +0.000 A 
ATOM     27  C   UNL     1      -2.180  12.296  20.074  0.00  0.00    +0.000 A 
ATOM     28  C   UNL     1      -2.809  11.870  18.907  0.00  0.00    +0.000 A 
ATOM     29  C   UNL     1      -2.242  10.851  18.145  0.00  0.00    +0.000 A 
ATOM     30  C   UNL     1      -1.056  10.241  18.561  0.00  0.00    +0.000 A 
ENDBRANCH  24  25
BRANCH  24  32
ATOM     31  O   UNL     1       1.246   9.450  22.634  0.00  0.00    +0.000 OA
ATOM     32  C   UNL     1       0.554   9.280  21.639  0.00  0.00    +0.000 C 
BRANCH  32  33
ATOM     33  O   UNL     1      -0.530   8.468  21.662  0.00  0.00    +0.000 OA
ATOM     34  H   UNL     1      -1.364   8.892  21.389  0.00  0.00    +0.000 HD
ENDBRANCH  32  33
ENDBRANCH  24  32
ENDBRANCH  23  24
ENDBRANCH  22  23
ENDBRANCH  21  22
ENDBRANCH  20  21
ENDBRANCH   1  20
TORSDOF 10
ENDMDL
MODEL 6
REMARK VINA RESULT:      -8.2      1.125      1.531
REMARK  Name = 
REMARK  10 active torsions:
REMARK  status: ('A' for Active; 'I' for Inactive)
REMARK    1  A    between atoms: C_2  and  O_3
REMARK    2  A    between atoms: C_2  and  C_4
REMARK    3  A    between atoms: C_4  and  C_5
REMARK    4  A    between atoms: C_4  and  C_27
REMARK    5  A    between atoms: C_5  and  S_6
REMARK    6  A    between atoms: S_6  and  C_7
REMARK    7  A    between atoms: C_7  and  C_8
REMARK    8  A    between atoms: C_8  and  N_9
REMARK    9  A    between atoms: C_10  and  C_11
REMARK   10  A    between atoms: C_15  and  C_16
REMARK                            x       y       z     vdW  Elec       q    Type
REMARK                         _______ _______ _______ _____ _____    ______ ____
ROOT
ATOM      1  N   UNL     1       3.352   4.109  19.402  0.00  0.00    +0.000 N 
ATOM      2  C   UNL     1       4.669   3.769  19.196  0.00  0.00    +0.000 A 
ATOM      3  N   UNL     1       5.033   2.681  19.826  0.00  0.00    +0.000 NA
ATOM      4  N   UNL     1       3.920   2.272  20.489  0.00  0.00    +0.000 N 
ATOM      5  C   UNL     1       2.883   3.165  20.296  0.00  0.00    +0.000 A 
ATOM      6  S   UNL     1       1.434   3.042  21.099  0.00  0.00    +0.000 S 
ATOM      7  H   UNL     1       3.917   1.469  21.107  0.00  0.00    +0.000 HD
ENDROOT
BRANCH   2   8
ATOM      8  C   UNL     1       5.651   4.557  18.401  0.00  0.00    +0.000 A 
ATOM      9  C   UNL     1       6.420   5.598  18.909  0.00  0.00    +0.000 A 
ATOM     10  C   UNL     1       7.297   6.310  18.098  0.00  0.00    +0.000 A 
ATOM     11  C   UNL     1       7.383   6.009  16.745  0.00  0.00    +0.000 A 
ATOM     12  C   UNL     1       6.610   4.985  16.174  0.00  0.00    +0.000 A 
ATOM     13  C   UNL     1       5.764   4.257  17.032  0.00  0.00    +0.000 A 
BRANCH  12  14
ATOM     14  C   UNL     1       6.660   4.722  14.715  0.00  0.00    +0.000 A 
ATOM     15  C   UNL     1       5.758   3.837  14.096  0.00  0.00    +0.000 A 
ATOM     16  C   UNL     1       5.853   3.528  12.737  0.00  0.00    +0.000 A 
ATOM     17  C   UNL     1       6.841   4.120  11.958  0.00  0.00    +0.000 A 
ATOM     18  C   UNL     1       7.731   5.019  12.537  0.00  0.00    +0.000 A 
ATOM     19  C   UNL     1       7.645   5.310  13.901  0.00  0.00    +0.000 A 
ENDBRANCH  12  14
ENDBRANCH   2   8
BRANCH   1  20
ATOM     20  C   UNL     1       2.586   5.257  18.912  0.00  0.00    +0.000 C 
BRANCH  20  21
ATOM     21  C   UNL     1       2.894   6.575  19.640  0.00  0.00    +0.000 C 
BRANCH  21  22
ATOM     22  S   UNL     1       1.493   7.332  20.509  0.00  0.00    +0.000 S 
BRANCH  22  23
ATOM     23  C   UNL     1       1.403   8.897  19.559  0.00  0.00    +0.000 C 
BRANCH  23  24
ATOM     24  C   UNL     1       0.781   9.998  20.422  0.00  0.00    +0.000 C 
BRANCH  24  25
ATOM     25  C   UNL     1      -0.463  10.593  19.777  0.00  0.00    +0.000 A 
ATOM     26  C   UNL     1      -0.884  10.121  18.524  0.00  0.00    +0.000 A 
ATOM     27  C   UNL     1      -1.975  10.701  17.875  0.00  0.00    +0.000 A 
ATOM     28  C   UNL     1      -2.666  11.751  18.472  0.00  0.00    +0.000 A 
ATOM     29  C   UNL     1      -2.282  12.208  19.731  0.00  0.00    +0.000 A 
ATOM     30  C   UNL     1      -1.192  11.628  20.385  0.00  0.00    +0.000 A 
ENDBRANCH  24  25
BRANCH  24  32
ATOM     31  O   UNL     1      -0.541   8.869  22.133  0.00  0.00    +0.000 OA
ATOM     32  C   UNL     1       0.484   9.461  21.821  0.00  0.00    +0.000 C 
BRANCH  32  33
ATOM     33  O   UNL     1       1.466   9.697  22.723  0.00  0.00    +0.000 OA
ATOM     34  H   UNL     1       1.599   8.987  23.378  0.00  0.00    +0.000 HD
ENDBRANCH  32  33
ENDBRANCH  24  32
ENDBRANCH  23  24
ENDBRANCH  22  23
ENDBRANCH  21  22
ENDBRANCH  20  21
ENDBRANCH   1  20
TORSDOF 10
ENDMDL
MODEL 7
REMARK VINA RESULT:      -8.2      2.906      8.846
REMARK  Name = 
REMARK  10 active torsions:
REMARK  status: ('A' for Active; 'I' for Inactive)
REMARK    1  A    between atoms: C_2  and  O_3
REMARK    2  A    between atoms: C_2  and  C_4
REMARK    3  A    between atoms: C_4  and  C_5
REMARK    4  A    between atoms: C_4  and  C_27
REMARK    5  A    between atoms: C_5  and  S_6
REMARK    6  A    between atoms: S_6  and  C_7
REMARK    7  A    between atoms: C_7  and  C_8
REMARK    8  A    between atoms: C_8  and  N_9
REMARK    9  A    between atoms: C_10  and  C_11
REMARK   10  A    between atoms: C_15  and  C_16
REMARK                            x       y       z     vdW  Elec       q    Type
REMARK                         _______ _______ _______ _____ _____    ______ ____
ROOT
ATOM      1  N   UNL     1       3.738   4.365  19.642  0.00  0.00    +0.000 N 
ATOM      2  C   UNL     1       2.640   5.099  20.027  0.00  0.00    +0.000 A 
ATOM      3  N   UNL     1       1.841   4.456  20.841  0.00  0.00    +0.000 NA
ATOM      4  N   UNL     1       2.418   3.238  21.008  0.00  0.00    +0.000 N 
ATOM      5  C   UNL     1       3.558   3.129  20.234  0.00  0.00    +0.000 A 
ATOM      6  S   UNL     1       4.407   1.709  20.085  0.00  0.00    +0.000 S 
ATOM      7  H   UNL     1       1.990   2.502  21.558  0.00  0.00    +0.000 HD
ENDROOT
BRANCH   2   8
ATOM      8  C   UNL     1       2.304   6.468  19.549  0.00  0.00    +0.000 A 
ATOM      9  C   UNL     1       2.761   7.019  18.356  0.00  0.00    +0.000 A 
ATOM     10  C   UNL     1       2.429   8.318  17.988  0.00  0.00    +0.000 A 
ATOM     11  C   UNL     1       1.660   9.101  18.839  0.00  0.00    +0.000 A 
ATOM     12  C   UNL     1       1.193   8.604  20.067  0.00  0.00    +0.000 A 
ATOM     13  C   UNL     1       1.513   7.271  20.390  0.00  0.00    +0.000 A 
BRANCH  12  14
ATOM     14  C   UNL     1       0.433   9.474  20.996  0.00  0.00    +0.000 A 
ATOM     15  C   UNL     1      -0.155  10.676  20.562  0.00  0.00    +0.000 A 
ATOM     16  C   UNL     1      -0.803  11.535  21.453  0.00  0.00    +0.000 A 
ATOM     17  C   UNL     1      -0.901  11.198  22.798  0.00  0.00    +0.000 A 
ATOM     18  C   UNL     1      -0.352  10.002  23.251  0.00  0.00    +0.000 A 
ATOM     19  C   UNL     1       0.313   9.156  22.361  0.00  0.00    +0.000 A 
ENDBRANCH  12  14
ENDBRANCH   2   8
BRANCH   1  20
ATOM     20  C   UNL     1       4.828   4.709  18.727  0.00  0.00    +0.000 C 
BRANCH  20  21
ATOM     21  C   UNL     1       6.039   5.366  19.409  0.00  0.00    +0.000 C 
BRANCH  21  22
ATOM     22  S   UNL     1       7.636   5.096  18.594  0.00  0.00    +0.000 S 
BRANCH  22  23
ATOM     23  C   UNL     1       7.015   4.420  17.007  0.00  0.00    +0.000 C 
BRANCH  23  24
ATOM     24  C   UNL     1       7.263   5.423  15.878  0.00  0.00    +0.000 C 
BRANCH  24  25
ATOM     25  C   UNL     1       7.008   4.814  14.507  0.00  0.00    +0.000 A 
ATOM     26  C   UNL     1       7.757   5.256  13.405  0.00  0.00    +0.000 A 
ATOM     27  C   UNL     1       7.493   4.771  12.124  0.00  0.00    +0.000 A 
ATOM     28  C   UNL     1       6.485   3.831  11.927  0.00  0.00    +0.000 A 
ATOM     29  C   UNL     1       5.756   3.356  13.015  0.00  0.00    +0.000 A 
ATOM     30  C   UNL     1       6.020   3.838  14.299  0.00  0.00    +0.000 A 
ENDBRANCH  24  25
BRANCH  24  32
ATOM     31  O   UNL     1       6.804   7.676  16.694  0.00  0.00    +0.000 OA
ATOM     32  C   UNL     1       6.419   6.678  16.099  0.00  0.00    +0.000 C 
BRANCH  32  33
ATOM     33  O   UNL     1       5.172   6.604  15.574  0.00  0.00    +0.000 OA
ATOM     34  H   UNL     1       5.136   6.295  14.650  0.00  0.00    +0.000 HD
ENDBRANCH  32  33
ENDBRANCH  24  32
ENDBRANCH  23  24
ENDBRANCH  22  23
ENDBRANCH  21  22
ENDBRANCH  20  21
ENDBRANCH   1  20
TORSDOF 10
ENDMDL
MODEL 8
REMARK VINA RESULT:      -8.2      1.286      1.850
REMARK  Name = 
REMARK  10 active torsions:
REMARK  status: ('A' for Active; 'I' for Inactive)
REMARK    1  A    between atoms: C_2  and  O_3
REMARK    2  A    between atoms: C_2  and  C_4
REMARK    3  A    between atoms: C_4  and  C_5
REMARK    4  A    between atoms: C_4  and  C_27
REMARK    5  A    between atoms: C_5  and  S_6
REMARK    6  A    between atoms: S_6  and  C_7
REMARK    7  A    between atoms: C_7  and  C_8
REMARK    8  A    between atoms: C_8  and  N_9
REMARK    9  A    between atoms: C_10  and  C_11
REMARK   10  A    between atoms: C_15  and  C_16
REMARK                            x       y       z     vdW  Elec       q    Type
REMARK                         _______ _______ _______ _____ _____    ______ ____
ROOT
ATOM      1  N   UNL     1       3.177   4.049  18.934  0.00  0.00    +0.000 N 
ATOM      2  C   UNL     1       4.529   3.802  19.000  0.00  0.00    +0.000 A 
ATOM      3  N   UNL     1       4.847   2.859  19.851  0.00  0.00    +0.000 NA
ATOM      4  N   UNL     1       3.664   2.457  20.385  0.00  0.00    +0.000 N 
ATOM      5  C   UNL     1       2.622   3.213  19.884  0.00  0.00    +0.000 A 
ATOM      6  S   UNL     1       1.067   3.084  20.454  0.00  0.00    +0.000 S 
ATOM      7  H   UNL     1       3.606   1.760  21.118  0.00  0.00    +0.000 HD
ENDROOT
BRANCH   2   8
ATOM      8  C   UNL     1       5.582   4.545  18.254  0.00  0.00    +0.000 A 
ATOM      9  C   UNL     1       6.391   5.532  18.808  0.00  0.00    +0.000 A 
ATOM     10  C   UNL     1       7.335   6.205  18.040  0.00  0.00    +0.000 A 
ATOM     11  C   UNL     1       7.451   5.922  16.686  0.00  0.00    +0.000 A 
ATOM     12  C   UNL     1       6.642   4.954  16.069  0.00  0.00    +0.000 A 
ATOM     13  C   UNL     1       5.726   4.261  16.885  0.00  0.00    +0.000 A 
BRANCH  12  14
ATOM     14  C   UNL     1       6.728   4.712  14.609  0.00  0.00    +0.000 A 
ATOM     15  C   UNL     1       5.912   3.760  13.972  0.00  0.00    +0.000 A 
ATOM     16  C   UNL     1       6.046   3.476  12.610  0.00  0.00    +0.000 A 
ATOM     17  C   UNL     1       6.987   4.159  11.848  0.00  0.00    +0.000 A 
ATOM     18  C   UNL     1       7.791   5.125  12.446  0.00  0.00    +0.000 A 
ATOM     19  C   UNL     1       7.667   5.392  13.811  0.00  0.00    +0.000 A 
ENDBRANCH  12  14
ENDBRANCH   2   8
BRANCH   1  20
ATOM     20  C   UNL     1       2.437   5.036  18.145  0.00  0.00    +0.000 C 
BRANCH  20  21
ATOM     21  C   UNL     1       2.792   6.496  18.471  0.00  0.00    +0.000 C 
BRANCH  21  22
ATOM     22  S   UNL     1       2.208   7.101  20.077  0.00  0.00    +0.000 S 
BRANCH  22  23
ATOM     23  C   UNL     1       1.152   8.475  19.478  0.00  0.00    +0.000 C 
BRANCH  23  24
ATOM     24  C   UNL     1       1.217   9.650  20.457  0.00  0.00    +0.000 C 
BRANCH  24  25
ATOM     25  C   UNL     1       0.540  10.894  19.900  0.00  0.00    +0.000 A 
ATOM     26  C   UNL     1      -0.627  10.760  19.130  0.00  0.00    +0.000 A 
ATOM     27  C   UNL     1      -1.225  11.875  18.543  0.00  0.00    +0.000 A 
ATOM     28  C   UNL     1      -0.673  13.140  18.725  0.00  0.00    +0.000 A 
ATOM     29  C   UNL     1       0.464  13.295  19.514  0.00  0.00    +0.000 A 
ATOM     30  C   UNL     1       1.063  12.181  20.106  0.00  0.00    +0.000 A 
ENDBRANCH  24  25
BRANCH  24  32
ATOM     31  O   UNL     1       1.121   9.501  22.890  0.00  0.00    +0.000 OA
ATOM     32  C   UNL     1       0.620   9.243  21.803  0.00  0.00    +0.000 C 
BRANCH  32  33
ATOM     33  O   UNL     1      -0.540   8.551  21.706  0.00  0.00    +0.000 OA
ATOM     34  H   UNL     1      -0.617   7.795  22.317  0.00  0.00    +0.000 HD
ENDBRANCH  32  33
ENDBRANCH  24  32
ENDBRANCH  23  24
ENDBRANCH  22  23
ENDBRANCH  21  22
ENDBRANCH  20  21
ENDBRANCH   1  20
TORSDOF 10
ENDMDL
MODEL 9
REMARK VINA RESULT:      -8.2      1.296      2.042
REMARK  Name = 
REMARK  10 active torsions:
REMARK  status: ('A' for Active; 'I' for Inactive)
REMARK    1  A    between atoms: C_2  and  O_3
REMARK    2  A    between atoms: C_2  and  C_4
REMARK    3  A    between atoms: C_4  and  C_5
REMARK    4  A    between atoms: C_4  and  C_27
REMARK    5  A    between atoms: C_5  and  S_6
REMARK    6  A    between atoms: S_6  and  C_7
REMARK    7  A    between atoms: C_7  and  C_8
REMARK    8  A    between atoms: C_8  and  N_9
REMARK    9  A    between atoms: C_10  and  C_11
REMARK   10  A    between atoms: C_15  and  C_16
REMARK                            x       y       z     vdW  Elec       q    Type
REMARK                         _______ _______ _______ _____ _____    ______ ____
ROOT
ATOM      1  N   UNL     1       2.871   4.309  18.907  0.00  0.00    +0.000 N 
ATOM      2  C   UNL     1       4.103   3.773  18.610  0.00  0.00    +0.000 A 
ATOM      3  N   UNL     1       4.239   2.531  18.998  0.00  0.00    +0.000 NA
ATOM      4  N   UNL     1       3.055   2.216  19.586  0.00  0.00    +0.000 N 
ATOM      5  C   UNL     1       2.213   3.311  19.600  0.00  0.00    +0.000 A 
ATOM      6  S   UNL     1       0.752   3.307  20.390  0.00  0.00    +0.000 S 
ATOM      7  H   UNL     1       2.886   1.320  20.028  0.00  0.00    +0.000 HD
ENDROOT
BRANCH   2   8
ATOM      8  C   UNL     1       5.232   4.502  17.972  0.00  0.00    +0.000 A 
ATOM      9  C   UNL     1       5.992   5.483  18.602  0.00  0.00    +0.000 A 
ATOM     10  C   UNL     1       7.016   6.144  17.931  0.00  0.00    +0.000 A 
ATOM     11  C   UNL     1       7.264   5.856  16.596  0.00  0.00    +0.000 A 
ATOM     12  C   UNL     1       6.511   4.894  15.904  0.00  0.00    +0.000 A 
ATOM     13  C   UNL     1       5.511   4.213  16.624  0.00  0.00    +0.000 A 
BRANCH  12  14
ATOM     14  C   UNL     1       6.741   4.647  14.460  0.00  0.00    +0.000 A 
ATOM     15  C   UNL     1       7.711   5.367  13.737  0.00  0.00    +0.000 A 
ATOM     16  C   UNL     1       7.875   5.191  12.361  0.00  0.00    +0.000 A 
ATOM     17  C   UNL     1       7.088   4.270  11.678  0.00  0.00    +0.000 A 
ATOM     18  C   UNL     1       6.139   3.526  12.372  0.00  0.00    +0.000 A 
ATOM     19  C   UNL     1       5.964   3.719  13.745  0.00  0.00    +0.000 A 
ENDBRANCH  12  14
ENDBRANCH   2   8
BRANCH   1  20
ATOM     20  C   UNL     1       2.349   5.658  18.676  0.00  0.00    +0.000 C 
BRANCH  20  21
ATOM     21  C   UNL     1       2.281   6.532  19.939  0.00  0.00    +0.000 C 
BRANCH  21  22
ATOM     22  S   UNL     1       1.787   8.255  19.670  0.00  0.00    +0.000 S 
BRANCH  22  23
ATOM     23  C   UNL     1       0.747   8.472  21.164  0.00  0.00    +0.000 C 
BRANCH  23  24
ATOM     24  C   UNL     1       0.613   9.960  21.497  0.00  0.00    +0.000 C 
BRANCH  24  25
ATOM     25  C   UNL     1       0.093  10.765  20.315  0.00  0.00    +0.000 A 
ATOM     26  C   UNL     1      -1.050  10.325  19.629  0.00  0.00    +0.000 A 
ATOM     27  C   UNL     1      -1.505  10.999  18.496  0.00  0.00    +0.000 A 
ATOM     28  C   UNL     1      -0.830  12.128  18.038  0.00  0.00    +0.000 A 
ATOM     29  C   UNL     1       0.285  12.598  18.727  0.00  0.00    +0.000 A 
ATOM     30  C   UNL     1       0.741  11.926  19.864  0.00  0.00    +0.000 A 
ENDBRANCH  24  25
BRANCH  24  32
ATOM     31  O   UNL     1      -0.530  11.222  23.244  0.00  0.00    +0.000 OA
ATOM     32  C   UNL     1      -0.271  10.142  22.731  0.00  0.00    +0.000 C 
BRANCH  32  33
ATOM     33  O   UNL     1      -0.761   8.984  23.234  0.00  0.00    +0.000 OA
ATOM     34  H   UNL     1      -1.301   9.085  24.040  0.00  0.00    +0.000 HD
ENDBRANCH  32  33
ENDBRANCH  24  32
ENDBRANCH  23  24
ENDBRANCH  22  23
ENDBRANCH  21  22
ENDBRANCH  20  21
ENDBRANCH   1  20
TORSDOF 10
ENDMDL
