MODEL 1
REMARK VINA RESULT:      -7.3      0.000      0.000
REMARK  Name = 
REMARK  4 active torsions:
REMARK  status: ('A' for Active; 'I' for Inactive)
REMARK    1  A    between atoms: N_2  and  C_4
REMARK    2  A    between atoms: C_9  and  C_10
REMARK    3  A    between atoms: C_10  and  O_11
REMARK    4  A    between atoms: O_11  and  C_12
REMARK                            x       y       z     vdW  Elec       q    Type
REMARK                         _______ _______ _______ _____ _____    ______ ____
ROOT
ATOM      1  C   UNL     1       2.609   3.808  20.154  0.00  0.00    +0.000 A 
ATOM      2  C   UNL     1       1.973   4.835  19.433  0.00  0.00    +0.000 A 
ATOM      3  C   UNL     1       2.645   5.521  18.414  0.00  0.00    +0.000 A 
ATOM      4  C   UNL     1       3.963   5.129  18.162  0.00  0.00    +0.000 A 
ATOM      5  N   UNL     1       4.906   5.574  17.269  0.00  0.00    +0.000 N 
ATOM      6  C   UNL     1       6.044   4.821  17.430  0.00  0.00    +0.000 A 
ATOM      7  N   UNL     1       5.876   3.929  18.386  0.00  0.00    +0.000 NA
ATOM      8  C   UNL     1       4.604   4.113  18.856  0.00  0.00    +0.000 A 
ATOM      9  C   UNL     1       3.931   3.428  19.876  0.00  0.00    +0.000 A 
ATOM     10  H   UNL     1       4.783   6.319  16.594  0.00  0.00    +0.000 HD
ENDROOT
BRANCH   1  12
ATOM     11  O   UNL     1       0.687   2.837  21.016  0.00  0.00    +0.000 OA
ATOM     12  N   UNL     1       1.877   3.116  21.223  0.00  0.00    +0.000 N 
ATOM     13  O   UNL     1       2.492   2.848  22.264  0.00  0.00    +0.000 OA
ENDBRANCH   1  12
BRANCH   6  14
ATOM     14  C   UNL     1       7.252   4.989  16.572  0.00  0.00    +0.000 C 
BRANCH  14  15
ATOM     15  O   UNL     1       6.857   5.722  15.413  0.00  0.00    +0.000 OA
BRANCH  15  16
ATOM     16  C   UNL     1       6.687   4.970  14.280  0.00  0.00    +0.000 A 
ATOM     17  C   UNL     1       7.642   5.166  13.280  0.00  0.00    +0.000 A 
ATOM     18  C   UNL     1       7.554   4.473  12.070  0.00  0.00    +0.000 A 
ATOM     19  C   UNL     1       6.521   3.563  11.861  0.00  0.00    +0.000 A 
ATOM     20  C   UNL     1       5.584   3.337  12.867  0.00  0.00    +0.000 A 
ATOM     21  C   UNL     1       5.668   4.035  14.076  0.00  0.00    +0.000 A 
ENDBRANCH  15  16
ENDBRANCH  14  15
ENDBRANCH   6  14
TORSDOF 4
ENDMDL
MODEL 2
REMARK VINA RESULT:      -7.3      2.515      7.167
REMARK  Name = 
REMARK  4 active torsions:
REMARK  status: ('A' for Active; 'I' for Inactive)
REMARK    1  A    between atoms: N_2  and  C_4
REMARK    2  A    between atoms: C_9  and  C_10
REMARK    3  A    between atoms: C_10  and  O_11
REMARK    4  A    between atoms: O_11  and  C_12
REMARK                            x       y       z     vdW  Elec       q    Type
REMARK                         _______ _______ _______ _____ _____    ______ ____
ROOT
ATOM      1  C   UNL     1       6.697   5.037  15.150  0.00  0.00    +0.000 A 
ATOM      2  C   UNL     1       7.423   4.479  16.218  0.00  0.00    +0.000 A 
ATOM      3  C   UNL     1       6.972   4.606  17.538  0.00  0.00    +0.000 A 
ATOM      4  C   UNL     1       5.778   5.308  17.725  0.00  0.00    +0.000 A 
ATOM      5  N   UNL     1       5.061   5.630  18.850  0.00  0.00    +0.000 N 
ATOM      6  C   UNL     1       3.938   6.322  18.463  0.00  0.00    +0.000 A 
ATOM      7  N   UNL     1       3.911   6.465  17.153  0.00  0.00    +0.000 NA
ATOM      8  C   UNL     1       5.043   5.856  16.683  0.00  0.00    +0.000 A 
ATOM      9  C   UNL     1       5.495   5.730  15.363  0.00  0.00    +0.000 A 
ATOM     10  H   UNL     1       5.304   5.388  19.802  0.00  0.00    +0.000 HD
ENDROOT
BRANCH   1  12
ATOM     11  O   UNL     1       6.661   4.049  13.052  0.00  0.00    +0.000 OA
ATOM     12  N   UNL     1       7.204   4.892  13.779  0.00  0.00    +0.000 N 
ATOM     13  O   UNL     1       8.140   5.625  13.430  0.00  0.00    +0.000 OA
ENDBRANCH   1  12
BRANCH   6  14
ATOM     14  C   UNL     1       2.894   6.771  19.429  0.00  0.00    +0.000 C 
BRANCH  14  15
ATOM     15  O   UNL     1       1.712   6.015  19.167  0.00  0.00    +0.000 OA
BRANCH  15  16
ATOM     16  C   UNL     1       1.698   4.753  19.702  0.00  0.00    +0.000 A 
ATOM     17  C   UNL     1       2.053   4.670  21.051  0.00  0.00    +0.000 A 
ATOM     18  C   UNL     1       2.100   3.431  21.696  0.00  0.00    +0.000 A 
ATOM     19  C   UNL     1       1.771   2.270  21.000  0.00  0.00    +0.000 A 
ATOM     20  C   UNL     1       1.382   2.350  19.665  0.00  0.00    +0.000 A 
ATOM     21  C   UNL     1       1.341   3.589  19.017  0.00  0.00    +0.000 A 
ENDBRANCH  15  16
ENDBRANCH  14  15
ENDBRANCH   6  14
TORSDOF 4
ENDMDL
MODEL 3
REMARK VINA RESULT:      -7.3      1.002      1.547
REMARK  Name = 
REMARK  4 active torsions:
REMARK  status: ('A' for Active; 'I' for Inactive)
REMARK    1  A    between atoms: N_2  and  C_4
REMARK    2  A    between atoms: C_9  and  C_10
REMARK    3  A    between atoms: C_10  and  O_11
REMARK    4  A    between atoms: O_11  and  C_12
REMARK                            x       y       z     vdW  Elec       q    Type
REMARK                         _______ _______ _______ _____ _____    ______ ____
ROOT
ATOM      1  C   UNL     1       2.639   3.805  20.686  0.00  0.00    +0.000 A 
ATOM      2  C   UNL     1       2.014   5.060  20.794  0.00  0.00    +0.000 A 
ATOM      3  C   UNL     1       2.296   6.085  19.880  0.00  0.00    +0.000 A 
ATOM      4  C   UNL     1       3.219   5.787  18.874  0.00  0.00    +0.000 A 
ATOM      5  N   UNL     1       3.732   6.530  17.840  0.00  0.00    +0.000 N 
ATOM      6  C   UNL     1       4.601   5.738  17.128  0.00  0.00    +0.000 A 
ATOM      7  N   UNL     1       4.674   4.535  17.663  0.00  0.00    +0.000 NA
ATOM      8  C   UNL     1       3.839   4.551  18.746  0.00  0.00    +0.000 A 
ATOM      9  C   UNL     1       3.557   3.528  19.661  0.00  0.00    +0.000 A 
ATOM     10  H   UNL     1       3.502   7.491  17.625  0.00  0.00    +0.000 HD
ENDROOT
BRANCH   1  12
ATOM     11  O   UNL     1       1.157   2.675  22.067  0.00  0.00    +0.000 OA
ATOM     12  N   UNL     1       2.327   2.757  21.666  0.00  0.00    +0.000 N 
ATOM     13  O   UNL     1       3.249   2.014  22.031  0.00  0.00    +0.000 OA
ENDBRANCH   1  12
BRANCH   6  14
ATOM     14  C   UNL     1       5.291   6.205  15.892  0.00  0.00    +0.000 C 
BRANCH  14  15
ATOM     15  O   UNL     1       6.433   5.372  15.695  0.00  0.00    +0.000 OA
BRANCH  15  16
ATOM     16  C   UNL     1       6.590   4.891  14.421  0.00  0.00    +0.000 A 
ATOM     17  C   UNL     1       5.634   3.959  14.009  0.00  0.00    +0.000 A 
ATOM     18  C   UNL     1       5.709   3.381  12.740  0.00  0.00    +0.000 A 
ATOM     19  C   UNL     1       6.730   3.748  11.866  0.00  0.00    +0.000 A 
ATOM     20  C   UNL     1       7.666   4.702  12.257  0.00  0.00    +0.000 A 
ATOM     21  C   UNL     1       7.595   5.276  13.531  0.00  0.00    +0.000 A 
ENDBRANCH  15  16
ENDBRANCH  14  15
ENDBRANCH   6  14
TORSDOF 4
ENDMDL
MODEL 4
REMARK VINA RESULT:      -7.3      1.002      1.255
REMARK  Name = 
REMARK  4 active torsions:
REMARK  status: ('A' for Active; 'I' for Inactive)
REMARK    1  A    between atoms: N_2  and  C_4
REMARK    2  A    between atoms: C_9  and  C_10
REMARK    3  A    between atoms: C_10  and  O_11
REMARK    4  A    between atoms: O_11  and  C_12
REMARK                            x       y       z     vdW  Elec       q    Type
REMARK                         _______ _______ _______ _____ _____    ______ ____
ROOT
ATOM      1  C   UNL     1       2.788   3.780  20.569  0.00  0.00    +0.000 A 
ATOM      2  C   UNL     1       2.001   4.944  20.606  0.00  0.00    +0.000 A 
ATOM      3  C   UNL     1       2.200   5.976  19.679  0.00  0.00    +0.000 A 
ATOM      4  C   UNL     1       3.211   5.780  18.734  0.00  0.00    +0.000 A 
ATOM      5  N   UNL     1       3.682   6.560  17.708  0.00  0.00    +0.000 N 
ATOM      6  C   UNL     1       4.686   5.873  17.068  0.00  0.00    +0.000 A 
ATOM      7  N   UNL     1       4.883   4.702  17.642  0.00  0.00    +0.000 NA
ATOM      8  C   UNL     1       3.992   4.633  18.677  0.00  0.00    +0.000 A 
ATOM      9  C   UNL     1       3.792   3.603  19.605  0.00  0.00    +0.000 A 
ATOM     10  H   UNL     1       3.342   7.478  17.452  0.00  0.00    +0.000 HD
ENDROOT
BRANCH   1  12
ATOM     11  O   UNL     1       3.491   1.940  21.795  0.00  0.00    +0.000 OA
ATOM     12  N   UNL     1       2.558   2.722  21.562  0.00  0.00    +0.000 N 
ATOM     13  O   UNL     1       1.448   2.677  22.111  0.00  0.00    +0.000 OA
ENDBRANCH   1  12
BRANCH   6  14
ATOM     14  C   UNL     1       5.380   6.399  15.858  0.00  0.00    +0.000 C 
BRANCH  14  15
ATOM     15  O   UNL     1       6.532   5.586  15.635  0.00  0.00    +0.000 OA
BRANCH  15  16
ATOM     16  C   UNL     1       6.572   4.955  14.419  0.00  0.00    +0.000 A 
ATOM     17  C   UNL     1       7.598   5.364  13.564  0.00  0.00    +0.000 A 
ATOM     18  C   UNL     1       7.721   4.809  12.288  0.00  0.00    +0.000 A 
ATOM     19  C   UNL     1       6.828   3.826  11.866  0.00  0.00    +0.000 A 
ATOM     20  C   UNL     1       5.823   3.390  12.726  0.00  0.00    +0.000 A 
ATOM     21  C   UNL     1       5.697   3.949  14.002  0.00  0.00    +0.000 A 
ENDBRANCH  15  16
ENDBRANCH  14  15
ENDBRANCH   6  14
TORSDOF 4
ENDMDL
MODEL 5
REMARK VINA RESULT:      -7.2      2.557      7.083
REMARK  Name = 
REMARK  4 active torsions:
REMARK  status: ('A' for Active; 'I' for Inactive)
REMARK    1  A    between atoms: N_2  and  C_4
REMARK    2  A    between atoms: C_9  and  C_10
REMARK    3  A    between atoms: C_10  and  O_11
REMARK    4  A    between atoms: O_11  and  C_12
REMARK                            x       y       z     vdW  Elec       q    Type
REMARK                         _______ _______ _______ _____ _____    ______ ____
ROOT
ATOM      1  C   UNL     1       6.578   5.078  15.425  0.00  0.00    +0.000 A 
ATOM      2  C   UNL     1       7.299   4.549  16.511  0.00  0.00    +0.000 A 
ATOM      3  C   UNL     1       6.836   4.703  17.824  0.00  0.00    +0.000 A 
ATOM      4  C   UNL     1       5.636   5.401  17.985  0.00  0.00    +0.000 A 
ATOM      5  N   UNL     1       4.907   5.744  19.097  0.00  0.00    +0.000 N 
ATOM      6  C   UNL     1       3.783   6.420  18.685  0.00  0.00    +0.000 A 
ATOM      7  N   UNL     1       3.767   6.533  17.372  0.00  0.00    +0.000 NA
ATOM      8  C   UNL     1       4.906   5.921  16.925  0.00  0.00    +0.000 A 
ATOM      9  C   UNL     1       5.371   5.768  15.612  0.00  0.00    +0.000 A 
ATOM     10  H   UNL     1       5.144   5.525  20.056  0.00  0.00    +0.000 HD
ENDROOT
BRANCH   1  12
ATOM     11  O   UNL     1       6.549   4.062  13.340  0.00  0.00    +0.000 OA
ATOM     12  N   UNL     1       7.098   4.906  14.062  0.00  0.00    +0.000 N 
ATOM     13  O   UNL     1       8.051   5.617  13.713  0.00  0.00    +0.000 OA
ENDBRANCH   1  12
BRANCH   6  14
ATOM     14  C   UNL     1       2.729   6.883  19.632  0.00  0.00    +0.000 C 
BRANCH  14  15
ATOM     15  O   UNL     1       1.575   6.070  19.422  0.00  0.00    +0.000 OA
BRANCH  15  16
ATOM     16  C   UNL     1       1.669   4.791  19.906  0.00  0.00    +0.000 A 
ATOM     17  C   UNL     1       1.333   3.781  19.002  0.00  0.00    +0.000 A 
ATOM     18  C   UNL     1       1.366   2.440  19.392  0.00  0.00    +0.000 A 
ATOM     19  C   UNL     1       1.756   2.100  20.686  0.00  0.00    +0.000 A 
ATOM     20  C   UNL     1       2.125   3.101  21.582  0.00  0.00    +0.000 A 
ATOM     21  C   UNL     1       2.086   4.443  21.193  0.00  0.00    +0.000 A 
ENDBRANCH  15  16
ENDBRANCH  14  15
ENDBRANCH   6  14
TORSDOF 4
ENDMDL
MODEL 6
REMARK VINA RESULT:      -7.2      2.719      7.088
REMARK  Name = 
REMARK  4 active torsions:
REMARK  status: ('A' for Active; 'I' for Inactive)
REMARK    1  A    between atoms: N_2  and  C_4
REMARK    2  A    between atoms: C_9  and  C_10
REMARK    3  A    between atoms: C_10  and  O_11
REMARK    4  A    between atoms: O_11  and  C_12
REMARK                            x       y       z     vdW  Elec       q    Type
REMARK                         _______ _______ _______ _____ _____    ______ ____
ROOT
ATOM      1  C   UNL     1       5.898   3.399  12.552  0.00  0.00    +0.000 A 
ATOM      2  C   UNL     1       7.016   4.184  12.220  0.00  0.00    +0.000 A 
ATOM      3  C   UNL     1       7.641   4.989  13.182  0.00  0.00    +0.000 A 
ATOM      4  C   UNL     1       7.094   4.963  14.467  0.00  0.00    +0.000 A 
ATOM      5  N   UNL     1       7.429   5.615  15.628  0.00  0.00    +0.000 N 
ATOM      6  C   UNL     1       6.565   5.209  16.617  0.00  0.00    +0.000 A 
ATOM      7  N   UNL     1       5.694   4.341  16.141  0.00  0.00    +0.000 NA
ATOM      8  C   UNL     1       5.997   4.188  14.816  0.00  0.00    +0.000 A 
ATOM      9  C   UNL     1       5.373   3.384  13.854  0.00  0.00    +0.000 A 
ATOM     10  H   UNL     1       8.190   6.272  15.745  0.00  0.00    +0.000 HD
ENDROOT
BRANCH   1  12
ATOM     11  O   UNL     1       4.181   2.964  11.054  0.00  0.00    +0.000 OA
ATOM     12  N   UNL     1       5.262   2.573  11.517  0.00  0.00    +0.000 N 
ATOM     13  O   UNL     1       5.845   1.539  11.164  0.00  0.00    +0.000 OA
ENDBRANCH   1  12
BRANCH   6  14
ATOM     14  C   UNL     1       6.683   5.669  18.030  0.00  0.00    +0.000 C 
BRANCH  14  15
ATOM     15  O   UNL     1       6.364   4.560  18.871  0.00  0.00    +0.000 OA
BRANCH  15  16
ATOM     16  C   UNL     1       5.053   4.488  19.266  0.00  0.00    +0.000 A 
ATOM     17  C   UNL     1       4.569   3.200  19.505  0.00  0.00    +0.000 A 
ATOM     18  C   UNL     1       3.239   3.002  19.886  0.00  0.00    +0.000 A 
ATOM     19  C   UNL     1       2.391   4.095  20.050  0.00  0.00    +0.000 A 
ATOM     20  C   UNL     1       2.877   5.385  19.847  0.00  0.00    +0.000 A 
ATOM     21  C   UNL     1       4.207   5.582  19.460  0.00  0.00    +0.000 A 
ENDBRANCH  15  16
ENDBRANCH  14  15
ENDBRANCH   6  14
TORSDOF 4
ENDMDL
MODEL 7
REMARK VINA RESULT:      -7.1      2.704      7.085
REMARK  Name = 
REMARK  4 active torsions:
REMARK  status: ('A' for Active; 'I' for Inactive)
REMARK    1  A    between atoms: N_2  and  C_4
REMARK    2  A    between atoms: C_9  and  C_10
REMARK    3  A    between atoms: C_10  and  O_11
REMARK    4  A    between atoms: O_11  and  C_12
REMARK                            x       y       z     vdW  Elec       q    Type
REMARK                         _______ _______ _______ _____ _____    ______ ____
ROOT
ATOM      1  C   UNL     1       5.858   3.418  12.583  0.00  0.00    +0.000 A 
ATOM      2  C   UNL     1       7.040   4.126  12.304  0.00  0.00    +0.000 A 
ATOM      3  C   UNL     1       7.650   4.923  13.282  0.00  0.00    +0.000 A 
ATOM      4  C   UNL     1       7.021   4.969  14.529  0.00  0.00    +0.000 A 
ATOM      5  N   UNL     1       7.319   5.636  15.691  0.00  0.00    +0.000 N 
ATOM      6  C   UNL     1       6.370   5.312  16.632  0.00  0.00    +0.000 A 
ATOM      7  N   UNL     1       5.480   4.482  16.123  0.00  0.00    +0.000 NA
ATOM      8  C   UNL     1       5.859   4.270  14.826  0.00  0.00    +0.000 A 
ATOM      9  C   UNL     1       5.250   3.475  13.847  0.00  0.00    +0.000 A 
ATOM     10  H   UNL     1       8.109   6.250  15.840  0.00  0.00    +0.000 HD
ENDROOT
BRANCH   1  12
ATOM     11  O   UNL     1       5.842   1.577  11.172  0.00  0.00    +0.000 OA
ATOM     12  N   UNL     1       5.241   2.599  11.530  0.00  0.00    +0.000 N 
ATOM     13  O   UNL     1       4.156   2.977  11.067  0.00  0.00    +0.000 OA
ENDBRANCH   1  12
BRANCH   6  14
ATOM     14  C   UNL     1       6.424   5.808  18.037  0.00  0.00    +0.000 C 
BRANCH  14  15
ATOM     15  O   UNL     1       6.299   4.676  18.898  0.00  0.00    +0.000 OA
BRANCH  15  16
ATOM     16  C   UNL     1       5.021   4.394  19.304  0.00  0.00    +0.000 A 
ATOM     17  C   UNL     1       4.201   5.503  19.521  0.00  0.00    +0.000 A 
ATOM     18  C   UNL     1       2.886   5.338  19.963  0.00  0.00    +0.000 A 
ATOM     19  C   UNL     1       2.377   4.058  20.172  0.00  0.00    +0.000 A 
ATOM     20  C   UNL     1       3.178   2.946  19.925  0.00  0.00    +0.000 A 
ATOM     21  C   UNL     1       4.496   3.112  19.488  0.00  0.00    +0.000 A 
ENDBRANCH  15  16
ENDBRANCH  14  15
ENDBRANCH   6  14
TORSDOF 4
ENDMDL
MODEL 8
REMARK VINA RESULT:      -7.0      2.257      6.819
REMARK  Name = 
REMARK  4 active torsions:
REMARK  status: ('A' for Active; 'I' for Inactive)
REMARK    1  A    between atoms: N_2  and  C_4
REMARK    2  A    between atoms: C_9  and  C_10
REMARK    3  A    between atoms: C_10  and  O_11
REMARK    4  A    between atoms: O_11  and  C_12
REMARK                            x       y       z     vdW  Elec       q    Type
REMARK                         _______ _______ _______ _____ _____    ______ ____
ROOT
ATOM      1  C   UNL     1       6.601   4.949  15.238  0.00  0.00    +0.000 A 
ATOM      2  C   UNL     1       7.543   4.697  16.252  0.00  0.00    +0.000 A 
ATOM      3  C   UNL     1       7.207   4.861  17.602  0.00  0.00    +0.000 A 
ATOM      4  C   UNL     1       5.904   5.283  17.874  0.00  0.00    +0.000 A 
ATOM      5  N   UNL     1       5.244   5.553  19.048  0.00  0.00    +0.000 N 
ATOM      6  C   UNL     1       3.955   5.919  18.745  0.00  0.00    +0.000 A 
ATOM      7  N   UNL     1       3.765   5.906  17.440  0.00  0.00    +0.000 NA
ATOM      8  C   UNL     1       4.958   5.528  16.888  0.00  0.00    +0.000 A 
ATOM      9  C   UNL     1       5.295   5.364  15.538  0.00  0.00    +0.000 A 
ATOM     10  H   UNL     1       5.632   5.482  19.979  0.00  0.00    +0.000 HD
ENDROOT
BRANCH   1  12
ATOM     11  O   UNL     1       6.434   3.873  13.190  0.00  0.00    +0.000 OA
ATOM     12  N   UNL     1       6.990   4.775  13.832  0.00  0.00    +0.000 N 
ATOM     13  O   UNL     1       7.847   5.543  13.371  0.00  0.00    +0.000 OA
ENDBRANCH   1  12
BRANCH   6  14
ATOM     14  C   UNL     1       2.934   6.218  19.790  0.00  0.00    +0.000 C 
BRANCH  14  15
ATOM     15  O   UNL     1       2.823   5.066  20.625  0.00  0.00    +0.000 OA
BRANCH  15  16
ATOM     16  C   UNL     1       2.413   3.924  19.989  0.00  0.00    +0.000 A 
ATOM     17  C   UNL     1       1.053   3.868  19.673  0.00  0.00    +0.000 A 
ATOM     18  C   UNL     1       0.516   2.740  19.048  0.00  0.00    +0.000 A 
ATOM     19  C   UNL     1       1.341   1.669  18.715  0.00  0.00    +0.000 A 
ATOM     20  C   UNL     1       2.704   1.732  18.996  0.00  0.00    +0.000 A 
ATOM     21  C   UNL     1       3.241   2.858  19.627  0.00  0.00    +0.000 A 
ENDBRANCH  15  16
ENDBRANCH  14  15
ENDBRANCH   6  14
TORSDOF 4
ENDMDL
MODEL 9
REMARK VINA RESULT:      -7.0      2.987      7.473
REMARK  Name = 
REMARK  4 active torsions:
REMARK  status: ('A' for Active; 'I' for Inactive)
REMARK    1  A    between atoms: N_2  and  C_4
REMARK    2  A    between atoms: C_9  and  C_10
REMARK    3  A    between atoms: C_10  and  O_11
REMARK    4  A    between atoms: O_11  and  C_12
REMARK                            x       y       z     vdW  Elec       q    Type
REMARK                         _______ _______ _______ _____ _____    ______ ____
ROOT
ATOM      1  C   UNL     1       6.505   4.883  15.685  0.00  0.00    +0.000 A 
ATOM      2  C   UNL     1       7.379   4.790  16.783  0.00  0.00    +0.000 A 
ATOM      3  C   UNL     1       6.909   4.960  18.092  0.00  0.00    +0.000 A 
ATOM      4  C   UNL     1       5.545   5.223  18.236  0.00  0.00    +0.000 A 
ATOM      5  N   UNL     1       4.758   5.450  19.338  0.00  0.00    +0.000 N 
ATOM      6  C   UNL     1       3.464   5.638  18.913  0.00  0.00    +0.000 A 
ATOM      7  N   UNL     1       3.391   5.553  17.600  0.00  0.00    +0.000 NA
ATOM      8  C   UNL     1       4.665   5.309  17.165  0.00  0.00    +0.000 A 
ATOM      9  C   UNL     1       5.136   5.140  15.857  0.00  0.00    +0.000 A 
ATOM     10  H   UNL     1       5.069   5.463  20.300  0.00  0.00    +0.000 HD
ENDROOT
BRANCH   1  12
ATOM     11  O   UNL     1       7.982   5.427  13.981  0.00  0.00    +0.000 OA
ATOM     12  N   UNL     1       7.033   4.708  14.325  0.00  0.00    +0.000 N 
ATOM     13  O   UNL     1       6.502   3.850  13.606  0.00  0.00    +0.000 OA
ENDBRANCH   1  12
BRANCH   6  14
ATOM     14  C   UNL     1       2.327   5.844  19.856  0.00  0.00    +0.000 C 
BRANCH  14  15
ATOM     15  O   UNL     1       2.488   7.132  20.450  0.00  0.00    +0.000 OA
BRANCH  15  16
ATOM     16  C   UNL     1       1.724   8.126  19.898  0.00  0.00    +0.000 A 
ATOM     17  C   UNL     1       0.812   8.733  20.764  0.00  0.00    +0.000 A 
ATOM     18  C   UNL     1      -0.039   9.741  20.305  0.00  0.00    +0.000 A 
ATOM     19  C   UNL     1       0.032  10.163  18.979  0.00  0.00    +0.000 A 
ATOM     20  C   UNL     1       0.963   9.587  18.119  0.00  0.00    +0.000 A 
ATOM     21  C   UNL     1       1.811   8.573  18.577  0.00  0.00    +0.000 A 
ENDBRANCH  15  16
ENDBRANCH  14  15
ENDBRANCH   6  14
TORSDOF 4
ENDMDL
