MODEL 1
REMARK VINA RESULT:      -8.4      0.000      0.000
REMARK  Name = 
REMARK  4 active torsions:
REMARK  status: ('A' for Active; 'I' for Inactive)
REMARK    1  A    between atoms: C_1  and  C_2
REMARK    2  A    between atoms: C_3  and  C_4
REMARK    3  A    between atoms: C_9  and  C_10
REMARK    4  A    between atoms: N_14  and  C_15
REMARK                            x       y       z     vdW  Elec       q    Type
REMARK                         _______ _______ _______ _____ _____    ______ ____
ROOT
ATOM      1  C   UNL     1       1.007  11.916  19.298  0.00  0.00    +0.000 C 
ATOM      2  C   UNL     1       0.720  10.652  20.028  0.00  0.00    +0.000 A 
ATOM      3  C   UNL     1       0.932   9.329  19.665  0.00  0.00    +0.000 A 
ATOM      4  C   UNL     1       0.437   8.588  20.753  0.00  0.00    +0.000 A 
ATOM      5  N   UNL     1      -0.092   9.349  21.707  0.00  0.00    +0.000 NA
ATOM      6  N   UNL     1       0.102  10.626  21.265  0.00  0.00    +0.000 N 
ATOM      7  C   UNL     1      -0.341  11.707  22.068  0.00  0.00    +0.000 A 
ATOM      8  N   UNL     1       0.010  12.940  21.872  0.00  0.00    +0.000 NA
ATOM      9  N   UNL     1      -0.620  13.800  22.707  0.00  0.00    +0.000 N 
ATOM     10  C   UNL     1      -0.302  15.110  22.924  0.00  0.00    +0.000 A 
ATOM     11  C   UNL     1      -1.264  15.649  23.754  0.00  0.00    +0.000 A 
ATOM     12  C   UNL     1      -2.198  14.623  24.043  0.00  0.00    +0.000 A 
ATOM     13  C   UNL     1      -1.715  13.478  23.454  0.00  0.00    +0.000 A 
ATOM     14  C   UNL     1      -2.152  12.123  23.468  0.00  0.00    +0.000 A 
ATOM     15  O   UNL     1      -3.285  11.753  23.751  0.00  0.00    +0.000 OA
ATOM     16  N   UNL     1      -1.166  11.259  23.072  0.00  0.00    +0.000 N 
ATOM     17  H   UNL     1      -0.575  11.085  23.879  0.00  0.00    +0.000 HD
ENDROOT
BRANCH   3  18
ATOM     18  C   UNL     1       1.595   8.850  18.459  0.00  0.00    +0.000 C 
ATOM     19  O   UNL     1       1.274   9.308  17.358  0.00  0.00    +0.000 OA
ATOM     20  N   UNL     1       2.600   7.899  18.590  0.00  0.00    +0.000 N 
ATOM     21  C   UNL     1       3.492   7.664  17.456  0.00  0.00    +0.000 C 
ATOM     22  C   UNL     1       3.423   6.210  17.001  0.00  0.00    +0.000 C 
ATOM     23  C   UNL     1       3.702   5.239  18.156  0.00  0.00    +0.000 C 
ATOM     24  C   UNL     1       2.776   5.557  19.341  0.00  0.00    +0.000 C 
ATOM     25  C   UNL     1       2.804   7.031  19.748  0.00  0.00    +0.000 C 
BRANCH  23  26
ATOM     26  C   UNL     1       5.144   5.259  18.570  0.00  0.00    +0.000 A 
ATOM     27  N   UNL     1       5.598   5.268  19.813  0.00  0.00    +0.000 NA
ATOM     28  N   UNL     1       6.969   5.234  19.782  0.00  0.00    +0.000 NA
ATOM     29  C   UNL     1       7.333   5.211  18.522  0.00  0.00    +0.000 A 
ATOM     30  N   UNL     1       6.229   5.251  17.730  0.00  0.00    +0.000 N 
BRANCH  30  31
ATOM     31  C   UNL     1       6.212   5.301  16.286  0.00  0.00    +0.000 C 
ATOM     32  C   UNL     1       7.208   4.514  15.455  0.00  0.00    +0.000 C 
ATOM     33  C   UNL     1       5.778   4.117  15.444  0.00  0.00    +0.000 C 
ENDBRANCH  30  31
ENDBRANCH  23  26
ENDBRANCH   3  18
TORSDOF 3
ENDMDL
MODEL 2
REMARK VINA RESULT:      -8.3      3.268     10.034
REMARK  Name = 
REMARK  4 active torsions:
REMARK  status: ('A' for Active; 'I' for Inactive)
REMARK    1  A    between atoms: C_1  and  C_2
REMARK    2  A    between atoms: C_3  and  C_4
REMARK    3  A    between atoms: C_9  and  C_10
REMARK    4  A    between atoms: N_14  and  C_15
REMARK                            x       y       z     vdW  Elec       q    Type
REMARK                         _______ _______ _______ _____ _____    ______ ____
ROOT
ATOM      1  C   UNL     1       1.164   8.777  21.240  0.00  0.00    +0.000 C 
ATOM      2  C   UNL     1       1.549   8.965  19.815  0.00  0.00    +0.000 A 
ATOM      3  C   UNL     1       1.559  10.105  19.023  0.00  0.00    +0.000 A 
ATOM      4  C   UNL     1       1.996   9.650  17.766  0.00  0.00    +0.000 A 
ATOM      5  N   UNL     1       2.202   8.336  17.728  0.00  0.00    +0.000 NA
ATOM      6  N   UNL     1       1.944   7.918  19.001  0.00  0.00    +0.000 N 
ATOM      7  C   UNL     1       2.083   6.543  19.317  0.00  0.00    +0.000 A 
ATOM      8  N   UNL     1       2.110   6.081  20.528  0.00  0.00    +0.000 NA
ATOM      9  N   UNL     1       2.154   4.728  20.569  0.00  0.00    +0.000 N 
ATOM     10  C   UNL     1       2.432   3.952  21.658  0.00  0.00    +0.000 A 
ATOM     11  C   UNL     1       2.255   2.632  21.294  0.00  0.00    +0.000 A 
ATOM     12  C   UNL     1       1.850   2.617  19.936  0.00  0.00    +0.000 A 
ATOM     13  C   UNL     1       1.889   3.921  19.502  0.00  0.00    +0.000 A 
ATOM     14  C   UNL     1       1.686   4.525  18.230  0.00  0.00    +0.000 A 
ATOM     15  O   UNL     1       1.081   4.010  17.295  0.00  0.00    +0.000 OA
ATOM     16  N   UNL     1       2.201   5.793  18.171  0.00  0.00    +0.000 N 
ATOM     17  H   UNL     1       3.194   5.706  17.980  0.00  0.00    +0.000 HD
ENDROOT
BRANCH   3  18
ATOM     18  C   UNL     1       1.258  11.465  19.448  0.00  0.00    +0.000 C 
ATOM     19  O   UNL     1       2.126  12.341  19.369  0.00  0.00    +0.000 OA
ATOM     20  N   UNL     1      -0.022  11.746  19.911  0.00  0.00    +0.000 N 
ATOM     21  C   UNL     1      -0.437  13.144  20.015  0.00  0.00    +0.000 C 
ATOM     22  C   UNL     1      -0.822  13.492  21.449  0.00  0.00    +0.000 C 
ATOM     23  C   UNL     1      -1.891  12.538  21.998  0.00  0.00    +0.000 C 
ATOM     24  C   UNL     1      -1.432  11.082  21.822  0.00  0.00    +0.000 C 
ATOM     25  C   UNL     1      -0.987  10.760  20.395  0.00  0.00    +0.000 C 
BRANCH  23  26
ATOM     26  C   UNL     1      -3.230  12.769  21.362  0.00  0.00    +0.000 A 
ATOM     27  N   UNL     1      -3.513  12.647  20.075  0.00  0.00    +0.000 NA
ATOM     28  N   UNL     1      -4.850  12.891  19.892  0.00  0.00    +0.000 NA
ATOM     29  C   UNL     1      -5.363  13.165  21.067  0.00  0.00    +0.000 A 
ATOM     30  N   UNL     1      -4.385  13.125  22.011  0.00  0.00    +0.000 N 
BRANCH  30  31
ATOM     31  C   UNL     1      -4.538  13.426  23.415  0.00  0.00    +0.000 C 
ATOM     32  C   UNL     1      -5.667  12.829  24.235  0.00  0.00    +0.000 C 
ATOM     33  C   UNL     1      -4.272  12.394  24.494  0.00  0.00    +0.000 C 
ENDBRANCH  30  31
ENDBRANCH  23  26
ENDBRANCH   3  18
TORSDOF 3
ENDMDL
MODEL 3
REMARK VINA RESULT:      -8.2      6.710      8.261
REMARK  Name = 
REMARK  4 active torsions:
REMARK  status: ('A' for Active; 'I' for Inactive)
REMARK    1  A    between atoms: C_1  and  C_2
REMARK    2  A    between atoms: C_3  and  C_4
REMARK    3  A    between atoms: C_9  and  C_10
REMARK    4  A    between atoms: N_14  and  C_15
REMARK                            x       y       z     vdW  Elec       q    Type
REMARK                         _______ _______ _______ _____ _____    ______ ____
ROOT
ATOM      1  C   UNL     1       2.915  15.082  18.015  0.00  0.00    +0.000 C 
ATOM      2  C   UNL     1       3.176  14.933  19.472  0.00  0.00    +0.000 A 
ATOM      3  C   UNL     1       4.123  15.538  20.288  0.00  0.00    +0.000 A 
ATOM      4  C   UNL     1       3.892  14.980  21.559  0.00  0.00    +0.000 A 
ATOM      5  N   UNL     1       2.924  14.067  21.560  0.00  0.00    +0.000 NA
ATOM      6  N   UNL     1       2.471  14.054  20.273  0.00  0.00    +0.000 N 
ATOM      7  C   UNL     1       1.408  13.182  19.926  0.00  0.00    +0.000 A 
ATOM      8  N   UNL     1       0.741  13.266  18.818  0.00  0.00    +0.000 NA
ATOM      9  N   UNL     1      -0.158  12.264  18.673  0.00  0.00    +0.000 N 
ATOM     10  C   UNL     1      -1.169  12.197  17.757  0.00  0.00    +0.000 A 
ATOM     11  C   UNL     1      -1.770  10.960  17.876  0.00  0.00    +0.000 A 
ATOM     12  C   UNL     1      -1.090  10.256  18.901  0.00  0.00    +0.000 A 
ATOM     13  C   UNL     1      -0.166  11.127  19.428  0.00  0.00    +0.000 A 
ATOM     14  C   UNL     1       0.736  11.037  20.524  0.00  0.00    +0.000 A 
ATOM     15  O   UNL     1       1.119   9.990  21.036  0.00  0.00    +0.000 OA
ATOM     16  N   UNL     1       1.186  12.266  20.926  0.00  0.00    +0.000 N 
ATOM     17  H   UNL     1       0.476  12.663  21.534  0.00  0.00    +0.000 HD
ENDROOT
BRANCH   3  18
ATOM     18  C   UNL     1       5.074  16.571  19.904  0.00  0.00    +0.000 C 
ATOM     19  O   UNL     1       4.701  17.744  19.804  0.00  0.00    +0.000 OA
ATOM     20  N   UNL     1       6.397  16.205  19.684  0.00  0.00    +0.000 N 
ATOM     21  C   UNL     1       7.414  17.254  19.636  0.00  0.00    +0.000 C 
ATOM     22  C   UNL     1       8.138  17.249  18.293  0.00  0.00    +0.000 C 
ATOM     23  C   UNL     1       8.726  15.868  17.971  0.00  0.00    +0.000 C 
ATOM     24  C   UNL     1       7.632  14.795  18.083  0.00  0.00    +0.000 C 
ATOM     25  C   UNL     1       6.869  14.850  19.407  0.00  0.00    +0.000 C 
BRANCH  23  26
ATOM     26  C   UNL     1       9.903  15.543  18.843  0.00  0.00    +0.000 A 
ATOM     27  N   UNL     1      10.373  16.290  19.828  0.00  0.00    +0.000 NA
ATOM     28  N   UNL     1      11.422  15.633  20.419  0.00  0.00    +0.000 NA
ATOM     29  C   UNL     1      11.582  14.497  19.783  0.00  0.00    +0.000 A 
ATOM     30  N   UNL     1      10.672  14.408  18.775  0.00  0.00    +0.000 N 
BRANCH  30  31
ATOM     31  C   UNL     1      10.564  13.338  17.812  0.00  0.00    +0.000 C 
ATOM     32  C   UNL     1      11.513  13.235  16.633  0.00  0.00    +0.000 C 
ATOM     33  C   UNL     1      11.594  12.229  17.720  0.00  0.00    +0.000 C 
ENDBRANCH  30  31
ENDBRANCH  23  26
ENDBRANCH   3  18
TORSDOF 3
ENDMDL
MODEL 4
REMARK VINA RESULT:      -8.1      2.557      9.776
REMARK  Name = 
REMARK  4 active torsions:
REMARK  status: ('A' for Active; 'I' for Inactive)
REMARK    1  A    between atoms: C_1  and  C_2
REMARK    2  A    between atoms: C_3  and  C_4
REMARK    3  A    between atoms: C_9  and  C_10
REMARK    4  A    between atoms: N_14  and  C_15
REMARK                            x       y       z     vdW  Elec       q    Type
REMARK                         _______ _______ _______ _____ _____    ______ ____
ROOT
ATOM      1  C   UNL     1       2.189   8.968  17.448  0.00  0.00    +0.000 C 
ATOM      2  C   UNL     1       1.965   8.355  18.785  0.00  0.00    +0.000 A 
ATOM      3  C   UNL     1       1.139   8.742  19.831  0.00  0.00    +0.000 A 
ATOM      4  C   UNL     1       1.378   7.785  20.834  0.00  0.00    +0.000 A 
ATOM      5  N   UNL     1       2.304   6.892  20.494  0.00  0.00    +0.000 NA
ATOM      6  N   UNL     1       2.651   7.235  19.219  0.00  0.00    +0.000 N 
ATOM      7  C   UNL     1       3.626   6.463  18.540  0.00  0.00    +0.000 A 
ATOM      8  N   UNL     1       3.845   6.541  17.264  0.00  0.00    +0.000 NA
ATOM      9  N   UNL     1       4.890   5.777  16.867  0.00  0.00    +0.000 N 
ATOM     10  C   UNL     1       5.223   5.449  15.583  0.00  0.00    +0.000 A 
ATOM     11  C   UNL     1       6.418   4.759  15.617  0.00  0.00    +0.000 A 
ATOM     12  C   UNL     1       6.820   4.674  16.974  0.00  0.00    +0.000 A 
ATOM     13  C   UNL     1       5.807   5.232  17.718  0.00  0.00    +0.000 A 
ATOM     14  C   UNL     1       5.587   5.353  19.118  0.00  0.00    +0.000 A 
ATOM     15  O   UNL     1       6.460   5.273  19.976  0.00  0.00    +0.000 OA
ATOM     16  N   UNL     1       4.279   5.627  19.414  0.00  0.00    +0.000 N 
ATOM     17  H   UNL     1       3.776   4.745  19.404  0.00  0.00    +0.000 HD
ENDROOT
BRANCH   3  18
ATOM     18  C   UNL     1       0.190   9.848  19.831  0.00  0.00    +0.000 C 
ATOM     19  O   UNL     1      -1.010   9.628  19.637  0.00  0.00    +0.000 OA
ATOM     20  N   UNL     1       0.668  11.129  20.080  0.00  0.00    +0.000 N 
ATOM     21  C   UNL     1      -0.292  12.179  20.418  0.00  0.00    +0.000 C 
ATOM     22  C   UNL     1      -0.220  13.325  19.414  0.00  0.00    +0.000 C 
ATOM     23  C   UNL     1       1.206  13.877  19.283  0.00  0.00    +0.000 C 
ATOM     24  C   UNL     1       2.184  12.731  18.978  0.00  0.00    +0.000 C 
ATOM     25  C   UNL     1       2.059  11.558  19.951  0.00  0.00    +0.000 C 
BRANCH  23  26
ATOM     26  C   UNL     1       1.627  14.642  20.504  0.00  0.00    +0.000 A 
ATOM     27  N   UNL     1       1.946  14.122  21.678  0.00  0.00    +0.000 NA
ATOM     28  N   UNL     1       2.323  15.136  22.521  0.00  0.00    +0.000 NA
ATOM     29  C   UNL     1       2.223  16.260  21.853  0.00  0.00    +0.000 A 
ATOM     30  N   UNL     1       1.768  16.004  20.598  0.00  0.00    +0.000 N 
BRANCH  30  31
ATOM     31  C   UNL     1       1.470  16.983  19.578  0.00  0.00    +0.000 C 
ATOM     32  C   UNL     1       0.042  17.392  19.268  0.00  0.00    +0.000 C 
ATOM     33  C   UNL     1       0.952  18.367  19.919  0.00  0.00    +0.000 C 
ENDBRANCH  30  31
ENDBRANCH  23  26
ENDBRANCH   3  18
TORSDOF 3
ENDMDL
MODEL 5
REMARK VINA RESULT:      -7.9      2.718      9.501
REMARK  Name = 
REMARK  4 active torsions:
REMARK  status: ('A' for Active; 'I' for Inactive)
REMARK    1  A    between atoms: C_1  and  C_2
REMARK    2  A    between atoms: C_3  and  C_4
REMARK    3  A    between atoms: C_9  and  C_10
REMARK    4  A    between atoms: N_14  and  C_15
REMARK                            x       y       z     vdW  Elec       q    Type
REMARK                         _______ _______ _______ _____ _____    ______ ____
ROOT
ATOM      1  C   UNL     1       2.178   8.976  17.461  0.00  0.00    +0.000 C 
ATOM      2  C   UNL     1       1.954   8.351  18.792  0.00  0.00    +0.000 A 
ATOM      3  C   UNL     1       1.123   8.726  19.840  0.00  0.00    +0.000 A 
ATOM      4  C   UNL     1       1.364   7.761  20.835  0.00  0.00    +0.000 A 
ATOM      5  N   UNL     1       2.294   6.875  20.489  0.00  0.00    +0.000 NA
ATOM      6  N   UNL     1       2.643   7.230  19.219  0.00  0.00    +0.000 N 
ATOM      7  C   UNL     1       3.623   6.468  18.535  0.00  0.00    +0.000 A 
ATOM      8  N   UNL     1       3.845   6.558  17.261  0.00  0.00    +0.000 NA
ATOM      9  N   UNL     1       4.894   5.801  16.860  0.00  0.00    +0.000 N 
ATOM     10  C   UNL     1       5.231   5.486  15.574  0.00  0.00    +0.000 A 
ATOM     11  C   UNL     1       6.429   4.800  15.605  0.00  0.00    +0.000 A 
ATOM     12  C   UNL     1       6.828   4.705  16.962  0.00  0.00    +0.000 A 
ATOM     13  C   UNL     1       5.810   5.252  17.708  0.00  0.00    +0.000 A 
ATOM     14  C   UNL     1       5.587   5.360  19.109  0.00  0.00    +0.000 A 
ATOM     15  O   UNL     1       6.457   5.277  19.969  0.00  0.00    +0.000 OA
ATOM     16  N   UNL     1       4.276   5.627  19.404  0.00  0.00    +0.000 N 
ATOM     17  H   UNL     1       3.777   4.743  19.385  0.00  0.00    +0.000 HD
ENDROOT
BRANCH   3  18
ATOM     18  C   UNL     1       0.170   9.828  19.847  0.00  0.00    +0.000 C 
ATOM     19  O   UNL     1      -1.027   9.607  19.639  0.00  0.00    +0.000 OA
ATOM     20  N   UNL     1       0.640  11.108  20.116  0.00  0.00    +0.000 N 
ATOM     21  C   UNL     1      -0.326  12.149  20.460  0.00  0.00    +0.000 C 
ATOM     22  C   UNL     1      -0.250  13.309  19.473  0.00  0.00    +0.000 C 
ATOM     23  C   UNL     1       1.175  13.868  19.361  0.00  0.00    +0.000 C 
ATOM     24  C   UNL     1       2.159  12.730  19.048  0.00  0.00    +0.000 C 
ATOM     25  C   UNL     1       2.031  11.544  20.004  0.00  0.00    +0.000 C 
BRANCH  23  26
ATOM     26  C   UNL     1       1.582  14.619  20.595  0.00  0.00    +0.000 A 
ATOM     27  N   UNL     1       0.909  14.670  21.733  0.00  0.00    +0.000 NA
ATOM     28  N   UNL     1       1.626  15.411  22.637  0.00  0.00    +0.000 NA
ATOM     29  C   UNL     1       2.724  15.807  22.037  0.00  0.00    +0.000 A 
ATOM     30  N   UNL     1       2.728  15.357  20.754  0.00  0.00    +0.000 N 
BRANCH  30  31
ATOM     31  C   UNL     1       3.733  15.631  19.753  0.00  0.00    +0.000 C 
ATOM     32  C   UNL     1       3.516  16.684  18.682  0.00  0.00    +0.000 C 
ATOM     33  C   UNL     1       4.526  16.923  19.742  0.00  0.00    +0.000 C 
ENDBRANCH  30  31
ENDBRANCH  23  26
ENDBRANCH   3  18
TORSDOF 3
ENDMDL
MODEL 6
REMARK VINA RESULT:      -7.9      3.386      9.214
REMARK  Name = 
REMARK  4 active torsions:
REMARK  status: ('A' for Active; 'I' for Inactive)
REMARK    1  A    between atoms: C_1  and  C_2
REMARK    2  A    between atoms: C_3  and  C_4
REMARK    3  A    between atoms: C_9  and  C_10
REMARK    4  A    between atoms: N_14  and  C_15
REMARK                            x       y       z     vdW  Elec       q    Type
REMARK                         _______ _______ _______ _____ _____    ______ ____
ROOT
ATOM      1  C   UNL     1       0.275   8.522  21.405  0.00  0.00    +0.000 C 
ATOM      2  C   UNL     1       0.873   8.925  20.104  0.00  0.00    +0.000 A 
ATOM      3  C   UNL     1       0.807  10.126  19.411  0.00  0.00    +0.000 A 
ATOM      4  C   UNL     1       1.550   9.891  18.240  0.00  0.00    +0.000 A 
ATOM      5  N   UNL     1       2.011   8.646  18.154  0.00  0.00    +0.000 NA
ATOM      6  N   UNL     1       1.608   8.057  19.317  0.00  0.00    +0.000 N 
ATOM      7  C   UNL     1       1.952   6.704  19.559  0.00  0.00    +0.000 A 
ATOM      8  N   UNL     1       1.844   6.128  20.715  0.00  0.00    +0.000 NA
ATOM      9  N   UNL     1       2.142   4.808  20.671  0.00  0.00    +0.000 N 
ATOM     10  C   UNL     1       2.360   3.982  21.737  0.00  0.00    +0.000 A 
ATOM     11  C   UNL     1       2.514   2.698  21.256  0.00  0.00    +0.000 A 
ATOM     12  C   UNL     1       2.378   2.755  19.846  0.00  0.00    +0.000 A 
ATOM     13  C   UNL     1       2.243   4.084  19.519  0.00  0.00    +0.000 A 
ATOM     14  C   UNL     1       2.165   4.773  18.277  0.00  0.00    +0.000 A 
ATOM     15  O   UNL     1       1.856   4.261  17.207  0.00  0.00    +0.000 OA
ATOM     16  N   UNL     1       2.424   6.111  18.411  0.00  0.00    +0.000 N 
ATOM     17  H   UNL     1       3.434   6.223  18.419  0.00  0.00    +0.000 HD
ENDROOT
BRANCH   3  18
ATOM     18  C   UNL     1       0.173  11.358  19.859  0.00  0.00    +0.000 C 
ATOM     19  O   UNL     1      -1.059  11.431  19.915  0.00  0.00    +0.000 OA
ATOM     20  N   UNL     1       0.985  12.420  20.240  0.00  0.00    +0.000 N 
ATOM     21  C   UNL     1       0.390  13.518  21.000  0.00  0.00    +0.000 C 
ATOM     22  C   UNL     1       0.551  14.842  20.260  0.00  0.00    +0.000 C 
ATOM     23  C   UNL     1       2.018  15.122  19.908  0.00  0.00    +0.000 C 
ATOM     24  C   UNL     1       2.613  13.921  19.155  0.00  0.00    +0.000 C 
ATOM     25  C   UNL     1       2.390  12.590  19.873  0.00  0.00    +0.000 C 
BRANCH  23  26
ATOM     26  C   UNL     1       2.832  15.462  21.122  0.00  0.00    +0.000 A 
ATOM     27  N   UNL     1       2.694  14.931  22.326  0.00  0.00    +0.000 NA
ATOM     28  N   UNL     1       3.650  15.461  23.154  0.00  0.00    +0.000 NA
ATOM     29  C   UNL     1       4.355  16.311  22.446  0.00  0.00    +0.000 A 
ATOM     30  N   UNL     1       3.865  16.363  21.179  0.00  0.00    +0.000 N 
BRANCH  30  31
ATOM     31  C   UNL     1       4.331  17.222  20.116  0.00  0.00    +0.000 C 
ATOM     32  C   UNL     1       5.798  17.582  19.974  0.00  0.00    +0.000 C 
ATOM     33  C   UNL     1       5.166  16.697  18.964  0.00  0.00    +0.000 C 
ENDBRANCH  30  31
ENDBRANCH  23  26
ENDBRANCH   3  18
TORSDOF 3
ENDMDL
MODEL 7
REMARK VINA RESULT:      -7.9      3.315     10.110
REMARK  Name = 
REMARK  4 active torsions:
REMARK  status: ('A' for Active; 'I' for Inactive)
REMARK    1  A    between atoms: C_1  and  C_2
REMARK    2  A    between atoms: C_3  and  C_4
REMARK    3  A    between atoms: C_9  and  C_10
REMARK    4  A    between atoms: N_14  and  C_15
REMARK                            x       y       z     vdW  Elec       q    Type
REMARK                         _______ _______ _______ _____ _____    ______ ____
ROOT
ATOM      1  C   UNL     1       1.151   8.873  21.181  0.00  0.00    +0.000 C 
ATOM      2  C   UNL     1       1.549   9.049  19.759  0.00  0.00    +0.000 A 
ATOM      3  C   UNL     1       1.573  10.184  18.959  0.00  0.00    +0.000 A 
ATOM      4  C   UNL     1       2.018   9.717  17.709  0.00  0.00    +0.000 A 
ATOM      5  N   UNL     1       2.217   8.401  17.682  0.00  0.00    +0.000 NA
ATOM      6  N   UNL     1       1.945   7.994  18.956  0.00  0.00    +0.000 N 
ATOM      7  C   UNL     1       2.073   6.621  19.282  0.00  0.00    +0.000 A 
ATOM      8  N   UNL     1       2.087   6.167  20.496  0.00  0.00    +0.000 NA
ATOM      9  N   UNL     1       2.122   4.814  20.547  0.00  0.00    +0.000 N 
ATOM     10  C   UNL     1       2.385   4.043  21.643  0.00  0.00    +0.000 A 
ATOM     11  C   UNL     1       2.203   2.722  21.287  0.00  0.00    +0.000 A 
ATOM     12  C   UNL     1       1.810   2.700  19.926  0.00  0.00    +0.000 A 
ATOM     13  C   UNL     1       1.861   4.001  19.483  0.00  0.00    +0.000 A 
ATOM     14  C   UNL     1       1.673   4.597  18.205  0.00  0.00    +0.000 A 
ATOM     15  O   UNL     1       1.073   4.080  17.269  0.00  0.00    +0.000 OA
ATOM     16  N   UNL     1       2.196   5.861  18.142  0.00  0.00    +0.000 N 
ATOM     17  H   UNL     1       3.191   5.767  17.960  0.00  0.00    +0.000 HD
ENDROOT
BRANCH   3  18
ATOM     18  C   UNL     1       1.277  11.548  19.372  0.00  0.00    +0.000 C 
ATOM     19  O   UNL     1       2.178  12.394  19.394  0.00  0.00    +0.000 OA
ATOM     20  N   UNL     1      -0.033  11.869  19.708  0.00  0.00    +0.000 N 
ATOM     21  C   UNL     1      -0.409  13.279  19.791  0.00  0.00    +0.000 C 
ATOM     22  C   UNL     1      -0.925  13.624  21.184  0.00  0.00    +0.000 C 
ATOM     23  C   UNL     1      -2.076  12.701  21.608  0.00  0.00    +0.000 C 
ATOM     24  C   UNL     1      -1.650  11.232  21.456  0.00  0.00    +0.000 C 
ATOM     25  C   UNL     1      -1.074  10.911  20.077  0.00  0.00    +0.000 C 
BRANCH  23  26
ATOM     26  C   UNL     1      -3.335  12.987  20.843  0.00  0.00    +0.000 A 
ATOM     27  N   UNL     1      -3.781  12.312  19.797  0.00  0.00    +0.000 NA
ATOM     28  N   UNL     1      -4.984  12.843  19.409  0.00  0.00    +0.000 NA
ATOM     29  C   UNL     1      -5.254  13.838  20.220  0.00  0.00    +0.000 A 
ATOM     30  N   UNL     1      -4.241  13.981  21.116  0.00  0.00    +0.000 N 
BRANCH  30  31
ATOM     31  C   UNL     1      -4.135  15.000  22.134  0.00  0.00    +0.000 C 
ATOM     32  C   UNL     1      -3.494  16.344  21.845  0.00  0.00    +0.000 C 
ATOM     33  C   UNL     1      -4.956  16.274  22.086  0.00  0.00    +0.000 C 
ENDBRANCH  30  31
ENDBRANCH  23  26
ENDBRANCH   3  18
TORSDOF 3
ENDMDL
MODEL 8
REMARK VINA RESULT:      -7.8      6.585     11.062
REMARK  Name = 
REMARK  4 active torsions:
REMARK  status: ('A' for Active; 'I' for Inactive)
REMARK    1  A    between atoms: C_1  and  C_2
REMARK    2  A    between atoms: C_3  and  C_4
REMARK    3  A    between atoms: C_9  and  C_10
REMARK    4  A    between atoms: N_14  and  C_15
REMARK                            x       y       z     vdW  Elec       q    Type
REMARK                         _______ _______ _______ _____ _____    ______ ____
ROOT
ATOM      1  C   UNL     1       5.547  14.203  17.706  0.00  0.00    +0.000 C 
ATOM      2  C   UNL     1       5.828  15.476  18.422  0.00  0.00    +0.000 A 
ATOM      3  C   UNL     1       4.971  16.480  18.854  0.00  0.00    +0.000 A 
ATOM      4  C   UNL     1       5.823  17.433  19.442  0.00  0.00    +0.000 A 
ATOM      5  N   UNL     1       7.110  17.106  19.358  0.00  0.00    +0.000 NA
ATOM      6  N   UNL     1       7.109  15.887  18.744  0.00  0.00    +0.000 N 
ATOM      7  C   UNL     1       8.344  15.234  18.507  0.00  0.00    +0.000 A 
ATOM      8  N   UNL     1       8.447  13.987  18.168  0.00  0.00    +0.000 NA
ATOM      9  N   UNL     1       9.724  13.622  17.904  0.00  0.00    +0.000 N 
ATOM     10  C   UNL     1      10.197  12.348  17.762  0.00  0.00    +0.000 A 
ATOM     11  C   UNL     1      11.522  12.428  17.382  0.00  0.00    +0.000 A 
ATOM     12  C   UNL     1      11.854  13.802  17.288  0.00  0.00    +0.000 A 
ATOM     13  C   UNL     1      10.747  14.502  17.707  0.00  0.00    +0.000 A 
ATOM     14  C   UNL     1      10.500  15.887  17.922  0.00  0.00    +0.000 A 
ATOM     15  O   UNL     1      11.156  16.802  17.436  0.00  0.00    +0.000 OA
ATOM     16  N   UNL     1       9.395  16.100  18.702  0.00  0.00    +0.000 N 
ATOM     17  H   UNL     1       9.685  15.993  19.670  0.00  0.00    +0.000 HD
ENDROOT
BRANCH   3  18
ATOM     18  C   UNL     1       3.517  16.480  18.774  0.00  0.00    +0.000 C 
ATOM     19  O   UNL     1       2.944  17.259  18.005  0.00  0.00    +0.000 OA
ATOM     20  N   UNL     1       2.811  15.574  19.557  0.00  0.00    +0.000 N 
ATOM     21  C   UNL     1       1.405  15.328  19.244  0.00  0.00    +0.000 C 
ATOM     22  C   UNL     1       0.515  15.667  20.436  0.00  0.00    +0.000 C 
ATOM     23  C   UNL     1       0.957  14.922  21.704  0.00  0.00    +0.000 C 
ATOM     24  C   UNL     1       2.451  15.171  21.962  0.00  0.00    +0.000 C 
ATOM     25  C   UNL     1       3.328  14.891  20.742  0.00  0.00    +0.000 C 
BRANCH  23  26
ATOM     26  C   UNL     1       0.652  13.455  21.628  0.00  0.00    +0.000 A 
ATOM     27  N   UNL     1       1.461  12.515  21.167  0.00  0.00    +0.000 NA
ATOM     28  N   UNL     1       0.848  11.296  21.309  0.00  0.00    +0.000 NA
ATOM     29  C   UNL     1      -0.329  11.510  21.848  0.00  0.00    +0.000 A 
ATOM     30  N   UNL     1      -0.504  12.844  22.042  0.00  0.00    +0.000 N 
BRANCH  30  31
ATOM     31  C   UNL     1      -1.691  13.486  22.559  0.00  0.00    +0.000 C 
ATOM     32  C   UNL     1      -2.917  13.698  21.691  0.00  0.00    +0.000 C 
ATOM     33  C   UNL     1      -2.977  12.720  22.806  0.00  0.00    +0.000 C 
ENDBRANCH  30  31
ENDBRANCH  23  26
ENDBRANCH   3  18
TORSDOF 3
ENDMDL
MODEL 9
REMARK VINA RESULT:      -7.8      3.385      9.504
REMARK  Name = 
REMARK  4 active torsions:
REMARK  status: ('A' for Active; 'I' for Inactive)
REMARK    1  A    between atoms: C_1  and  C_2
REMARK    2  A    between atoms: C_3  and  C_4
REMARK    3  A    between atoms: C_9  and  C_10
REMARK    4  A    between atoms: N_14  and  C_15
REMARK                            x       y       z     vdW  Elec       q    Type
REMARK                         _______ _______ _______ _____ _____    ______ ____
ROOT
ATOM      1  C   UNL     1       0.412   8.528  21.062  0.00  0.00    +0.000 C 
ATOM      2  C   UNL     1       1.067   8.853  19.767  0.00  0.00    +0.000 A 
ATOM      3  C   UNL     1       1.070  10.026  19.024  0.00  0.00    +0.000 A 
ATOM      4  C   UNL     1       1.841   9.714  17.888  0.00  0.00    +0.000 A 
ATOM      5  N   UNL     1       2.256   8.451  17.869  0.00  0.00    +0.000 NA
ATOM      6  N   UNL     1       1.793   7.926  19.041  0.00  0.00    +0.000 N 
ATOM      7  C   UNL     1       2.076   6.572  19.349  0.00  0.00    +0.000 A 
ATOM      8  N   UNL     1       1.908   6.050  20.523  0.00  0.00    +0.000 NA
ATOM      9  N   UNL     1       2.155   4.719  20.543  0.00  0.00    +0.000 N 
ATOM     10  C   UNL     1       2.306   3.931  21.649  0.00  0.00    +0.000 A 
ATOM     11  C   UNL     1       2.425   2.623  21.225  0.00  0.00    +0.000 A 
ATOM     12  C   UNL     1       2.338   2.626  19.810  0.00  0.00    +0.000 A 
ATOM     13  C   UNL     1       2.265   3.944  19.425  0.00  0.00    +0.000 A 
ATOM     14  C   UNL     1       2.254   4.583  18.154  0.00  0.00    +0.000 A 
ATOM     15  O   UNL     1       1.960   4.038  17.096  0.00  0.00    +0.000 OA
ATOM     16  N   UNL     1       2.561   5.915  18.243  0.00  0.00    +0.000 N 
ATOM     17  H   UNL     1       3.573   5.989  18.280  0.00  0.00    +0.000 HD
ENDROOT
BRANCH   3  18
ATOM     18  C   UNL     1       0.471  11.299  19.399  0.00  0.00    +0.000 C 
ATOM     19  O   UNL     1      -0.733  11.357  19.667  0.00  0.00    +0.000 OA
ATOM     20  N   UNL     1       1.289  12.420  19.471  0.00  0.00    +0.000 N 
ATOM     21  C   UNL     1       0.790  13.607  20.163  0.00  0.00    +0.000 C 
ATOM     22  C   UNL     1       0.757  14.810  19.226  0.00  0.00    +0.000 C 
ATOM     23  C   UNL     1       2.125  15.062  18.577  0.00  0.00    +0.000 C 
ATOM     24  C   UNL     1       2.630  13.774  17.906  0.00  0.00    +0.000 C 
ATOM     25  C   UNL     1       2.598  12.560  18.835  0.00  0.00    +0.000 C 
BRANCH  23  26
ATOM     26  C   UNL     1       3.124  15.593  19.562  0.00  0.00    +0.000 A 
ATOM     27  N   UNL     1       4.338  15.112  19.778  0.00  0.00    +0.000 NA
ATOM     28  N   UNL     1       4.964  15.895  20.713  0.00  0.00    +0.000 NA
ATOM     29  C   UNL     1       4.123  16.840  21.059  0.00  0.00    +0.000 A 
ATOM     30  N   UNL     1       2.953  16.677  20.385  0.00  0.00    +0.000 N 
BRANCH  30  31
ATOM     31  C   UNL     1       1.760  17.478  20.534  0.00  0.00    +0.000 C 
ATOM     32  C   UNL     1       0.902  17.394  21.782  0.00  0.00    +0.000 C 
ATOM     33  C   UNL     1       1.681  18.629  21.518  0.00  0.00    +0.000 C 
ENDBRANCH  30  31
ENDBRANCH  23  26
ENDBRANCH   3  18
TORSDOF 3
ENDMDL
