MODEL 1
REMARK VINA RESULT:      -7.8      0.000      0.000
REMARK  Name = 
REMARK  2 active torsions:
REMARK  status: ('A' for Active; 'I' for Inactive)
REMARK    1  A    between atoms: C_1  and  N_2
REMARK    2  A    between atoms: C_3  and  C_5
REMARK                            x       y       z     vdW  Elec       q    Type
REMARK                         _______ _______ _______ _____ _____    ______ ____
ROOT
ATOM      1  C   UNL     1       5.386   5.046  15.864  0.00  0.00    +0.000 A 
ATOM      2  C   UNL     1       4.865   6.228  16.360  0.00  0.00    +0.000 A 
ATOM      3  C   UNL     1       3.886   6.011  17.366  0.00  0.00    +0.000 A 
ATOM      4  C   UNL     1       3.679   4.665  17.613  0.00  0.00    +0.000 A 
ATOM      5  S   UNL     1       4.653   3.686  16.613  0.00  0.00    +0.000 S 
ATOM      6  C   UNL     1       2.749   4.183  18.648  0.00  0.00    +0.000 A 
ATOM      7  C   UNL     1       2.284   2.866  18.735  0.00  0.00    +0.000 A 
ATOM      8  C   UNL     1       1.385   2.500  19.743  0.00  0.00    +0.000 A 
ATOM      9  C   UNL     1       0.948   3.440  20.676  0.00  0.00    +0.000 A 
ATOM     10  C   UNL     1       1.404   4.754  20.607  0.00  0.00    +0.000 A 
ATOM     11  C   UNL     1       2.289   5.139  19.593  0.00  0.00    +0.000 A 
ATOM     12  C   UNL     1       2.819   6.564  19.553  0.00  0.00    +0.000 C 
ATOM     13  C   UNL     1       3.118   7.049  18.126  0.00  0.00    +0.000 C 
ENDROOT
BRANCH   1  16
ATOM     14  C   UNL     1       7.079   4.048  12.661  0.00  0.00    +0.000 C 
ATOM     15  N   UNL     1       6.114   4.225  13.715  0.00  0.00    +0.000 N 
ATOM     16  C   UNL     1       6.426   4.942  14.850  0.00  0.00    +0.000 C 
ATOM     17  O   UNL     1       7.533   5.464  14.984  0.00  0.00    +0.000 OA
ATOM     18  H   UNL     1       5.197   3.801  13.643  0.00  0.00    +0.000 HD
ENDBRANCH   1  16
TORSDOF 1
ENDMDL
MODEL 2
REMARK VINA RESULT:      -7.1      1.085      2.438
REMARK  Name = 
REMARK  2 active torsions:
REMARK  status: ('A' for Active; 'I' for Inactive)
REMARK    1  A    between atoms: C_1  and  N_2
REMARK    2  A    between atoms: C_3  and  C_5
REMARK                            x       y       z     vdW  Elec       q    Type
REMARK                         _______ _______ _______ _____ _____    ______ ____
ROOT
ATOM      1  C   UNL     1       5.683   4.543  15.589  0.00  0.00    +0.000 A 
ATOM      2  C   UNL     1       5.242   3.321  16.065  0.00  0.00    +0.000 A 
ATOM      3  C   UNL     1       4.336   3.455  17.151  0.00  0.00    +0.000 A 
ATOM      4  C   UNL     1       4.109   4.780  17.481  0.00  0.00    +0.000 A 
ATOM      5  S   UNL     1       5.007   5.837  16.491  0.00  0.00    +0.000 S 
ATOM      6  C   UNL     1       3.168   5.181  18.541  0.00  0.00    +0.000 A 
ATOM      7  C   UNL     1       3.125   6.459  19.110  0.00  0.00    +0.000 A 
ATOM      8  C   UNL     1       2.209   6.748  20.128  0.00  0.00    +0.000 A 
ATOM      9  C   UNL     1       1.324   5.770  20.581  0.00  0.00    +0.000 A 
ATOM     10  C   UNL     1       1.351   4.494  20.023  0.00  0.00    +0.000 A 
ATOM     11  C   UNL     1       2.275   4.185  19.017  0.00  0.00    +0.000 A 
ATOM     12  C   UNL     1       2.264   2.804  18.380  0.00  0.00    +0.000 C 
ATOM     13  C   UNL     1       3.657   2.356  17.908  0.00  0.00    +0.000 C 
ENDROOT
BRANCH   1  16
ATOM     14  C   UNL     1       7.161   4.126  12.159  0.00  0.00    +0.000 C 
ATOM     15  N   UNL     1       6.314   4.021  13.318  0.00  0.00    +0.000 N 
ATOM     16  C   UNL     1       6.591   4.734  14.465  0.00  0.00    +0.000 C 
ATOM     17  O   UNL     1       7.559   5.492  14.522  0.00  0.00    +0.000 OA
ATOM     18  H   UNL     1       5.515   3.400  13.312  0.00  0.00    +0.000 HD
ENDBRANCH   1  16
TORSDOF 1
ENDMDL
MODEL 3
REMARK VINA RESULT:      -6.9      2.401      3.010
REMARK  Name = 
REMARK  2 active torsions:
REMARK  status: ('A' for Active; 'I' for Inactive)
REMARK    1  A    between atoms: C_1  and  N_2
REMARK    2  A    between atoms: C_3  and  C_5
REMARK                            x       y       z     vdW  Elec       q    Type
REMARK                         _______ _______ _______ _____ _____    ______ ____
ROOT
ATOM      1  C   UNL     1       5.745   5.772  17.529  0.00  0.00    +0.000 A 
ATOM      2  C   UNL     1       4.858   5.166  16.659  0.00  0.00    +0.000 A 
ATOM      3  C   UNL     1       3.828   4.459  17.337  0.00  0.00    +0.000 A 
ATOM      4  C   UNL     1       3.957   4.540  18.713  0.00  0.00    +0.000 A 
ATOM      5  S   UNL     1       5.328   5.448  19.162  0.00  0.00    +0.000 S 
ATOM      6  C   UNL     1       2.985   3.932  19.637  0.00  0.00    +0.000 A 
ATOM      7  C   UNL     1       3.220   3.726  21.000  0.00  0.00    +0.000 A 
ATOM      8  C   UNL     1       2.244   3.123  21.802  0.00  0.00    +0.000 A 
ATOM      9  C   UNL     1       1.025   2.725  21.253  0.00  0.00    +0.000 A 
ATOM     10  C   UNL     1       0.773   2.925  19.898  0.00  0.00    +0.000 A 
ATOM     11  C   UNL     1       1.748   3.511  19.080  0.00  0.00    +0.000 A 
ATOM     12  C   UNL     1       1.446   3.770  17.612  0.00  0.00    +0.000 C 
ATOM     13  C   UNL     1       2.698   3.691  16.724  0.00  0.00    +0.000 C 
ENDROOT
BRANCH   1  16
ATOM     14  C   UNL     1       8.209   8.610  17.573  0.00  0.00    +0.000 C 
ATOM     15  N   UNL     1       7.119   7.724  17.890  0.00  0.00    +0.000 N 
ATOM     16  C   UNL     1       6.884   6.592  17.138  0.00  0.00    +0.000 C 
ATOM     17  O   UNL     1       7.611   6.301  16.188  0.00  0.00    +0.000 OA
ATOM     18  H   UNL     1       6.495   7.936  18.657  0.00  0.00    +0.000 HD
ENDBRANCH   1  16
TORSDOF 1
ENDMDL
MODEL 4
REMARK VINA RESULT:      -6.6      3.147      6.309
REMARK  Name = 
REMARK  2 active torsions:
REMARK  status: ('A' for Active; 'I' for Inactive)
REMARK    1  A    between atoms: C_1  and  N_2
REMARK    2  A    between atoms: C_3  and  C_5
REMARK                            x       y       z     vdW  Elec       q    Type
REMARK                         _______ _______ _______ _____ _____    ______ ____
ROOT
ATOM      1  C   UNL     1       3.675   4.278  19.089  0.00  0.00    +0.000 A 
ATOM      2  C   UNL     1       4.924   4.819  19.338  0.00  0.00    +0.000 A 
ATOM      3  C   UNL     1       5.730   4.887  18.171  0.00  0.00    +0.000 A 
ATOM      4  C   UNL     1       5.078   4.391  17.055  0.00  0.00    +0.000 A 
ATOM      5  S   UNL     1       3.514   3.833  17.439  0.00  0.00    +0.000 S 
ATOM      6  C   UNL     1       5.685   4.399  15.714  0.00  0.00    +0.000 A 
ATOM      7  C   UNL     1       5.207   3.653  14.631  0.00  0.00    +0.000 A 
ATOM      8  C   UNL     1       5.859   3.707  13.393  0.00  0.00    +0.000 A 
ATOM      9  C   UNL     1       6.989   4.508  13.224  0.00  0.00    +0.000 A 
ATOM     10  C   UNL     1       7.476   5.259  14.291  0.00  0.00    +0.000 A 
ATOM     11  C   UNL     1       6.845   5.201  15.539  0.00  0.00    +0.000 A 
ATOM     12  C   UNL     1       7.355   6.061  16.685  0.00  0.00    +0.000 C 
ATOM     13  C   UNL     1       7.127   5.416  18.061  0.00  0.00    +0.000 C 
ENDROOT
BRANCH   1  16
ATOM     14  C   UNL     1       1.546   2.617  21.703  0.00  0.00    +0.000 C 
ATOM     15  N   UNL     1       2.566   2.892  20.724  0.00  0.00    +0.000 N 
ATOM     16  C   UNL     1       2.617   4.107  20.075  0.00  0.00    +0.000 C 
ATOM     17  O   UNL     1       1.803   4.996  20.329  0.00  0.00    +0.000 OA
ATOM     18  H   UNL     1       3.245   2.182  20.482  0.00  0.00    +0.000 HD
ENDBRANCH   1  16
TORSDOF 1
ENDMDL
MODEL 5
REMARK VINA RESULT:      -6.5      3.690      6.417
REMARK  Name = 
REMARK  2 active torsions:
REMARK  status: ('A' for Active; 'I' for Inactive)
REMARK    1  A    between atoms: C_1  and  N_2
REMARK    2  A    between atoms: C_3  and  C_5
REMARK                            x       y       z     vdW  Elec       q    Type
REMARK                         _______ _______ _______ _____ _____    ______ ____
ROOT
ATOM      1  C   UNL     1       2.230   7.302  19.356  0.00  0.00    +0.000 A 
ATOM      2  C   UNL     1       2.051   5.941  19.527  0.00  0.00    +0.000 A 
ATOM      3  C   UNL     1       2.837   5.171  18.628  0.00  0.00    +0.000 A 
ATOM      4  C   UNL     1       3.597   5.965  17.787  0.00  0.00    +0.000 A 
ATOM      5  S   UNL     1       3.334   7.623  18.081  0.00  0.00    +0.000 S 
ATOM      6  C   UNL     1       4.533   5.403  16.799  0.00  0.00    +0.000 A 
ATOM      7  C   UNL     1       5.088   6.130  15.740  0.00  0.00    +0.000 A 
ATOM      8  C   UNL     1       5.956   5.509  14.835  0.00  0.00    +0.000 A 
ATOM      9  C   UNL     1       6.283   4.161  14.981  0.00  0.00    +0.000 A 
ATOM     10  C   UNL     1       5.742   3.423  16.031  0.00  0.00    +0.000 A 
ATOM     11  C   UNL     1       4.857   4.027  16.933  0.00  0.00    +0.000 A 
ATOM     12  C   UNL     1       4.310   3.226  18.104  0.00  0.00    +0.000 C 
ATOM     13  C   UNL     1       2.903   3.678  18.528  0.00  0.00    +0.000 C 
ENDROOT
BRANCH   1  16
ATOM     14  C   UNL     1       1.048   9.184  22.387  0.00  0.00    +0.000 C 
ATOM     15  N   UNL     1       1.666   8.216  21.517  0.00  0.00    +0.000 N 
ATOM     16  C   UNL     1       1.589   8.344  20.147  0.00  0.00    +0.000 C 
ATOM     17  O   UNL     1       1.007   9.298  19.631  0.00  0.00    +0.000 OA
ATOM     18  H   UNL     1       2.144   7.414  21.905  0.00  0.00    +0.000 HD
ENDBRANCH   1  16
TORSDOF 1
ENDMDL
MODEL 6
REMARK VINA RESULT:      -6.5      1.453      2.665
REMARK  Name = 
REMARK  2 active torsions:
REMARK  status: ('A' for Active; 'I' for Inactive)
REMARK    1  A    between atoms: C_1  and  N_2
REMARK    2  A    between atoms: C_3  and  C_5
REMARK                            x       y       z     vdW  Elec       q    Type
REMARK                         _______ _______ _______ _____ _____    ______ ____
ROOT
ATOM      1  C   UNL     1       5.626   4.525  15.511  0.00  0.00    +0.000 A 
ATOM      2  C   UNL     1       5.365   3.404  16.279  0.00  0.00    +0.000 A 
ATOM      3  C   UNL     1       4.531   3.689  17.392  0.00  0.00    +0.000 A 
ATOM      4  C   UNL     1       4.176   5.025  17.451  0.00  0.00    +0.000 A 
ATOM      5  S   UNL     1       4.872   5.916  16.176  0.00  0.00    +0.000 S 
ATOM      6  C   UNL     1       3.274   5.561  18.485  0.00  0.00    +0.000 A 
ATOM      7  C   UNL     1       3.126   6.923  18.769  0.00  0.00    +0.000 A 
ATOM      8  C   UNL     1       2.258   7.342  19.784  0.00  0.00    +0.000 A 
ATOM      9  C   UNL     1       1.528   6.409  20.520  0.00  0.00    +0.000 A 
ATOM     10  C   UNL     1       1.661   5.050  20.248  0.00  0.00    +0.000 A 
ATOM     11  C   UNL     1       2.539   4.615  19.248  0.00  0.00    +0.000 A 
ATOM     12  C   UNL     1       2.642   3.132  18.926  0.00  0.00    +0.000 C 
ATOM     13  C   UNL     1       4.040   2.727  18.430  0.00  0.00    +0.000 C 
ENDROOT
BRANCH   1  16
ATOM     14  C   UNL     1       8.298   5.562  13.080  0.00  0.00    +0.000 C 
ATOM     15  N   UNL     1       7.463   5.449  14.248  0.00  0.00    +0.000 N 
ATOM     16  C   UNL     1       6.422   4.547  14.291  0.00  0.00    +0.000 C 
ATOM     17  O   UNL     1       6.190   3.801  13.340  0.00  0.00    +0.000 OA
ATOM     18  H   UNL     1       7.617   6.053  15.045  0.00  0.00    +0.000 HD
ENDBRANCH   1  16
TORSDOF 1
ENDMDL
MODEL 7
REMARK VINA RESULT:      -6.4      3.872      5.358
REMARK  Name = 
REMARK  2 active torsions:
REMARK  status: ('A' for Active; 'I' for Inactive)
REMARK    1  A    between atoms: C_1  and  N_2
REMARK    2  A    between atoms: C_3  and  C_5
REMARK                            x       y       z     vdW  Elec       q    Type
REMARK                         _______ _______ _______ _____ _____    ______ ____
ROOT
ATOM      1  C   UNL     1       2.207   8.616  18.500  0.00  0.00    +0.000 A 
ATOM      2  C   UNL     1       2.970   7.872  17.618  0.00  0.00    +0.000 A 
ATOM      3  C   UNL     1       3.132   6.525  18.040  0.00  0.00    +0.000 A 
ATOM      4  C   UNL     1       2.491   6.273  19.240  0.00  0.00    +0.000 A 
ATOM      5  S   UNL     1       1.723   7.668  19.847  0.00  0.00    +0.000 S 
ATOM      6  C   UNL     1       2.469   4.938  19.862  0.00  0.00    +0.000 A 
ATOM      7  C   UNL     1       2.106   4.696  21.191  0.00  0.00    +0.000 A 
ATOM      8  C   UNL     1       2.132   3.394  21.704  0.00  0.00    +0.000 A 
ATOM      9  C   UNL     1       2.515   2.323  20.897  0.00  0.00    +0.000 A 
ATOM     10  C   UNL     1       2.877   2.546  19.570  0.00  0.00    +0.000 A 
ATOM     11  C   UNL     1       2.873   3.845  19.049  0.00  0.00    +0.000 A 
ATOM     12  C   UNL     1       3.223   4.073  17.586  0.00  0.00    +0.000 C 
ATOM     13  C   UNL     1       3.886   5.438  17.339  0.00  0.00    +0.000 C 
ENDROOT
BRANCH   1  16
ATOM     14  C   UNL     1       0.392  11.862  19.040  0.00  0.00    +0.000 C 
ATOM     15  N   UNL     1       0.841  10.497  19.145  0.00  0.00    +0.000 N 
ATOM     16  C   UNL     1       1.840  10.015  18.328  0.00  0.00    +0.000 C 
ATOM     17  O   UNL     1       2.387  10.742  17.499  0.00  0.00    +0.000 OA
ATOM     18  H   UNL     1       0.407   9.867  19.808  0.00  0.00    +0.000 HD
ENDBRANCH   1  16
TORSDOF 1
ENDMDL
MODEL 8
REMARK VINA RESULT:      -6.3      4.158      5.580
REMARK  Name = 
REMARK  2 active torsions:
REMARK  status: ('A' for Active; 'I' for Inactive)
REMARK    1  A    between atoms: C_1  and  N_2
REMARK    2  A    between atoms: C_3  and  C_5
REMARK                            x       y       z     vdW  Elec       q    Type
REMARK                         _______ _______ _______ _____ _____    ______ ____
ROOT
ATOM      1  C   UNL     1       1.823   9.028  18.824  0.00  0.00    +0.000 A 
ATOM      2  C   UNL     1       2.628   8.421  17.876  0.00  0.00    +0.000 A 
ATOM      3  C   UNL     1       2.900   7.061  18.183  0.00  0.00    +0.000 A 
ATOM      4  C   UNL     1       2.298   6.661  19.363  0.00  0.00    +0.000 A 
ATOM      5  S   UNL     1       1.434   7.937  20.091  0.00  0.00    +0.000 S 
ATOM      6  C   UNL     1       2.388   5.281  19.871  0.00  0.00    +0.000 A 
ATOM      7  C   UNL     1       2.064   4.902  21.178  0.00  0.00    +0.000 A 
ATOM      8  C   UNL     1       2.198   3.568  21.580  0.00  0.00    +0.000 A 
ATOM      9  C   UNL     1       2.650   2.602  20.682  0.00  0.00    +0.000 A 
ATOM     10  C   UNL     1       2.974   2.961  19.377  0.00  0.00    +0.000 A 
ATOM     11  C   UNL     1       2.862   4.295  18.965  0.00  0.00    +0.000 A 
ATOM     12  C   UNL     1       3.172   4.669  17.524  0.00  0.00    +0.000 C 
ATOM     13  C   UNL     1       3.724   6.097  17.386  0.00  0.00    +0.000 C 
ENDROOT
BRANCH   1  16
ATOM     14  C   UNL     1       1.797  12.708  18.064  0.00  0.00    +0.000 C 
ATOM     15  N   UNL     1       2.169  11.319  18.152  0.00  0.00    +0.000 N 
ATOM     16  C   UNL     1       1.347  10.403  18.773  0.00  0.00    +0.000 C 
ATOM     17  O   UNL     1       0.266  10.745  19.252  0.00  0.00    +0.000 OA
ATOM     18  H   UNL     1       3.054  11.004  17.778  0.00  0.00    +0.000 HD
ENDBRANCH   1  16
TORSDOF 1
ENDMDL
MODEL 9
REMARK VINA RESULT:      -6.3      4.387      5.885
REMARK  Name = 
REMARK  2 active torsions:
REMARK  status: ('A' for Active; 'I' for Inactive)
REMARK    1  A    between atoms: C_1  and  N_2
REMARK    2  A    between atoms: C_3  and  C_5
REMARK                            x       y       z     vdW  Elec       q    Type
REMARK                         _______ _______ _______ _____ _____    ______ ____
ROOT
ATOM      1  C   UNL     1       2.717   6.911  18.859  0.00  0.00    +0.000 A 
ATOM      2  C   UNL     1       2.405   8.010  18.078  0.00  0.00    +0.000 A 
ATOM      3  C   UNL     1       1.625   8.970  18.777  0.00  0.00    +0.000 A 
ATOM      4  C   UNL     1       1.356   8.579  20.077  0.00  0.00    +0.000 A 
ATOM      5  S   UNL     1       2.030   7.053  20.426  0.00  0.00    +0.000 S 
ATOM      6  C   UNL     1       0.607   9.426  21.020  0.00  0.00    +0.000 A 
ATOM      7  C   UNL     1       0.057   8.967  22.222  0.00  0.00    +0.000 A 
ATOM      8  C   UNL     1      -0.657   9.840  23.051  0.00  0.00    +0.000 A 
ATOM      9  C   UNL     1      -0.823  11.178  22.692  0.00  0.00    +0.000 A 
ATOM     10  C   UNL     1      -0.280  11.652  21.501  0.00  0.00    +0.000 A 
ATOM     11  C   UNL     1       0.422  10.786  20.653  0.00  0.00    +0.000 A 
ATOM     12  C   UNL     1       1.053  11.323  19.378  0.00  0.00    +0.000 C 
ATOM     13  C   UNL     1       1.110  10.276  18.255  0.00  0.00    +0.000 C 
ENDROOT
BRANCH   1  16
ATOM     14  C   UNL     1       4.676   3.713  19.095  0.00  0.00    +0.000 C 
ATOM     15  N   UNL     1       3.862   4.859  19.407  0.00  0.00    +0.000 N 
ATOM     16  C   UNL     1       3.528   5.778  18.436  0.00  0.00    +0.000 C 
ATOM     17  O   UNL     1       3.903   5.633  17.272  0.00  0.00    +0.000 OA
ATOM     18  H   UNL     1       3.545   5.016  20.355  0.00  0.00    +0.000 HD
ENDBRANCH   1  16
TORSDOF 1
ENDMDL
