MODEL 1
REMARK VINA RESULT:      -7.6      0.000      0.000
REMARK  Name = 
REMARK  4 active torsions:
REMARK  status: ('A' for Active; 'I' for Inactive)
REMARK    1  A    between atoms: C_2  and  C_14
REMARK    2  A    between atoms: N_3  and  C_4
REMARK    3  A    between atoms: N_18  and  S_19
REMARK    4  A    between atoms: S_19  and  C_22
REMARK                            x       y       z     vdW  Elec       q    Type
REMARK                         _______ _______ _______ _____ _____    ______ ____
ROOT
ATOM      1  C   UNL     1      -2.472   9.694  17.451  0.00  0.00    +0.000 C 
ATOM      2  C   UNL     1      -2.428   9.910  15.938  0.00  0.00    +0.000 C 
ATOM      3  C   UNL     1      -3.183  11.155  15.484  0.00  0.00    +0.000 C 
ATOM      4  C   UNL     1      -4.568  11.276  16.118  0.00  0.00    +0.000 C 
ATOM      5  N   UNL     1      -4.494  11.166  17.614  0.00  0.00    +0.000 NA
ATOM      6  C   UNL     1      -3.875   9.847  18.014  0.00  0.00    +0.000 C 
ENDROOT
BRANCH   1   8
ATOM      7  O   UNL     1      -0.310  10.111  18.353  0.00  0.00    +0.000 OA
ATOM      8  C   UNL     1      -1.450  10.542  18.207  0.00  0.00    +0.000 C 
ATOM      9  N   UNL     1      -1.923  11.767  18.642  0.00  0.00    +0.000 N 
ATOM     10  H   UNL     1      -2.933  11.871  18.618  0.00  0.00    +0.000 HD
BRANCH   9  11
ATOM     11  C   UNL     1      -1.184  12.825  19.229  0.00  0.00    +0.000 A 
ATOM     12  C   UNL     1      -0.465  13.730  18.442  0.00  0.00    +0.000 A 
ATOM     13  C   UNL     1       0.267  14.768  19.018  0.00  0.00    +0.000 A 
ATOM     14  C   UNL     1       0.268  14.940  20.392  0.00  0.00    +0.000 A 
ATOM     15  C   UNL     1      -0.469  14.078  21.211  0.00  0.00    +0.000 A 
ATOM     16  C   UNL     1      -1.183  12.996  20.638  0.00  0.00    +0.000 A 
ATOM     17  C   UNL     1      -1.951  12.059  21.544  0.00  0.00    +0.000 C 
ATOM     18  C   UNL     1      -1.573  12.157  23.021  0.00  0.00    +0.000 C 
ATOM     19  C   UNL     1      -1.508  13.599  23.474  0.00  0.00    +0.000 C 
ATOM     20  C   UNL     1      -0.408  14.316  22.707  0.00  0.00    +0.000 C 
ENDBRANCH   9  11
ENDBRANCH   1   8
BRANCH   5  21
ATOM     21  S   UNL     1      -6.045  11.332  18.411  0.00  0.00    +0.000 S 
ATOM     22  O   UNL     1      -6.862  12.166  17.556  0.00  0.00    +0.000 OA
ATOM     23  O   UNL     1      -6.489  10.008  18.783  0.00  0.00    +0.000 OA
BRANCH  21  24
ATOM     24  C   UNL     1      -5.717  12.240  19.872  0.00  0.00    +0.000 A 
ATOM     25  C   UNL     1      -4.886  13.385  19.837  0.00  0.00    +0.000 A 
ATOM     26  C   UNL     1      -4.640  14.199  20.971  0.00  0.00    +0.000 A 
ATOM     27  C   UNL     1      -5.234  13.963  22.224  0.00  0.00    +0.000 A 
ATOM     28  C   UNL     1      -6.112  12.864  22.263  0.00  0.00    +0.000 A 
ATOM     29  N   UNL     1      -6.833  12.409  23.293  0.00  0.00    +0.000 NA
ATOM     30  O   UNL     1      -7.514  11.304  22.815  0.00  0.00    +0.000 OA
ATOM     31  N   UNL     1      -7.216  11.053  21.491  0.00  0.00    +0.000 NA
ATOM     32  C   UNL     1      -6.355  12.004  21.104  0.00  0.00    +0.000 A 
ENDBRANCH  21  24
ENDBRANCH   5  21
TORSDOF 4
ENDMDL
MODEL 2
REMARK VINA RESULT:      -7.5      4.859      7.377
REMARK  Name = 
REMARK  4 active torsions:
REMARK  status: ('A' for Active; 'I' for Inactive)
REMARK    1  A    between atoms: C_2  and  C_14
REMARK    2  A    between atoms: N_3  and  C_4
REMARK    3  A    between atoms: N_18  and  S_19
REMARK    4  A    between atoms: S_19  and  C_22
REMARK                            x       y       z     vdW  Elec       q    Type
REMARK                         _______ _______ _______ _____ _____    ______ ____
ROOT
ATOM      1  C   UNL     1       1.605   9.713  21.177  0.00  0.00    +0.000 C 
ATOM      2  C   UNL     1       1.043   9.095  22.458  0.00  0.00    +0.000 C 
ATOM      3  C   UNL     1      -0.481   9.080  22.502  0.00  0.00    +0.000 C 
ATOM      4  C   UNL     1      -1.102  10.418  22.099  0.00  0.00    +0.000 C 
ATOM      5  N   UNL     1      -0.573  10.886  20.774  0.00  0.00    +0.000 NA
ATOM      6  C   UNL     1       0.930  11.030  20.829  0.00  0.00    +0.000 C 
ENDROOT
BRANCH   1   8
ATOM      7  O   UNL     1       0.988   9.025  18.985  0.00  0.00    +0.000 OA
ATOM      8  C   UNL     1       1.619   8.741  19.999  0.00  0.00    +0.000 C 
ATOM      9  N   UNL     1       2.393   7.611  20.190  0.00  0.00    +0.000 N 
ATOM     10  H   UNL     1       2.673   7.439  21.151  0.00  0.00    +0.000 HD
BRANCH   9  11
ATOM     11  C   UNL     1       2.724   6.613  19.239  0.00  0.00    +0.000 A 
ATOM     12  C   UNL     1       3.539   6.901  18.140  0.00  0.00    +0.000 A 
ATOM     13  C   UNL     1       3.861   5.923  17.200  0.00  0.00    +0.000 A 
ATOM     14  C   UNL     1       3.398   4.627  17.359  0.00  0.00    +0.000 A 
ATOM     15  C   UNL     1       2.612   4.290  18.465  0.00  0.00    +0.000 A 
ATOM     16  C   UNL     1       2.246   5.287  19.404  0.00  0.00    +0.000 A 
ATOM     17  C   UNL     1       1.371   4.906  20.578  0.00  0.00    +0.000 C 
ATOM     18  C   UNL     1       0.663   3.561  20.429  0.00  0.00    +0.000 C 
ATOM     19  C   UNL     1       1.618   2.490  19.951  0.00  0.00    +0.000 C 
ATOM     20  C   UNL     1       2.128   2.856  18.565  0.00  0.00    +0.000 C 
ENDBRANCH   9  11
ENDBRANCH   1   8
BRANCH   5  21
ATOM     21  S   UNL     1      -1.269  12.400  20.232  0.00  0.00    +0.000 S 
ATOM     22  O   UNL     1      -1.727  13.091  21.417  0.00  0.00    +0.000 OA
ATOM     23  O   UNL     1      -0.318  13.024  19.341  0.00  0.00    +0.000 OA
BRANCH  21  24
ATOM     24  C   UNL     1      -2.686  11.950  19.307  0.00  0.00    +0.000 A 
ATOM     25  C   UNL     1      -3.964  12.444  19.661  0.00  0.00    +0.000 A 
ATOM     26  C   UNL     1      -5.135  12.171  18.911  0.00  0.00    +0.000 A 
ATOM     27  C   UNL     1      -5.124  11.415  17.724  0.00  0.00    +0.000 A 
ATOM     28  C   UNL     1      -3.852  10.967  17.323  0.00  0.00    +0.000 A 
ATOM     29  N   UNL     1      -3.523  10.254  16.241  0.00  0.00    +0.000 NA
ATOM     30  O   UNL     1      -2.155  10.064  16.319  0.00  0.00    +0.000 OA
ATOM     31  N   UNL     1      -1.622  10.643  17.453  0.00  0.00    +0.000 NA
ATOM     32  C   UNL     1      -2.640  11.224  18.102  0.00  0.00    +0.000 A 
ENDBRANCH  21  24
ENDBRANCH   5  21
TORSDOF 4
ENDMDL
MODEL 3
REMARK VINA RESULT:      -7.4      4.935      7.336
REMARK  Name = 
REMARK  4 active torsions:
REMARK  status: ('A' for Active; 'I' for Inactive)
REMARK    1  A    between atoms: C_2  and  C_14
REMARK    2  A    between atoms: N_3  and  C_4
REMARK    3  A    between atoms: N_18  and  S_19
REMARK    4  A    between atoms: S_19  and  C_22
REMARK                            x       y       z     vdW  Elec       q    Type
REMARK                         _______ _______ _______ _____ _____    ______ ____
ROOT
ATOM      1  C   UNL     1       1.700   9.606  20.979  0.00  0.00    +0.000 C 
ATOM      2  C   UNL     1       1.252   8.948  22.284  0.00  0.00    +0.000 C 
ATOM      3  C   UNL     1      -0.260   8.782  22.388  0.00  0.00    +0.000 C 
ATOM      4  C   UNL     1      -1.027  10.047  22.001  0.00  0.00    +0.000 C 
ATOM      5  N   UNL     1      -0.598  10.551  20.652  0.00  0.00    +0.000 NA
ATOM      6  C   UNL     1       0.884  10.845  20.648  0.00  0.00    +0.000 C 
ENDROOT
BRANCH   1   8
ATOM      7  O   UNL     1       1.271   8.952  18.732  0.00  0.00    +0.000 OA
ATOM      8  C   UNL     1       1.767   8.628  19.807  0.00  0.00    +0.000 C 
ATOM      9  N   UNL     1       2.428   7.444  20.079  0.00  0.00    +0.000 N 
ATOM     10  H   UNL     1       2.590   7.258  21.064  0.00  0.00    +0.000 HD
BRANCH   9  11
ATOM     11  C   UNL     1       2.783   6.417  19.167  0.00  0.00    +0.000 A 
ATOM     12  C   UNL     1       3.628   6.672  18.082  0.00  0.00    +0.000 A 
ATOM     13  C   UNL     1       3.973   5.665  17.181  0.00  0.00    +0.000 A 
ATOM     14  C   UNL     1       3.504   4.375  17.366  0.00  0.00    +0.000 A 
ATOM     15  C   UNL     1       2.687   4.072  18.460  0.00  0.00    +0.000 A 
ATOM     16  C   UNL     1       2.298   5.097  19.359  0.00  0.00    +0.000 A 
ATOM     17  C   UNL     1       1.391   4.753  20.520  0.00  0.00    +0.000 C 
ATOM     18  C   UNL     1       0.684   3.405  20.392  0.00  0.00    +0.000 C 
ATOM     19  C   UNL     1       1.650   2.319  19.972  0.00  0.00    +0.000 C 
ATOM     20  C   UNL     1       2.198   2.643  18.590  0.00  0.00    +0.000 C 
ENDBRANCH   9  11
ENDBRANCH   1   8
BRANCH   5  21
ATOM     21  S   UNL     1      -1.463  11.982  20.128  0.00  0.00    +0.000 S 
ATOM     22  O   UNL     1      -2.441  12.272  21.154  0.00  0.00    +0.000 OA
ATOM     23  O   UNL     1      -0.481  12.972  19.751  0.00  0.00    +0.000 OA
BRANCH  21  24
ATOM     24  C   UNL     1      -2.337  11.491  18.693  0.00  0.00    +0.000 A 
ATOM     25  C   UNL     1      -1.720  10.670  17.720  0.00  0.00    +0.000 A 
ATOM     26  C   UNL     1      -2.398  10.184  16.573  0.00  0.00    +0.000 A 
ATOM     27  C   UNL     1      -3.757  10.443  16.323  0.00  0.00    +0.000 A 
ATOM     28  C   UNL     1      -4.404  11.207  17.311  0.00  0.00    +0.000 A 
ATOM     29  N   UNL     1      -5.684  11.592  17.363  0.00  0.00    +0.000 NA
ATOM     30  O   UNL     1      -5.806  12.331  18.525  0.00  0.00    +0.000 OA
ATOM     31  N   UNL     1      -4.605  12.425  19.200  0.00  0.00    +0.000 NA
ATOM     32  C   UNL     1      -3.708  11.732  18.487  0.00  0.00    +0.000 A 
ENDBRANCH  21  24
ENDBRANCH   5  21
TORSDOF 4
ENDMDL
MODEL 4
REMARK VINA RESULT:      -7.0      5.172      7.810
REMARK  Name = 
REMARK  4 active torsions:
REMARK  status: ('A' for Active; 'I' for Inactive)
REMARK    1  A    between atoms: C_2  and  C_14
REMARK    2  A    between atoms: N_3  and  C_4
REMARK    3  A    between atoms: N_18  and  S_19
REMARK    4  A    between atoms: S_19  and  C_22
REMARK                            x       y       z     vdW  Elec       q    Type
REMARK                         _______ _______ _______ _____ _____    ______ ____
ROOT
ATOM      1  C   UNL     1       1.869   8.986  20.311  0.00  0.00    +0.000 C 
ATOM      2  C   UNL     1       1.294   8.469  21.630  0.00  0.00    +0.000 C 
ATOM      3  C   UNL     1      -0.229   8.515  21.682  0.00  0.00    +0.000 C 
ATOM      4  C   UNL     1      -0.803   9.848  21.201  0.00  0.00    +0.000 C 
ATOM      5  N   UNL     1      -0.266  10.213  19.846  0.00  0.00    +0.000 NA
ATOM      6  C   UNL     1       1.242  10.303  19.885  0.00  0.00    +0.000 C 
ENDROOT
BRANCH   1   8
ATOM      7  O   UNL     1       1.462   8.279  18.076  0.00  0.00    +0.000 OA
ATOM      8  C   UNL     1       1.839   7.943  19.195  0.00  0.00    +0.000 C 
ATOM      9  N   UNL     1       2.282   6.686  19.565  0.00  0.00    +0.000 N 
ATOM     10  H   UNL     1       2.357   6.535  20.566  0.00  0.00    +0.000 HD
BRANCH   9  11
ATOM     11  C   UNL     1       2.513   5.565  18.729  0.00  0.00    +0.000 A 
ATOM     12  C   UNL     1       1.654   4.461  18.742  0.00  0.00    +0.000 A 
ATOM     13  C   UNL     1       1.883   3.355  17.926  0.00  0.00    +0.000 A 
ATOM     14  C   UNL     1       2.961   3.343  17.056  0.00  0.00    +0.000 A 
ATOM     15  C   UNL     1       3.822   4.443  16.986  0.00  0.00    +0.000 A 
ATOM     16  C   UNL     1       3.621   5.556  17.842  0.00  0.00    +0.000 A 
ATOM     17  C   UNL     1       4.580   6.722  17.769  0.00  0.00    +0.000 C 
ATOM     18  C   UNL     1       5.889   6.421  17.042  0.00  0.00    +0.000 C 
ATOM     19  C   UNL     1       5.635   5.701  15.736  0.00  0.00    +0.000 C 
ATOM     20  C   UNL     1       4.990   4.354  16.023  0.00  0.00    +0.000 C 
ENDBRANCH   9  11
ENDBRANCH   1   8
BRANCH   5  21
ATOM     21  S   UNL     1      -0.909  11.716  19.215  0.00  0.00    +0.000 S 
ATOM     22  O   UNL     1      -1.609  12.356  20.307  0.00  0.00    +0.000 OA
ATOM     23  O   UNL     1       0.166  12.398  18.532  0.00  0.00    +0.000 OA
BRANCH  21  24
ATOM     24  C   UNL     1      -2.108  11.241  18.029  0.00  0.00    +0.000 A 
ATOM     25  C   UNL     1      -1.756  10.403  16.946  0.00  0.00    +0.000 A 
ATOM     26  C   UNL     1      -2.695   9.929  15.995  0.00  0.00    +0.000 A 
ATOM     27  C   UNL     1      -4.069  10.220  16.069  0.00  0.00    +0.000 A 
ATOM     28  C   UNL     1      -4.448  11.002  17.176  0.00  0.00    +0.000 A 
ATOM     29  N   UNL     1      -5.670  11.417  17.524  0.00  0.00    +0.000 NA
ATOM     30  O   UNL     1      -5.499  12.163  18.676  0.00  0.00    +0.000 OA
ATOM     31  N   UNL     1      -4.171  12.231  19.049  0.00  0.00    +0.000 NA
ATOM     32  C   UNL     1      -3.483  11.515  18.150  0.00  0.00    +0.000 A 
ENDBRANCH  21  24
ENDBRANCH   5  21
TORSDOF 4
ENDMDL
MODEL 5
REMARK VINA RESULT:      -7.0      5.329      8.459
REMARK  Name = 
REMARK  4 active torsions:
REMARK  status: ('A' for Active; 'I' for Inactive)
REMARK    1  A    between atoms: C_2  and  C_14
REMARK    2  A    between atoms: N_3  and  C_4
REMARK    3  A    between atoms: N_18  and  S_19
REMARK    4  A    between atoms: S_19  and  C_22
REMARK                            x       y       z     vdW  Elec       q    Type
REMARK                         _______ _______ _______ _____ _____    ______ ____
ROOT
ATOM      1  C   UNL     1       1.361   9.117  21.840  0.00  0.00    +0.000 C 
ATOM      2  C   UNL     1       0.743   9.357  23.218  0.00  0.00    +0.000 C 
ATOM      3  C   UNL     1      -0.693   9.868  23.154  0.00  0.00    +0.000 C 
ATOM      4  C   UNL     1      -0.877  11.007  22.152  0.00  0.00    +0.000 C 
ATOM      5  N   UNL     1      -0.343  10.633  20.799  0.00  0.00    +0.000 NA
ATOM      6  C   UNL     1       1.124  10.282  20.892  0.00  0.00    +0.000 C 
ENDROOT
BRANCH   1   8
ATOM      7  O   UNL     1      -0.236   7.553  21.025  0.00  0.00    +0.000 OA
ATOM      8  C   UNL     1       0.954   7.779  21.226  0.00  0.00    +0.000 C 
ATOM      9  N   UNL     1       2.008   6.938  20.921  0.00  0.00    +0.000 N 
ATOM     10  H   UNL     1       2.897   7.194  21.340  0.00  0.00    +0.000 HD
BRANCH   9  11
ATOM     11  C   UNL     1       1.964   5.710  20.213  0.00  0.00    +0.000 A 
ATOM     12  C   UNL     1       1.046   4.711  20.550  0.00  0.00    +0.000 A 
ATOM     13  C   UNL     1       1.005   3.501  19.859  0.00  0.00    +0.000 A 
ATOM     14  C   UNL     1       1.864   3.278  18.795  0.00  0.00    +0.000 A 
ATOM     15  C   UNL     1       2.773   4.267  18.404  0.00  0.00    +0.000 A 
ATOM     16  C   UNL     1       2.849   5.484  19.126  0.00  0.00    +0.000 A 
ATOM     17  C   UNL     1       3.857   6.529  18.703  0.00  0.00    +0.000 C 
ATOM     18  C   UNL     1       4.949   6.011  17.768  0.00  0.00    +0.000 C 
ATOM     19  C   UNL     1       4.362   5.178  16.650  0.00  0.00    +0.000 C 
ATOM     20  C   UNL     1       3.692   3.947  17.242  0.00  0.00    +0.000 C 
ENDBRANCH   9  11
ENDBRANCH   1   8
BRANCH   5  21
ATOM     21  S   UNL     1      -0.553  11.882  19.588  0.00  0.00    +0.000 S 
ATOM     22  O   UNL     1      -0.693  11.205  18.317  0.00  0.00    +0.000 OA
ATOM     23  O   UNL     1      -1.583  12.778  20.059  0.00  0.00    +0.000 OA
BRANCH  21  24
ATOM     24  C   UNL     1       0.968  12.750  19.555  0.00  0.00    +0.000 A 
ATOM     25  C   UNL     1       1.763  12.763  18.385  0.00  0.00    +0.000 A 
ATOM     26  C   UNL     1       2.967  13.504  18.275  0.00  0.00    +0.000 A 
ATOM     27  C   UNL     1       3.457  14.324  19.308  0.00  0.00    +0.000 A 
ATOM     28  C   UNL     1       2.646  14.371  20.457  0.00  0.00    +0.000 A 
ATOM     29  N   UNL     1       2.834  15.070  21.582  0.00  0.00    +0.000 NA
ATOM     30  O   UNL     1       1.765  14.757  22.401  0.00  0.00    +0.000 OA
ATOM     31  N   UNL     1       0.910  13.853  21.803  0.00  0.00    +0.000 NA
ATOM     32  C   UNL     1       1.414  13.593  20.590  0.00  0.00    +0.000 A 
ENDBRANCH  21  24
ENDBRANCH   5  21
TORSDOF 4
ENDMDL
MODEL 6
REMARK VINA RESULT:      -7.0      4.916      7.620
REMARK  Name = 
REMARK  4 active torsions:
REMARK  status: ('A' for Active; 'I' for Inactive)
REMARK    1  A    between atoms: C_2  and  C_14
REMARK    2  A    between atoms: N_3  and  C_4
REMARK    3  A    between atoms: N_18  and  S_19
REMARK    4  A    between atoms: S_19  and  C_22
REMARK                            x       y       z     vdW  Elec       q    Type
REMARK                         _______ _______ _______ _____ _____    ______ ____
ROOT
ATOM      1  C   UNL     1       1.613   9.444  21.284  0.00  0.00    +0.000 C 
ATOM      2  C   UNL     1       1.080   9.228  22.701  0.00  0.00    +0.000 C 
ATOM      3  C   UNL     1      -0.415   9.501  22.831  0.00  0.00    +0.000 C 
ATOM      4  C   UNL     1      -0.841  10.811  22.169  0.00  0.00    +0.000 C 
ATOM      5  N   UNL     1      -0.370  10.879  20.744  0.00  0.00    +0.000 NA
ATOM      6  C   UNL     1       1.135  10.756  20.682  0.00  0.00    +0.000 C 
ENDROOT
BRANCH   1   8
ATOM      7  O   UNL     1       0.786   8.446  19.289  0.00  0.00    +0.000 OA
ATOM      8  C   UNL     1       1.356   8.255  20.360  0.00  0.00    +0.000 C 
ATOM      9  N   UNL     1       1.834   7.045  20.827  0.00  0.00    +0.000 N 
ATOM     10  H   UNL     1       2.090   7.034  21.810  0.00  0.00    +0.000 HD
BRANCH   9  11
ATOM     11  C   UNL     1       1.884   5.805  20.139  0.00  0.00    +0.000 A 
ATOM     12  C   UNL     1       0.998   4.769  20.449  0.00  0.00    +0.000 A 
ATOM     13  C   UNL     1       1.049   3.548  19.778  0.00  0.00    +0.000 A 
ATOM     14  C   UNL     1       1.970   3.350  18.762  0.00  0.00    +0.000 A 
ATOM     15  C   UNL     1       2.848   4.376  18.398  0.00  0.00    +0.000 A 
ATOM     16  C   UNL     1       2.830   5.606  19.101  0.00  0.00    +0.000 A 
ATOM     17  C   UNL     1       3.808   6.692  18.709  0.00  0.00    +0.000 C 
ATOM     18  C   UNL     1       4.968   6.213  17.838  0.00  0.00    +0.000 C 
ATOM     19  C   UNL     1       4.478   5.335  16.708  0.00  0.00    +0.000 C 
ATOM     20  C   UNL     1       3.839   4.083  17.288  0.00  0.00    +0.000 C 
ENDBRANCH   9  11
ENDBRANCH   1   8
BRANCH   5  21
ATOM     21  S   UNL     1      -0.855  12.341  19.910  0.00  0.00    +0.000 S 
ATOM     22  O   UNL     1      -0.979  13.370  20.919  0.00  0.00    +0.000 OA
ATOM     23  O   UNL     1       0.036  12.520  18.787  0.00  0.00    +0.000 OA
BRANCH  21  24
ATOM     24  C   UNL     1      -2.463  12.010  19.298  0.00  0.00    +0.000 A 
ATOM     25  C   UNL     1      -3.606  12.425  20.020  0.00  0.00    +0.000 A 
ATOM     26  C   UNL     1      -4.930  12.247  19.543  0.00  0.00    +0.000 A 
ATOM     27  C   UNL     1      -5.220  11.678  18.291  0.00  0.00    +0.000 A 
ATOM     28  C   UNL     1      -4.092  11.316  17.532  0.00  0.00    +0.000 A 
ATOM     29  N   UNL     1      -4.048  10.778  16.308  0.00  0.00    +0.000 NA
ATOM     30  O   UNL     1      -2.706  10.602  16.024  0.00  0.00    +0.000 OA
ATOM     31  N   UNL     1      -1.904  11.014  17.069  0.00  0.00    +0.000 NA
ATOM     32  C   UNL     1      -2.723  11.474  18.024  0.00  0.00    +0.000 A 
ENDBRANCH  21  24
ENDBRANCH   5  21
TORSDOF 4
ENDMDL
MODEL 7
REMARK VINA RESULT:      -6.9      4.874      6.792
REMARK  Name = 
REMARK  4 active torsions:
REMARK  status: ('A' for Active; 'I' for Inactive)
REMARK    1  A    between atoms: C_2  and  C_14
REMARK    2  A    between atoms: N_3  and  C_4
REMARK    3  A    between atoms: N_18  and  S_19
REMARK    4  A    between atoms: S_19  and  C_22
REMARK                            x       y       z     vdW  Elec       q    Type
REMARK                         _______ _______ _______ _____ _____    ______ ____
ROOT
ATOM      1  C   UNL     1       1.625   9.942  19.567  0.00  0.00    +0.000 C 
ATOM      2  C   UNL     1       1.119   9.483  20.934  0.00  0.00    +0.000 C 
ATOM      3  C   UNL     1      -0.369   9.148  20.946  0.00  0.00    +0.000 C 
ATOM      4  C   UNL     1      -1.224  10.213  20.260  0.00  0.00    +0.000 C 
ATOM      5  N   UNL     1      -0.716  10.513  18.878  0.00  0.00    +0.000 NA
ATOM      6  C   UNL     1       0.718  10.986  18.937  0.00  0.00    +0.000 C 
ENDROOT
BRANCH   1   8
ATOM      7  O   UNL     1       1.746   8.941  17.412  0.00  0.00    +0.000 OA
ATOM      8  C   UNL     1       1.919   8.782  18.616  0.00  0.00    +0.000 C 
ATOM      9  N   UNL     1       2.394   7.637  19.230  0.00  0.00    +0.000 N 
ATOM     10  H   UNL     1       2.280   7.611  20.239  0.00  0.00    +0.000 HD
BRANCH   9  11
ATOM     11  C   UNL     1       2.894   6.463  18.612  0.00  0.00    +0.000 A 
ATOM     12  C   UNL     1       3.824   6.532  17.571  0.00  0.00    +0.000 A 
ATOM     13  C   UNL     1       4.312   5.379  16.958  0.00  0.00    +0.000 A 
ATOM     14  C   UNL     1       3.901   4.131  17.396  0.00  0.00    +0.000 A 
ATOM     15  C   UNL     1       2.999   4.019  18.459  0.00  0.00    +0.000 A 
ATOM     16  C   UNL     1       2.467   5.186  19.062  0.00  0.00    +0.000 A 
ATOM     17  C   UNL     1       1.473   5.043  20.192  0.00  0.00    +0.000 C 
ATOM     18  C   UNL     1       0.859   3.650  20.321  0.00  0.00    +0.000 C 
ATOM     19  C   UNL     1       1.921   2.575  20.244  0.00  0.00    +0.000 C 
ATOM     20  C   UNL     1       2.582   2.622  18.874  0.00  0.00    +0.000 C 
ENDBRANCH   9  11
ENDBRANCH   1   8
BRANCH   5  21
ATOM     21  S   UNL     1      -1.673  11.702  18.018  0.00  0.00    +0.000 S 
ATOM     22  O   UNL     1      -0.872  12.905  17.949  0.00  0.00    +0.000 OA
ATOM     23  O   UNL     1      -2.163  11.078  16.811  0.00  0.00    +0.000 OA
BRANCH  21  24
ATOM     24  C   UNL     1      -3.037  12.039  19.064  0.00  0.00    +0.000 A 
ATOM     25  C   UNL     1      -2.879  12.848  20.213  0.00  0.00    +0.000 A 
ATOM     26  C   UNL     1      -3.959  13.212  21.058  0.00  0.00    +0.000 A 
ATOM     27  C   UNL     1      -5.288  12.832  20.805  0.00  0.00    +0.000 A 
ATOM     28  C   UNL     1      -5.473  12.078  19.632  0.00  0.00    +0.000 A 
ATOM     29  N   UNL     1      -6.611  11.596  19.121  0.00  0.00    +0.000 NA
ATOM     30  O   UNL     1      -6.249  10.917  17.972  0.00  0.00    +0.000 OA
ATOM     31  N   UNL     1      -4.884  10.958  17.763  0.00  0.00    +0.000 NA
ATOM     32  C   UNL     1      -4.363  11.677  18.765  0.00  0.00    +0.000 A 
ENDBRANCH  21  24
ENDBRANCH   5  21
TORSDOF 4
ENDMDL
MODEL 8
REMARK VINA RESULT:      -6.9      5.320      7.551
REMARK  Name = 
REMARK  4 active torsions:
REMARK  status: ('A' for Active; 'I' for Inactive)
REMARK    1  A    between atoms: C_2  and  C_14
REMARK    2  A    between atoms: N_3  and  C_4
REMARK    3  A    between atoms: N_18  and  S_19
REMARK    4  A    between atoms: S_19  and  C_22
REMARK                            x       y       z     vdW  Elec       q    Type
REMARK                         _______ _______ _______ _____ _____    ______ ____
ROOT
ATOM      1  C   UNL     1       1.785   9.234  20.253  0.00  0.00    +0.000 C 
ATOM      2  C   UNL     1       1.161   8.630  21.511  0.00  0.00    +0.000 C 
ATOM      3  C   UNL     1      -0.359   8.529  21.441  0.00  0.00    +0.000 C 
ATOM      4  C   UNL     1      -1.020   9.814  20.941  0.00  0.00    +0.000 C 
ATOM      5  N   UNL     1      -0.417  10.265  19.641  0.00  0.00    +0.000 NA
ATOM      6  C   UNL     1       1.068  10.497  19.803  0.00  0.00    +0.000 C 
ENDROOT
BRANCH   1   8
ATOM      7  O   UNL     1       1.499   8.501  18.007  0.00  0.00    +0.000 OA
ATOM      8  C   UNL     1       1.943   8.224  19.118  0.00  0.00    +0.000 C 
ATOM      9  N   UNL     1       2.620   7.068  19.462  0.00  0.00    +0.000 N 
ATOM     10  H   UNL     1       2.732   6.916  20.460  0.00  0.00    +0.000 HD
BRANCH   9  11
ATOM     11  C   UNL     1       3.053   6.025  18.604  0.00  0.00    +0.000 A 
ATOM     12  C   UNL     1       4.030   6.247  17.629  0.00  0.00    +0.000 A 
ATOM     13  C   UNL     1       4.452   5.225  16.780  0.00  0.00    +0.000 A 
ATOM     14  C   UNL     1       3.926   3.950  16.911  0.00  0.00    +0.000 A 
ATOM     15  C   UNL     1       2.974   3.679  17.899  0.00  0.00    +0.000 A 
ATOM     16  C   UNL     1       2.509   4.721  18.740  0.00  0.00    +0.000 A 
ATOM     17  C   UNL     1       1.458   4.412  19.783  0.00  0.00    +0.000 C 
ATOM     18  C   UNL     1       0.733   3.084  19.574  0.00  0.00    +0.000 C 
ATOM     19  C   UNL     1       1.710   1.967  19.279  0.00  0.00    +0.000 C 
ATOM     20  C   UNL     1       2.431   2.265  17.973  0.00  0.00    +0.000 C 
ENDBRANCH   9  11
ENDBRANCH   1   8
BRANCH   5  21
ATOM     21  S   UNL     1      -1.151  11.716  18.989  0.00  0.00    +0.000 S 
ATOM     22  O   UNL     1      -0.081  12.491  18.399  0.00  0.00    +0.000 OA
ATOM     23  O   UNL     1      -2.287  11.311  18.194  0.00  0.00    +0.000 OA
BRANCH  21  24
ATOM     24  C   UNL     1      -1.734  12.602  20.383  0.00  0.00    +0.000 A 
ATOM     25  C   UNL     1      -3.101  12.553  20.746  0.00  0.00    +0.000 A 
ATOM     26  C   UNL     1      -3.619  13.192  21.901  0.00  0.00    +0.000 A 
ATOM     27  C   UNL     1      -2.811  13.898  22.810  0.00  0.00    +0.000 A 
ATOM     28  C   UNL     1      -1.439  13.905  22.498  0.00  0.00    +0.000 A 
ATOM     29  N   UNL     1      -0.433  14.468  23.175  0.00  0.00    +0.000 NA
ATOM     30  O   UNL     1       0.709  14.201  22.442  0.00  0.00    +0.000 OA
ATOM     31  N   UNL     1       0.425  13.484  21.297  0.00  0.00    +0.000 NA
ATOM     32  C   UNL     1      -0.897  13.269  21.296  0.00  0.00    +0.000 A 
ENDBRANCH  21  24
ENDBRANCH   5  21
TORSDOF 4
ENDMDL
MODEL 9
REMARK VINA RESULT:      -6.9      3.629      5.756
REMARK  Name = 
REMARK  4 active torsions:
REMARK  status: ('A' for Active; 'I' for Inactive)
REMARK    1  A    between atoms: C_2  and  C_14
REMARK    2  A    between atoms: N_3  and  C_4
REMARK    3  A    between atoms: N_18  and  S_19
REMARK    4  A    between atoms: S_19  and  C_22
REMARK                            x       y       z     vdW  Elec       q    Type
REMARK                         _______ _______ _______ _____ _____    ______ ____
ROOT
ATOM      1  C   UNL     1       0.597  10.604  19.305  0.00  0.00    +0.000 C 
ATOM      2  C   UNL     1      -0.515  10.231  18.324  0.00  0.00    +0.000 C 
ATOM      3  C   UNL     1      -1.648  11.250  18.280  0.00  0.00    +0.000 C 
ATOM      4  C   UNL     1      -2.123  11.673  19.671  0.00  0.00    +0.000 C 
ATOM      5  N   UNL     1      -0.974  12.132  20.522  0.00  0.00    +0.000 NA
ATOM      6  C   UNL     1       0.052  11.031  20.658  0.00  0.00    +0.000 C 
ENDROOT
BRANCH   1   8
ATOM      7  O   UNL     1       2.405  11.249  17.899  0.00  0.00    +0.000 OA
ATOM      8  C   UNL     1       1.585  11.620  18.733  0.00  0.00    +0.000 C 
ATOM      9  N   UNL     1       1.430  12.909  19.210  0.00  0.00    +0.000 N 
ATOM     10  H   UNL     1       0.848  12.994  20.038  0.00  0.00    +0.000 HD
BRANCH   9  11
ATOM     11  C   UNL     1       2.084  14.086  18.764  0.00  0.00    +0.000 A 
ATOM     12  C   UNL     1       3.456  14.095  18.495  0.00  0.00    +0.000 A 
ATOM     13  C   UNL     1       4.101  15.252  18.062  0.00  0.00    +0.000 A 
ATOM     14  C   UNL     1       3.380  16.417  17.861  0.00  0.00    +0.000 A 
ATOM     15  C   UNL     1       1.999  16.439  18.084  0.00  0.00    +0.000 A 
ATOM     16  C   UNL     1       1.341  15.278  18.562  0.00  0.00    +0.000 A 
ATOM     17  C   UNL     1      -0.148  15.331  18.823  0.00  0.00    +0.000 C 
ATOM     18  C   UNL     1      -0.726  16.743  18.898  0.00  0.00    +0.000 C 
ATOM     19  C   UNL     1      -0.232  17.598  17.752  0.00  0.00    +0.000 C 
ATOM     20  C   UNL     1       1.278  17.753  17.858  0.00  0.00    +0.000 C 
ENDBRANCH   9  11
ENDBRANCH   1   8
BRANCH   5  21
ATOM     21  S   UNL     1      -1.451  12.666  22.121  0.00  0.00    +0.000 S 
ATOM     22  O   UNL     1      -2.897  12.672  22.140  0.00  0.00    +0.000 OA
ATOM     23  O   UNL     1      -0.708  11.884  23.082  0.00  0.00    +0.000 OA
BRANCH  21  24
ATOM     24  C   UNL     1      -0.918  14.331  22.228  0.00  0.00    +0.000 A 
ATOM     25  C   UNL     1      -1.851  15.372  22.447  0.00  0.00    +0.000 A 
ATOM     26  C   UNL     1      -1.473  16.729  22.611  0.00  0.00    +0.000 A 
ATOM     27  C   UNL     1      -0.132  17.154  22.610  0.00  0.00    +0.000 A 
ATOM     28  C   UNL     1       0.813  16.123  22.455  0.00  0.00    +0.000 A 
ATOM     29  N   UNL     1       2.147  16.212  22.436  0.00  0.00    +0.000 NA
ATOM     30  O   UNL     1       2.606  14.921  22.242  0.00  0.00    +0.000 OA
ATOM     31  N   UNL     1       1.566  14.021  22.126  0.00  0.00    +0.000 NA
ATOM     32  C   UNL     1       0.433  14.723  22.261  0.00  0.00    +0.000 A 
ENDBRANCH  21  24
ENDBRANCH   5  21
TORSDOF 4
ENDMDL
