MODEL 1
REMARK VINA RESULT:      -6.8      0.000      0.000
REMARK  Name = 
REMARK  7 active torsions:
REMARK  status: ('A' for Active; 'I' for Inactive)
REMARK    1  A    between atoms: C_1  and  O_2
REMARK    2  A    between atoms: O_2  and  C_3
REMARK    3  A    between atoms: C_6  and  C_7
REMARK    4  A    between atoms: C_7  and  C_9
REMARK    5  A    between atoms: C_9  and  S_10
REMARK    6  A    between atoms: S_10  and  C_11
REMARK    7  A    between atoms: C_15  and  O_16
REMARK                            x       y       z     vdW  Elec       q    Type
REMARK                         _______ _______ _______ _____ _____    ______ ____
ROOT
ATOM      1  C   UNL     1       4.962   6.301  17.430  0.00  0.00    +0.000 C 
ATOM      2  O   UNL     1       4.627   6.929  16.424  0.00  0.00    +0.000 OA
ENDROOT
BRANCH   1   6
ATOM      3  C   UNL     1       2.049   3.858  19.444  0.00  0.00    +0.000 A 
ATOM      4  C   UNL     1       2.889   4.715  20.151  0.00  0.00    +0.000 A 
ATOM      5  C   UNL     1       3.820   5.506  19.477  0.00  0.00    +0.000 A 
ATOM      6  C   UNL     1       3.932   5.439  18.081  0.00  0.00    +0.000 A 
ATOM      7  C   UNL     1       3.109   4.558  17.373  0.00  0.00    +0.000 A 
ATOM      8  C   UNL     1       2.168   3.771  18.056  0.00  0.00    +0.000 A 
BRANCH   3  10
ATOM      9  C   UNL     1       1.618   2.874  21.548  0.00  0.00    +0.000 C 
ATOM     10  O   UNL     1       1.193   3.121  20.214  0.00  0.00    +0.000 OA
ENDBRANCH   3  10
ENDBRANCH   1   6
BRANCH   1  11
ATOM     11  C   UNL     1       6.390   6.271  17.947  0.00  0.00    +0.000 C 
BRANCH  11  12
ATOM     12  S   UNL     1       7.190   4.670  17.612  0.00  0.00    +0.000 S 
BRANCH  12  13
ATOM     13  C   UNL     1       6.903   4.566  15.864  0.00  0.00    +0.000 A 
ATOM     14  N   UNL     1       6.013   3.649  15.447  0.00  0.00    +0.000 NA
ATOM     15  C   UNL     1       5.872   3.511  14.117  0.00  0.00    +0.000 A 
ATOM     16  C   UNL     1       6.598   4.227  13.201  0.00  0.00    +0.000 A 
ATOM     17  C   UNL     1       7.480   5.133  13.746  0.00  0.00    +0.000 A 
ATOM     18  N   UNL     1       7.654   5.330  15.055  0.00  0.00    +0.000 NA
BRANCH  17  19
ATOM     19  O   UNL     1       8.276   5.906  12.950  0.00  0.00    +0.000 OA
ATOM     20  H   UNL     1       7.983   5.806  12.032  0.00  0.00    +0.000 HD
ENDBRANCH  17  19
ENDBRANCH  12  13
ENDBRANCH  11  12
ENDBRANCH   1  11
TORSDOF 6
ENDMDL
MODEL 2
REMARK VINA RESULT:      -6.7      2.130      3.374
REMARK  Name = 
REMARK  7 active torsions:
REMARK  status: ('A' for Active; 'I' for Inactive)
REMARK    1  A    between atoms: C_1  and  O_2
REMARK    2  A    between atoms: O_2  and  C_3
REMARK    3  A    between atoms: C_6  and  C_7
REMARK    4  A    between atoms: C_7  and  C_9
REMARK    5  A    between atoms: C_9  and  S_10
REMARK    6  A    between atoms: S_10  and  C_11
REMARK    7  A    between atoms: C_15  and  O_16
REMARK                            x       y       z     vdW  Elec       q    Type
REMARK                         _______ _______ _______ _____ _____    ______ ____
ROOT
ATOM      1  C   UNL     1       4.411   5.378  16.639  0.00  0.00    +0.000 C 
ATOM      2  O   UNL     1       4.325   6.586  16.869  0.00  0.00    +0.000 OA
ENDROOT
BRANCH   1   6
ATOM      3  C   UNL     1       2.246   2.820  19.336  0.00  0.00    +0.000 A 
ATOM      4  C   UNL     1       2.128   4.206  19.402  0.00  0.00    +0.000 A 
ATOM      5  C   UNL     1       2.833   5.017  18.511  0.00  0.00    +0.000 A 
ATOM      6  C   UNL     1       3.677   4.448  17.547  0.00  0.00    +0.000 A 
ATOM      7  C   UNL     1       3.817   3.058  17.499  0.00  0.00    +0.000 A 
ATOM      8  C   UNL     1       3.100   2.247  18.393  0.00  0.00    +0.000 A 
BRANCH   3  10
ATOM      9  C   UNL     1       1.427   2.746  21.551  0.00  0.00    +0.000 C 
ATOM     10  O   UNL     1       1.523   2.133  20.271  0.00  0.00    +0.000 OA
ENDBRANCH   3  10
ENDBRANCH   1   6
BRANCH   1  11
ATOM     11  C   UNL     1       5.117   4.819  15.415  0.00  0.00    +0.000 C 
BRANCH  11  12
ATOM     12  S   UNL     1       6.776   4.192  15.827  0.00  0.00    +0.000 S 
BRANCH  12  13
ATOM     13  C   UNL     1       7.238   5.386  17.054  0.00  0.00    +0.000 A 
ATOM     14  N   UNL     1       7.482   6.637  16.625  0.00  0.00    +0.000 NA
ATOM     15  C   UNL     1       7.924   7.512  17.546  0.00  0.00    +0.000 A 
ATOM     16  C   UNL     1       8.155   7.179  18.855  0.00  0.00    +0.000 A 
ATOM     17  C   UNL     1       7.874   5.871  19.176  0.00  0.00    +0.000 A 
ATOM     18  N   UNL     1       7.416   4.959  18.314  0.00  0.00    +0.000 NA
BRANCH  17  19
ATOM     19  O   UNL     1       8.069   5.399  20.442  0.00  0.00    +0.000 OA
ATOM     20  H   UNL     1       7.298   4.869  20.695  0.00  0.00    +0.000 HD
ENDBRANCH  17  19
ENDBRANCH  12  13
ENDBRANCH  11  12
ENDBRANCH   1  11
TORSDOF 6
ENDMDL
MODEL 3
REMARK VINA RESULT:      -6.7      2.907      6.724
REMARK  Name = 
REMARK  7 active torsions:
REMARK  status: ('A' for Active; 'I' for Inactive)
REMARK    1  A    between atoms: C_1  and  O_2
REMARK    2  A    between atoms: O_2  and  C_3
REMARK    3  A    between atoms: C_6  and  C_7
REMARK    4  A    between atoms: C_7  and  C_9
REMARK    5  A    between atoms: C_9  and  S_10
REMARK    6  A    between atoms: S_10  and  C_11
REMARK    7  A    between atoms: C_15  and  O_16
REMARK                            x       y       z     vdW  Elec       q    Type
REMARK                         _______ _______ _______ _____ _____    ______ ____
ROOT
ATOM      1  C   UNL     1       5.323   4.447  18.668  0.00  0.00    +0.000 C 
ATOM      2  O   UNL     1       5.227   3.351  19.222  0.00  0.00    +0.000 OA
ENDROOT
BRANCH   1   6
ATOM      3  C   UNL     1       6.550   4.432  14.545  0.00  0.00    +0.000 A 
ATOM      4  C   UNL     1       5.280   4.003  14.924  0.00  0.00    +0.000 A 
ATOM      5  C   UNL     1       4.899   4.026  16.266  0.00  0.00    +0.000 A 
ATOM      6  C   UNL     1       5.794   4.467  17.252  0.00  0.00    +0.000 A 
ATOM      7  C   UNL     1       7.078   4.871  16.875  0.00  0.00    +0.000 A 
ATOM      8  C   UNL     1       7.453   4.854  15.522  0.00  0.00    +0.000 A 
BRANCH   3  10
ATOM      9  C   UNL     1       6.006   3.432  12.474  0.00  0.00    +0.000 C 
ATOM     10  O   UNL     1       6.813   4.347  13.206  0.00  0.00    +0.000 OA
ENDBRANCH   3  10
ENDBRANCH   1   6
BRANCH   1  11
ATOM     11  C   UNL     1       4.867   5.743  19.318  0.00  0.00    +0.000 C 
BRANCH  11  12
ATOM     12  S   UNL     1       3.178   6.190  18.806  0.00  0.00    +0.000 S 
BRANCH  12  13
ATOM     13  C   UNL     1       2.286   4.856  19.564  0.00  0.00    +0.000 A 
ATOM     14  N   UNL     1       2.473   4.669  20.882  0.00  0.00    +0.000 NA
ATOM     15  C   UNL     1       1.869   3.599  21.428  0.00  0.00    +0.000 A 
ATOM     16  C   UNL     1       1.118   2.706  20.710  0.00  0.00    +0.000 A 
ATOM     17  C   UNL     1       1.000   2.998  19.370  0.00  0.00    +0.000 A 
ATOM     18  N   UNL     1       1.559   4.053  18.771  0.00  0.00    +0.000 NA
BRANCH  17  19
ATOM     19  O   UNL     1       0.290   2.187  18.532  0.00  0.00    +0.000 OA
ATOM     20  H   UNL     1       0.913   1.710  17.964  0.00  0.00    +0.000 HD
ENDBRANCH  17  19
ENDBRANCH  12  13
ENDBRANCH  11  12
ENDBRANCH   1  11
TORSDOF 6
ENDMDL
MODEL 4
REMARK VINA RESULT:      -6.6      3.669      5.032
REMARK  Name = 
REMARK  7 active torsions:
REMARK  status: ('A' for Active; 'I' for Inactive)
REMARK    1  A    between atoms: C_1  and  O_2
REMARK    2  A    between atoms: O_2  and  C_3
REMARK    3  A    between atoms: C_6  and  C_7
REMARK    4  A    between atoms: C_7  and  C_9
REMARK    5  A    between atoms: C_9  and  S_10
REMARK    6  A    between atoms: S_10  and  C_11
REMARK    7  A    between atoms: C_15  and  O_16
REMARK                            x       y       z     vdW  Elec       q    Type
REMARK                         _______ _______ _______ _____ _____    ______ ____
ROOT
ATOM      1  C   UNL     1       2.813   5.637  19.144  0.00  0.00    +0.000 C 
ATOM      2  O   UNL     1       3.088   5.111  20.224  0.00  0.00    +0.000 OA
ENDROOT
BRANCH   1   6
ATOM      3  C   UNL     1       1.269   9.647  19.355  0.00  0.00    +0.000 A 
ATOM      4  C   UNL     1       1.219   8.793  20.454  0.00  0.00    +0.000 A 
ATOM      5  C   UNL     1       1.735   7.499  20.367  0.00  0.00    +0.000 A 
ATOM      6  C   UNL     1       2.297   7.038  19.168  0.00  0.00    +0.000 A 
ATOM      7  C   UNL     1       2.322   7.885  18.056  0.00  0.00    +0.000 A 
ATOM      8  C   UNL     1       1.809   9.188  18.152  0.00  0.00    +0.000 A 
BRANCH   3  10
ATOM      9  C   UNL     1       0.502  11.250  20.912  0.00  0.00    +0.000 C 
ATOM     10  O   UNL     1       0.717  10.881  19.556  0.00  0.00    +0.000 OA
ENDBRANCH   3  10
ENDBRANCH   1   6
BRANCH   1  11
ATOM     11  C   UNL     1       3.097   4.973  17.807  0.00  0.00    +0.000 C 
BRANCH  11  12
ATOM     12  S   UNL     1       4.493   3.811  17.919  0.00  0.00    +0.000 S 
BRANCH  12  13
ATOM     13  C   UNL     1       5.801   4.964  18.248  0.00  0.00    +0.000 A 
ATOM     14  N   UNL     1       6.069   5.870  17.291  0.00  0.00    +0.000 NA
ATOM     15  C   UNL     1       7.122   6.677  17.507  0.00  0.00    +0.000 A 
ATOM     16  C   UNL     1       7.923   6.594  18.616  0.00  0.00    +0.000 A 
ATOM     17  C   UNL     1       7.555   5.628  19.523  0.00  0.00    +0.000 A 
ATOM     18  N   UNL     1       6.510   4.808  19.377  0.00  0.00    +0.000 NA
BRANCH  17  19
ATOM     19  O   UNL     1       8.270   5.427  20.668  0.00  0.00    +0.000 OA
ATOM     20  H   UNL     1       7.781   4.809  21.233  0.00  0.00    +0.000 HD
ENDBRANCH  17  19
ENDBRANCH  12  13
ENDBRANCH  11  12
ENDBRANCH   1  11
TORSDOF 6
ENDMDL
MODEL 5
REMARK VINA RESULT:      -6.6      0.875      1.346
REMARK  Name = 
REMARK  7 active torsions:
REMARK  status: ('A' for Active; 'I' for Inactive)
REMARK    1  A    between atoms: C_1  and  O_2
REMARK    2  A    between atoms: O_2  and  C_3
REMARK    3  A    between atoms: C_6  and  C_7
REMARK    4  A    between atoms: C_7  and  C_9
REMARK    5  A    between atoms: C_9  and  S_10
REMARK    6  A    between atoms: S_10  and  C_11
REMARK    7  A    between atoms: C_15  and  O_16
REMARK                            x       y       z     vdW  Elec       q    Type
REMARK                         _______ _______ _______ _____ _____    ______ ____
ROOT
ATOM      1  C   UNL     1       5.029   6.430  17.011  0.00  0.00    +0.000 C 
ATOM      2  O   UNL     1       4.722   6.969  15.947  0.00  0.00    +0.000 OA
ENDROOT
BRANCH   1   6
ATOM      3  C   UNL     1       1.913   4.301  19.078  0.00  0.00    +0.000 A 
ATOM      4  C   UNL     1       2.507   3.782  17.930  0.00  0.00    +0.000 A 
ATOM      5  C   UNL     1       3.523   4.484  17.280  0.00  0.00    +0.000 A 
ATOM      6  C   UNL     1       3.950   5.728  17.767  0.00  0.00    +0.000 A 
ATOM      7  C   UNL     1       3.335   6.263  18.903  0.00  0.00    +0.000 A 
ATOM      8  C   UNL     1       2.319   5.548  19.557  0.00  0.00    +0.000 A 
BRANCH   3  10
ATOM      9  C   UNL     1       0.611   2.337  18.906  0.00  0.00    +0.000 C 
ATOM     10  O   UNL     1       0.919   3.532  19.614  0.00  0.00    +0.000 OA
ENDBRANCH   3  10
ENDBRANCH   1   6
BRANCH   1  11
ATOM     11  C   UNL     1       6.462   6.342  17.509  0.00  0.00    +0.000 C 
BRANCH  11  12
ATOM     12  S   UNL     1       7.177   4.696  17.204  0.00  0.00    +0.000 S 
BRANCH  12  13
ATOM     13  C   UNL     1       6.993   4.624  15.442  0.00  0.00    +0.000 A 
ATOM     14  N   UNL     1       6.159   3.690  14.953  0.00  0.00    +0.000 NA
ATOM     15  C   UNL     1       6.098   3.580  13.615  0.00  0.00    +0.000 A 
ATOM     16  C   UNL     1       6.852   4.339  12.759  0.00  0.00    +0.000 A 
ATOM     17  C   UNL     1       7.672   5.258  13.372  0.00  0.00    +0.000 A 
ATOM     18  N   UNL     1       7.764   5.430  14.694  0.00  0.00    +0.000 NA
BRANCH  17  19
ATOM     19  O   UNL     1       8.486   6.074  12.642  0.00  0.00    +0.000 OA
ATOM     20  H   UNL     1       9.020   6.604  13.253  0.00  0.00    +0.000 HD
ENDBRANCH  17  19
ENDBRANCH  12  13
ENDBRANCH  11  12
ENDBRANCH   1  11
TORSDOF 6
ENDMDL
MODEL 6
REMARK VINA RESULT:      -6.4      2.403      6.111
REMARK  Name = 
REMARK  7 active torsions:
REMARK  status: ('A' for Active; 'I' for Inactive)
REMARK    1  A    between atoms: C_1  and  O_2
REMARK    2  A    between atoms: O_2  and  C_3
REMARK    3  A    between atoms: C_6  and  C_7
REMARK    4  A    between atoms: C_7  and  C_9
REMARK    5  A    between atoms: C_9  and  S_10
REMARK    6  A    between atoms: S_10  and  C_11
REMARK    7  A    between atoms: C_15  and  O_16
REMARK                            x       y       z     vdW  Elec       q    Type
REMARK                         _______ _______ _______ _____ _____    ______ ____
ROOT
ATOM      1  C   UNL     1       7.156   5.529  16.443  0.00  0.00    +0.000 C 
ATOM      2  O   UNL     1       7.543   6.699  16.457  0.00  0.00    +0.000 OA
ENDROOT
BRANCH   1   6
ATOM      3  C   UNL     1       5.933   3.768  12.713  0.00  0.00    +0.000 A 
ATOM      4  C   UNL     1       5.166   3.626  13.867  0.00  0.00    +0.000 A 
ATOM      5  C   UNL     1       5.577   4.214  15.065  0.00  0.00    +0.000 A 
ATOM      6  C   UNL     1       6.773   4.943  15.125  0.00  0.00    +0.000 A 
ATOM      7  C   UNL     1       7.557   5.063  13.974  0.00  0.00    +0.000 A 
ATOM      8  C   UNL     1       7.135   4.476  12.770  0.00  0.00    +0.000 A 
BRANCH   3  10
ATOM      9  C   UNL     1       5.799   1.764  11.469  0.00  0.00    +0.000 C 
ATOM     10  O   UNL     1       5.439   3.133  11.608  0.00  0.00    +0.000 OA
ENDBRANCH   3  10
ENDBRANCH   1   6
BRANCH   1  11
ATOM     11  C   UNL     1       7.178   4.638  17.674  0.00  0.00    +0.000 C 
BRANCH  11  12
ATOM     12  S   UNL     1       6.107   5.292  18.993  0.00  0.00    +0.000 S 
BRANCH  12  13
ATOM     13  C   UNL     1       4.552   4.628  18.456  0.00  0.00    +0.000 A 
ATOM     14  N   UNL     1       3.576   5.509  18.179  0.00  0.00    +0.000 NA
ATOM     15  C   UNL     1       2.374   4.995  17.865  0.00  0.00    +0.000 A 
ATOM     16  C   UNL     1       2.108   3.651  17.847  0.00  0.00    +0.000 A 
ATOM     17  C   UNL     1       3.182   2.846  18.150  0.00  0.00    +0.000 A 
ATOM     18  N   UNL     1       4.405   3.293  18.451  0.00  0.00    +0.000 NA
BRANCH  17  19
ATOM     19  O   UNL     1       3.058   1.487  18.180  0.00  0.00    +0.000 OA
ATOM     20  H   UNL     1       3.931   1.095  18.024  0.00  0.00    +0.000 HD
ENDBRANCH  17  19
ENDBRANCH  12  13
ENDBRANCH  11  12
ENDBRANCH   1  11
TORSDOF 6
ENDMDL
MODEL 7
REMARK VINA RESULT:      -6.4      2.880      4.128
REMARK  Name = 
REMARK  7 active torsions:
REMARK  status: ('A' for Active; 'I' for Inactive)
REMARK    1  A    between atoms: C_1  and  O_2
REMARK    2  A    between atoms: O_2  and  C_3
REMARK    3  A    between atoms: C_6  and  C_7
REMARK    4  A    between atoms: C_7  and  C_9
REMARK    5  A    between atoms: C_9  and  S_10
REMARK    6  A    between atoms: S_10  and  C_11
REMARK    7  A    between atoms: C_15  and  O_16
REMARK                            x       y       z     vdW  Elec       q    Type
REMARK                         _______ _______ _______ _____ _____    ______ ____
ROOT
ATOM      1  C   UNL     1       2.234   3.621  18.058  0.00  0.00    +0.000 C 
ATOM      2  O   UNL     1       1.184   3.046  17.767  0.00  0.00    +0.000 OA
ENDROOT
BRANCH   1   6
ATOM      3  C   UNL     1       1.874   7.356  20.163  0.00  0.00    +0.000 A 
ATOM      4  C   UNL     1       1.579   6.143  20.783  0.00  0.00    +0.000 A 
ATOM      5  C   UNL     1       1.712   4.943  20.084  0.00  0.00    +0.000 A 
ATOM      6  C   UNL     1       2.131   4.942  18.746  0.00  0.00    +0.000 A 
ATOM      7  C   UNL     1       2.400   6.160  18.115  0.00  0.00    +0.000 A 
ATOM      8  C   UNL     1       2.272   7.364  18.826  0.00  0.00    +0.000 A 
BRANCH   3  10
ATOM      9  C   UNL     1       0.895   9.496  20.371  0.00  0.00    +0.000 C 
ATOM     10  O   UNL     1       1.688   8.464  20.942  0.00  0.00    +0.000 OA
ENDBRANCH   3  10
ENDBRANCH   1   6
BRANCH   1  11
ATOM     11  C   UNL     1       3.602   2.990  17.862  0.00  0.00    +0.000 C 
BRANCH  11  12
ATOM     12  S   UNL     1       4.708   3.343  19.264  0.00  0.00    +0.000 S 
BRANCH  12  13
ATOM     13  C   UNL     1       5.721   4.597  18.523  0.00  0.00    +0.000 A 
ATOM     14  N   UNL     1       5.526   4.843  17.216  0.00  0.00    +0.000 NA
ATOM     15  C   UNL     1       6.361   5.726  16.641  0.00  0.00    +0.000 A 
ATOM     16  C   UNL     1       7.387   6.342  17.308  0.00  0.00    +0.000 A 
ATOM     17  C   UNL     1       7.492   6.009  18.639  0.00  0.00    +0.000 A 
ATOM     18  N   UNL     1       6.684   5.155  19.274  0.00  0.00    +0.000 NA
BRANCH  17  19
ATOM     19  O   UNL     1       8.476   6.539  19.423  0.00  0.00    +0.000 OA
ATOM     20  H   UNL     1       9.154   6.924  18.847  0.00  0.00    +0.000 HD
ENDBRANCH  17  19
ENDBRANCH  12  13
ENDBRANCH  11  12
ENDBRANCH   1  11
TORSDOF 6
ENDMDL
MODEL 8
REMARK VINA RESULT:      -6.4      3.138      5.687
REMARK  Name = 
REMARK  7 active torsions:
REMARK  status: ('A' for Active; 'I' for Inactive)
REMARK    1  A    between atoms: C_1  and  O_2
REMARK    2  A    between atoms: O_2  and  C_3
REMARK    3  A    between atoms: C_6  and  C_7
REMARK    4  A    between atoms: C_7  and  C_9
REMARK    5  A    between atoms: C_9  and  S_10
REMARK    6  A    between atoms: S_10  and  C_11
REMARK    7  A    between atoms: C_15  and  O_16
REMARK                            x       y       z     vdW  Elec       q    Type
REMARK                         _______ _______ _______ _____ _____    ______ ____
ROOT
ATOM      1  C   UNL     1       2.849   6.502  19.162  0.00  0.00    +0.000 C 
ATOM      2  O   UNL     1       2.180   7.383  18.621  0.00  0.00    +0.000 OA
ENDROOT
BRANCH   1   6
ATOM      3  C   UNL     1       6.392   5.270  17.056  0.00  0.00    +0.000 A 
ATOM      4  C   UNL     1       5.293   5.794  16.380  0.00  0.00    +0.000 A 
ATOM      5  C   UNL     1       4.157   6.197  17.084  0.00  0.00    +0.000 A 
ATOM      6  C   UNL     1       4.103   6.066  18.479  0.00  0.00    +0.000 A 
ATOM      7  C   UNL     1       5.194   5.513  19.155  0.00  0.00    +0.000 A 
ATOM      8  C   UNL     1       6.337   5.118  18.442  0.00  0.00    +0.000 A 
BRANCH   3  10
ATOM      9  C   UNL     1       7.131   4.717  14.881  0.00  0.00    +0.000 C 
ATOM     10  O   UNL     1       7.437   4.894  16.258  0.00  0.00    +0.000 OA
ENDBRANCH   3  10
ENDBRANCH   1   6
BRANCH   1  11
ATOM     11  C   UNL     1       2.521   5.944  20.537  0.00  0.00    +0.000 C 
BRANCH  11  12
ATOM     12  S   UNL     1       1.331   4.570  20.436  0.00  0.00    +0.000 S 
BRANCH  12  13
ATOM     13  C   UNL     1       2.313   3.406  19.525  0.00  0.00    +0.000 A 
ATOM     14  N   UNL     1       1.842   3.016  18.328  0.00  0.00    +0.000 NA
ATOM     15  C   UNL     1       2.543   2.064  17.688  0.00  0.00    +0.000 A 
ATOM     16  C   UNL     1       3.666   1.475  18.207  0.00  0.00    +0.000 A 
ATOM     17  C   UNL     1       4.051   1.952  19.439  0.00  0.00    +0.000 A 
ATOM     18  N   UNL     1       3.410   2.908  20.117  0.00  0.00    +0.000 NA
BRANCH  17  19
ATOM     19  O   UNL     1       5.147   1.448  20.079  0.00  0.00    +0.000 OA
ATOM     20  H   UNL     1       5.886   1.429  19.453  0.00  0.00    +0.000 HD
ENDBRANCH  17  19
ENDBRANCH  12  13
ENDBRANCH  11  12
ENDBRANCH   1  11
TORSDOF 6
ENDMDL
MODEL 9
REMARK VINA RESULT:      -6.4      1.703      1.957
REMARK  Name = 
REMARK  7 active torsions:
REMARK  status: ('A' for Active; 'I' for Inactive)
REMARK    1  A    between atoms: C_1  and  O_2
REMARK    2  A    between atoms: O_2  and  C_3
REMARK    3  A    between atoms: C_6  and  C_7
REMARK    4  A    between atoms: C_7  and  C_9
REMARK    5  A    between atoms: C_9  and  S_10
REMARK    6  A    between atoms: S_10  and  C_11
REMARK    7  A    between atoms: C_15  and  O_16
REMARK                            x       y       z     vdW  Elec       q    Type
REMARK                         _______ _______ _______ _____ _____    ______ ____
ROOT
ATOM      1  C   UNL     1       6.432   4.939  18.634  0.00  0.00    +0.000 C 
ATOM      2  O   UNL     1       7.211   5.286  19.522  0.00  0.00    +0.000 OA
ENDROOT
BRANCH   1   6
ATOM      3  C   UNL     1       2.370   4.060  19.745  0.00  0.00    +0.000 A 
ATOM      4  C   UNL     1       3.342   3.063  19.705  0.00  0.00    +0.000 A 
ATOM      5  C   UNL     1       4.656   3.372  19.351  0.00  0.00    +0.000 A 
ATOM      6  C   UNL     1       5.012   4.687  19.019  0.00  0.00    +0.000 A 
ATOM      7  C   UNL     1       4.031   5.683  19.032  0.00  0.00    +0.000 A 
ATOM      8  C   UNL     1       2.713   5.368  19.397  0.00  0.00    +0.000 A 
BRANCH   3  10
ATOM      9  C   UNL     1       0.541   2.656  19.230  0.00  0.00    +0.000 C 
ATOM     10  O   UNL     1       1.117   3.634  20.087  0.00  0.00    +0.000 OA
ENDBRANCH   3  10
ENDBRANCH   1   6
BRANCH   1  11
ATOM     11  C   UNL     1       6.825   4.884  17.167  0.00  0.00    +0.000 C 
BRANCH  11  12
ATOM     12  S   UNL     1       5.474   4.232  16.135  0.00  0.00    +0.000 S 
BRANCH  12  13
ATOM     13  C   UNL     1       6.227   4.396  14.538  0.00  0.00    +0.000 A 
ATOM     14  N   UNL     1       5.765   3.597  13.561  0.00  0.00    +0.000 NA
ATOM     15  C   UNL     1       6.404   3.661  12.380  0.00  0.00    +0.000 A 
ATOM     16  C   UNL     1       7.492   4.462  12.151  0.00  0.00    +0.000 A 
ATOM     17  C   UNL     1       7.877   5.232  13.225  0.00  0.00    +0.000 A 
ATOM     18  N   UNL     1       7.273   5.229  14.417  0.00  0.00    +0.000 NA
BRANCH  17  19
ATOM     19  O   UNL     1       8.952   6.069  13.142  0.00  0.00    +0.000 OA
ATOM     20  H   UNL     1       9.044   6.362  12.223  0.00  0.00    +0.000 HD
ENDBRANCH  17  19
ENDBRANCH  12  13
ENDBRANCH  11  12
ENDBRANCH   1  11
TORSDOF 6
ENDMDL
