MODEL 1
REMARK VINA RESULT:      -8.5      0.000      0.000
REMARK  Name = 
REMARK  5 active torsions:
REMARK  status: ('A' for Active; 'I' for Inactive)
REMARK    1  A    between atoms: C_1  and  C_2
REMARK    2  A    between atoms: C_2  and  S_3
REMARK    3  A    between atoms: S_3  and  N_6
REMARK    4  A    between atoms: C_10  and  C_12
REMARK    5  A    between atoms: C_26  and  C_27
REMARK                            x       y       z     vdW  Elec       q    Type
REMARK                         _______ _______ _______ _____ _____    ______ ____
ROOT
ATOM      1  C   UNL     1       1.881   8.030  19.126  0.00  0.00    +0.000 A 
ATOM      2  C   UNL     1       1.629   8.876  18.029  0.00  0.00    +0.000 A 
ATOM      3  N   UNL     1       1.161  10.076  18.377  0.00  0.00    +0.000 NA
ATOM      4  N   UNL     1       0.946   9.965  19.718  0.00  0.00    +0.000 N 
ATOM      5  C   UNL     1       0.347  11.031  20.411  0.00  0.00    +0.000 A 
ATOM      6  N   UNL     1      -0.529  10.871  21.355  0.00  0.00    +0.000 NA
ATOM      7  N   UNL     1      -0.860  12.035  21.955  0.00  0.00    +0.000 N 
ATOM      8  C   UNL     1      -1.908  12.253  22.801  0.00  0.00    +0.000 A 
ATOM      9  C   UNL     1      -1.776  13.525  23.322  0.00  0.00    +0.000 A 
ATOM     10  C   UNL     1      -0.610  14.098  22.754  0.00  0.00    +0.000 A 
ATOM     11  C   UNL     1      -0.132  13.184  21.841  0.00  0.00    +0.000 A 
ATOM     12  C   UNL     1       0.949  13.209  20.911  0.00  0.00    +0.000 A 
ATOM     13  O   UNL     1       1.923  13.949  20.983  0.00  0.00    +0.000 OA
ATOM     14  N   UNL     1       0.833  12.233  19.952  0.00  0.00    +0.000 N 
ATOM     15  C   UNL     1       1.384   8.750  20.210  0.00  0.00    +0.000 A 
ATOM     16  C   UNL     1       1.383   8.397  21.658  0.00  0.00    +0.000 C 
ATOM     17  H   UNL     1       0.168  12.568  19.260  0.00  0.00    +0.000 HD
ENDROOT
BRANCH   1  22
ATOM     18  N   UNL     1       5.436   5.156  16.553  0.00  0.00    +0.000 NA
ATOM     19  C   UNL     1       4.468   4.294  17.307  0.00  0.00    +0.000 C 
ATOM     20  C   UNL     1       4.048   4.942  18.628  0.00  0.00    +0.000 C 
ATOM     21  N   UNL     1       3.505   6.292  18.409  0.00  0.00    +0.000 N 
ATOM     22  C   UNL     1       2.431   6.679  19.215  0.00  0.00    +0.000 C 
ATOM     23  O   UNL     1       1.933   5.883  20.012  0.00  0.00    +0.000 OA
ATOM     24  C   UNL     1       4.429   7.174  17.682  0.00  0.00    +0.000 C 
ATOM     25  C   UNL     1       4.892   6.537  16.357  0.00  0.00    +0.000 C 
BRANCH  18  26
ATOM     26  S   UNL     1       7.074   5.028  17.009  0.00  0.00    +0.000 S 
ATOM     27  O   UNL     1       7.805   4.531  15.861  0.00  0.00    +0.000 OA
ATOM     28  O   UNL     1       7.130   4.360  18.286  0.00  0.00    +0.000 OA
BRANCH  26  30
ATOM     29  C   UNL     1       8.073   7.017  18.591  0.00  0.00    +0.000 C 
ATOM     30  C   UNL     1       7.490   6.756  17.220  0.00  0.00    +0.000 C 
ENDBRANCH  26  30
ENDBRANCH  18  26
ENDBRANCH   1  22
TORSDOF 3
ENDMDL
MODEL 2
REMARK VINA RESULT:      -8.2      1.104      1.434
REMARK  Name = 
REMARK  5 active torsions:
REMARK  status: ('A' for Active; 'I' for Inactive)
REMARK    1  A    between atoms: C_1  and  C_2
REMARK    2  A    between atoms: C_2  and  S_3
REMARK    3  A    between atoms: S_3  and  N_6
REMARK    4  A    between atoms: C_10  and  C_12
REMARK    5  A    between atoms: C_26  and  C_27
REMARK                            x       y       z     vdW  Elec       q    Type
REMARK                         _______ _______ _______ _____ _____    ______ ____
ROOT
ATOM      1  C   UNL     1       1.969   8.208  19.035  0.00  0.00    +0.000 A 
ATOM      2  C   UNL     1       1.795   9.158  18.010  0.00  0.00    +0.000 A 
ATOM      3  N   UNL     1       1.273  10.310  18.433  0.00  0.00    +0.000 NA
ATOM      4  N   UNL     1       0.946  10.062  19.733  0.00  0.00    +0.000 N 
ATOM      5  C   UNL     1       0.267  11.045  20.473  0.00  0.00    +0.000 A 
ATOM      6  N   UNL     1      -0.684  10.779  21.316  0.00  0.00    +0.000 NA
ATOM      7  N   UNL     1      -1.091  11.872  21.998  0.00  0.00    +0.000 N 
ATOM      8  C   UNL     1      -2.212  11.988  22.766  0.00  0.00    +0.000 A 
ATOM      9  C   UNL     1      -2.153  13.203  23.421  0.00  0.00    +0.000 A 
ATOM     10  C   UNL     1      -0.955  13.846  23.017  0.00  0.00    +0.000 A 
ATOM     11  C   UNL     1      -0.380  13.036  22.063  0.00  0.00    +0.000 A 
ATOM     12  C   UNL     1       0.776  13.168  21.239  0.00  0.00    +0.000 A 
ATOM     13  O   UNL     1       1.723  13.909  21.470  0.00  0.00    +0.000 OA
ATOM     14  N   UNL     1       0.764  12.293  20.181  0.00  0.00    +0.000 N 
ATOM     15  C   UNL     1       1.365   8.808  20.137  0.00  0.00    +0.000 A 
ATOM     16  C   UNL     1       1.248   8.311  21.538  0.00  0.00    +0.000 C 
ATOM     17  H   UNL     1       0.154  12.688  19.471  0.00  0.00    +0.000 HD
ENDROOT
BRANCH   1  22
ATOM     18  N   UNL     1       5.210   5.407  16.007  0.00  0.00    +0.000 NA
ATOM     19  C   UNL     1       4.349   4.525  16.861  0.00  0.00    +0.000 C 
ATOM     20  C   UNL     1       4.088   5.152  18.232  0.00  0.00    +0.000 C 
ATOM     21  N   UNL     1       3.510   6.498  18.101  0.00  0.00    +0.000 N 
ATOM     22  C   UNL     1       2.539   6.863  19.037  0.00  0.00    +0.000 C 
ATOM     23  O   UNL     1       2.150   6.051  19.877  0.00  0.00    +0.000 OA
ATOM     24  C   UNL     1       4.329   7.399  17.278  0.00  0.00    +0.000 C 
ATOM     25  C   UNL     1       4.632   6.784  15.897  0.00  0.00    +0.000 C 
BRANCH  18  26
ATOM     26  S   UNL     1       6.892   5.291  16.256  0.00  0.00    +0.000 S 
ATOM     27  O   UNL     1       7.117   4.215  17.198  0.00  0.00    +0.000 OA
ATOM     28  O   UNL     1       7.399   6.621  16.495  0.00  0.00    +0.000 OA
BRANCH  26  30
ATOM     29  C   UNL     1       6.307   4.015  13.913  0.00  0.00    +0.000 C 
ATOM     30  C   UNL     1       7.424   4.731  14.642  0.00  0.00    +0.000 C 
ENDBRANCH  26  30
ENDBRANCH  18  26
ENDBRANCH   1  22
TORSDOF 3
ENDMDL
MODEL 3
REMARK VINA RESULT:      -8.0      1.196      1.200
REMARK  Name = 
REMARK  5 active torsions:
REMARK  status: ('A' for Active; 'I' for Inactive)
REMARK    1  A    between atoms: C_1  and  C_2
REMARK    2  A    between atoms: C_2  and  S_3
REMARK    3  A    between atoms: S_3  and  N_6
REMARK    4  A    between atoms: C_10  and  C_12
REMARK    5  A    between atoms: C_26  and  C_27
REMARK                            x       y       z     vdW  Elec       q    Type
REMARK                         _______ _______ _______ _____ _____    ______ ____
ROOT
ATOM      1  C   UNL     1       1.914   8.186  18.847  0.00  0.00    +0.000 A 
ATOM      2  C   UNL     1       1.733   8.727  17.559  0.00  0.00    +0.000 A 
ATOM      3  N   UNL     1       1.113   9.908  17.559  0.00  0.00    +0.000 NA
ATOM      4  N   UNL     1       0.732  10.076  18.857  0.00  0.00    +0.000 N 
ATOM      5  C   UNL     1      -0.050  11.190  19.208  0.00  0.00    +0.000 A 
ATOM      6  N   UNL     1      -1.026  11.140  20.063  0.00  0.00    +0.000 NA
ATOM      7  N   UNL     1      -1.541  12.360  20.329  0.00  0.00    +0.000 N 
ATOM      8  C   UNL     1      -2.709  12.632  20.981  0.00  0.00    +0.000 A 
ATOM      9  C   UNL     1      -2.766  13.996  21.196  0.00  0.00    +0.000 A 
ATOM     10  C   UNL     1      -1.594  14.564  20.636  0.00  0.00    +0.000 A 
ATOM     11  C   UNL     1      -0.915  13.534  20.024  0.00  0.00    +0.000 A 
ATOM     12  C   UNL     1       0.273  13.480  19.238  0.00  0.00    +0.000 A 
ATOM     13  O   UNL     1       1.155  14.331  19.236  0.00  0.00    +0.000 OA
ATOM     14  N   UNL     1       0.378  12.308  18.531  0.00  0.00    +0.000 N 
ATOM     15  C   UNL     1       1.212   9.065  19.668  0.00  0.00    +0.000 A 
ATOM     16  C   UNL     1       1.051   9.049  21.150  0.00  0.00    +0.000 C 
ATOM     17  H   UNL     1      -0.218  12.395  17.712  0.00  0.00    +0.000 HD
ENDROOT
BRANCH   1  22
ATOM     18  N   UNL     1       5.483   4.806  17.014  0.00  0.00    +0.000 NA
ATOM     19  C   UNL     1       4.641   4.192  18.091  0.00  0.00    +0.000 C 
ATOM     20  C   UNL     1       4.270   5.215  19.167  0.00  0.00    +0.000 C 
ATOM     21  N   UNL     1       3.610   6.391  18.578  0.00  0.00    +0.000 N 
ATOM     22  C   UNL     1       2.571   6.967  19.314  0.00  0.00    +0.000 C 
ATOM     23  O   UNL     1       2.195   6.452  20.366  0.00  0.00    +0.000 OA
ATOM     24  C   UNL     1       4.409   7.030  17.522  0.00  0.00    +0.000 C 
ATOM     25  C   UNL     1       4.822   6.018  16.435  0.00  0.00    +0.000 C 
BRANCH  18  26
ATOM     26  S   UNL     1       7.155   4.914  17.331  0.00  0.00    +0.000 S 
ATOM     27  O   UNL     1       7.849   4.349  16.192  0.00  0.00    +0.000 OA
ATOM     28  O   UNL     1       7.385   4.431  18.671  0.00  0.00    +0.000 OA
BRANCH  26  30
ATOM     29  C   UNL     1       8.109   7.180  18.520  0.00  0.00    +0.000 C 
ATOM     30  C   UNL     1       7.381   6.689  17.289  0.00  0.00    +0.000 C 
ENDBRANCH  26  30
ENDBRANCH  18  26
ENDBRANCH   1  22
TORSDOF 3
ENDMDL
MODEL 4
REMARK VINA RESULT:      -7.8      4.256      9.480
REMARK  Name = 
REMARK  5 active torsions:
REMARK  status: ('A' for Active; 'I' for Inactive)
REMARK    1  A    between atoms: C_1  and  C_2
REMARK    2  A    between atoms: C_2  and  S_3
REMARK    3  A    between atoms: S_3  and  N_6
REMARK    4  A    between atoms: C_10  and  C_12
REMARK    5  A    between atoms: C_26  and  C_27
REMARK                            x       y       z     vdW  Elec       q    Type
REMARK                         _______ _______ _______ _____ _____    ______ ____
ROOT
ATOM      1  C   UNL     1       1.501   9.065  19.056  0.00  0.00    +0.000 A 
ATOM      2  C   UNL     1       2.286   9.095  17.887  0.00  0.00    +0.000 A 
ATOM      3  N   UNL     1       2.834   7.918  17.582  0.00  0.00    +0.000 NA
ATOM      4  N   UNL     1       2.539   7.134  18.657  0.00  0.00    +0.000 N 
ATOM      5  C   UNL     1       3.060   5.829  18.723  0.00  0.00    +0.000 A 
ATOM      6  N   UNL     1       3.498   5.286  19.817  0.00  0.00    +0.000 NA
ATOM      7  N   UNL     1       3.826   3.986  19.654  0.00  0.00    +0.000 N 
ATOM      8  C   UNL     1       4.532   3.203  20.520  0.00  0.00    +0.000 A 
ATOM      9  C   UNL     1       4.486   1.905  20.052  0.00  0.00    +0.000 A 
ATOM     10  C   UNL     1       3.735   1.913  18.849  0.00  0.00    +0.000 A 
ATOM     11  C   UNL     1       3.432   3.231  18.587  0.00  0.00    +0.000 A 
ATOM     12  C   UNL     1       2.774   3.884  17.504  0.00  0.00    +0.000 A 
ATOM     13  O   UNL     1       2.007   3.341  16.717  0.00  0.00    +0.000 OA
ATOM     14  N   UNL     1       3.019   5.235  17.484  0.00  0.00    +0.000 N 
ATOM     15  C   UNL     1       1.721   7.786  19.560  0.00  0.00    +0.000 A 
ATOM     16  C   UNL     1       1.144   7.135  20.771  0.00  0.00    +0.000 C 
ATOM     17  H   UNL     1       3.937   5.368  17.069  0.00  0.00    +0.000 HD
ENDROOT
BRANCH   1  22
ATOM     18  N   UNL     1      -2.776  11.894  17.950  0.00  0.00    +0.000 NA
ATOM     19  C   UNL     1      -1.946  12.540  19.018  0.00  0.00    +0.000 C 
ATOM     20  C   UNL     1      -1.291  11.498  19.929  0.00  0.00    +0.000 C 
ATOM     21  N   UNL     1      -0.502  10.532  19.149  0.00  0.00    +0.000 N 
ATOM     22  C   UNL     1       0.693  10.086  19.719  0.00  0.00    +0.000 C 
ATOM     23  O   UNL     1       1.082  10.552  20.791  0.00  0.00    +0.000 OA
ATOM     24  C   UNL     1      -1.283   9.867  18.095  0.00  0.00    +0.000 C 
ATOM     25  C   UNL     1      -1.978  10.891  17.177  0.00  0.00    +0.000 C 
BRANCH  18  26
ATOM     26  S   UNL     1      -4.361  11.445  18.392  0.00  0.00    +0.000 S 
ATOM     27  O   UNL     1      -4.663  12.102  19.647  0.00  0.00    +0.000 OA
ATOM     28  O   UNL     1      -4.476  10.015  18.242  0.00  0.00    +0.000 OA
BRANCH  26  30
ATOM     29  C   UNL     1      -6.769  12.337  17.462  0.00  0.00    +0.000 C 
ATOM     30  C   UNL     1      -5.301  12.259  17.105  0.00  0.00    +0.000 C 
ENDBRANCH  26  30
ENDBRANCH  18  26
ENDBRANCH   1  22
TORSDOF 3
ENDMDL
MODEL 5
REMARK VINA RESULT:      -7.8      4.052      9.396
REMARK  Name = 
REMARK  5 active torsions:
REMARK  status: ('A' for Active; 'I' for Inactive)
REMARK    1  A    between atoms: C_1  and  C_2
REMARK    2  A    between atoms: C_2  and  S_3
REMARK    3  A    between atoms: S_3  and  N_6
REMARK    4  A    between atoms: C_10  and  C_12
REMARK    5  A    between atoms: C_26  and  C_27
REMARK                            x       y       z     vdW  Elec       q    Type
REMARK                         _______ _______ _______ _____ _____    ______ ____
ROOT
ATOM      1  C   UNL     1       1.253   8.849  20.127  0.00  0.00    +0.000 A 
ATOM      2  C   UNL     1       1.136   7.758  21.010  0.00  0.00    +0.000 A 
ATOM      3  N   UNL     1       1.933   6.733  20.701  0.00  0.00    +0.000 NA
ATOM      4  N   UNL     1       2.469   7.089  19.500  0.00  0.00    +0.000 N 
ATOM      5  C   UNL     1       3.295   6.179  18.817  0.00  0.00    +0.000 A 
ATOM      6  N   UNL     1       3.269   6.012  17.530  0.00  0.00    +0.000 NA
ATOM      7  N   UNL     1       4.241   5.180  17.097  0.00  0.00    +0.000 N 
ATOM      8  C   UNL     1       4.342   4.611  15.861  0.00  0.00    +0.000 A 
ATOM      9  C   UNL     1       5.570   3.983  15.783  0.00  0.00    +0.000 A 
ATOM     10  C   UNL     1       6.224   4.171  17.027  0.00  0.00    +0.000 A 
ATOM     11  C   UNL     1       5.329   4.828  17.842  0.00  0.00    +0.000 A 
ATOM     12  C   UNL     1       5.367   5.227  19.211  0.00  0.00    +0.000 A 
ATOM     13  O   UNL     1       6.388   5.375  19.872  0.00  0.00    +0.000 OA
ATOM     14  N   UNL     1       4.120   5.523  19.702  0.00  0.00    +0.000 N 
ATOM     15  C   UNL     1       2.096   8.366  19.128  0.00  0.00    +0.000 A 
ATOM     16  C   UNL     1       2.624   9.062  17.920  0.00  0.00    +0.000 C 
ATOM     17  H   UNL     1       3.665   4.642  19.922  0.00  0.00    +0.000 HD
ENDROOT
BRANCH   1  22
ATOM     18  N   UNL     1      -2.637  11.215  17.522  0.00  0.00    +0.000 NA
ATOM     19  C   UNL     1      -1.678  12.208  18.107  0.00  0.00    +0.000 C 
ATOM     20  C   UNL     1      -1.134  11.735  19.457  0.00  0.00    +0.000 C 
ATOM     21  N   UNL     1      -0.521  10.402  19.346  0.00  0.00    +0.000 N 
ATOM     22  C   UNL     1       0.625  10.168  20.110  0.00  0.00    +0.000 C 
ATOM     23  O   UNL     1       1.122  11.074  20.779  0.00  0.00    +0.000 OA
ATOM     24  C   UNL     1      -1.432   9.394  18.785  0.00  0.00    +0.000 C 
ATOM     25  C   UNL     1      -2.020   9.854  17.435  0.00  0.00    +0.000 C 
BRANCH  18  26
ATOM     26  S   UNL     1      -4.247  11.301  18.076  0.00  0.00    +0.000 S 
ATOM     27  O   UNL     1      -4.286  12.282  19.141  0.00  0.00    +0.000 OA
ATOM     28  O   UNL     1      -4.721   9.953  18.275  0.00  0.00    +0.000 OA
BRANCH  26  30
ATOM     29  C   UNL     1      -6.242  12.852  17.040  0.00  0.00    +0.000 C 
ATOM     30  C   UNL     1      -5.048  12.011  16.643  0.00  0.00    +0.000 C 
ENDBRANCH  26  30
ENDBRANCH  18  26
ENDBRANCH   1  22
TORSDOF 3
ENDMDL
MODEL 6
REMARK VINA RESULT:      -7.8      3.042      4.071
REMARK  Name = 
REMARK  5 active torsions:
REMARK  status: ('A' for Active; 'I' for Inactive)
REMARK    1  A    between atoms: C_1  and  C_2
REMARK    2  A    between atoms: C_2  and  S_3
REMARK    3  A    between atoms: S_3  and  N_6
REMARK    4  A    between atoms: C_10  and  C_12
REMARK    5  A    between atoms: C_26  and  C_27
REMARK                            x       y       z     vdW  Elec       q    Type
REMARK                         _______ _______ _______ _____ _____    ______ ____
ROOT
ATOM      1  C   UNL     1       1.211   9.222  20.579  0.00  0.00    +0.000 A 
ATOM      2  C   UNL     1       1.294   8.991  21.966  0.00  0.00    +0.000 A 
ATOM      3  N   UNL     1       0.595   9.864  22.694  0.00  0.00    +0.000 NA
ATOM      4  N   UNL     1       0.174  10.785  21.783  0.00  0.00    +0.000 N 
ATOM      5  C   UNL     1      -0.519  11.926  22.225  0.00  0.00    +0.000 A 
ATOM      6  N   UNL     1      -0.343  13.111  21.725  0.00  0.00    +0.000 NA
ATOM      7  N   UNL     1      -1.212  14.016  22.224  0.00  0.00    +0.000 N 
ATOM      8  C   UNL     1      -1.145  15.373  22.098  0.00  0.00    +0.000 A 
ATOM      9  C   UNL     1      -2.319  15.904  22.596  0.00  0.00    +0.000 A 
ATOM     10  C   UNL     1      -3.114  14.822  23.053  0.00  0.00    +0.000 A 
ATOM     11  C   UNL     1      -2.353  13.685  22.896  0.00  0.00    +0.000 A 
ATOM     12  C   UNL     1      -2.563  12.316  23.236  0.00  0.00    +0.000 A 
ATOM     13  O   UNL     1      -3.657  11.800  23.434  0.00  0.00    +0.000 OA
ATOM     14  N   UNL     1      -1.396  11.593  23.231  0.00  0.00    +0.000 N 
ATOM     15  C   UNL     1       0.512  10.423  20.492  0.00  0.00    +0.000 A 
ATOM     16  C   UNL     1       0.080  11.180  19.283  0.00  0.00    +0.000 C 
ATOM     17  H   UNL     1      -0.917  11.787  24.106  0.00  0.00    +0.000 HD
ENDROOT
BRANCH   1  22
ATOM     18  N   UNL     1       2.922   4.371  19.550  0.00  0.00    +0.000 NA
ATOM     19  C   UNL     1       3.477   5.371  18.581  0.00  0.00    +0.000 C 
ATOM     20  C   UNL     1       2.462   6.472  18.266  0.00  0.00    +0.000 C 
ATOM     21  N   UNL     1       1.987   7.126  19.496  0.00  0.00    +0.000 N 
ATOM     22  C   UNL     1       1.760   8.503  19.432  0.00  0.00    +0.000 C 
ATOM     23  O   UNL     1       2.025   9.129  18.405  0.00  0.00    +0.000 OA
ATOM     24  C   UNL     1       1.425   6.180  20.471  0.00  0.00    +0.000 C 
ATOM     25  C   UNL     1       2.415   5.042  20.789  0.00  0.00    +0.000 C 
BRANCH  18  26
ATOM     26  S   UNL     1       1.953   3.134  18.889  0.00  0.00    +0.000 S 
ATOM     27  O   UNL     1       1.593   3.538  17.545  0.00  0.00    +0.000 OA
ATOM     28  O   UNL     1       0.950   2.785  19.866  0.00  0.00    +0.000 OA
BRANCH  26  30
ATOM     29  C   UNL     1       4.295   2.012  19.734  0.00  0.00    +0.000 C 
ATOM     30  C   UNL     1       3.152   1.812  18.764  0.00  0.00    +0.000 C 
ENDBRANCH  26  30
ENDBRANCH  18  26
ENDBRANCH   1  22
TORSDOF 3
ENDMDL
MODEL 7
REMARK VINA RESULT:      -7.7      2.990      4.476
REMARK  Name = 
REMARK  5 active torsions:
REMARK  status: ('A' for Active; 'I' for Inactive)
REMARK    1  A    between atoms: C_1  and  C_2
REMARK    2  A    between atoms: C_2  and  S_3
REMARK    3  A    between atoms: S_3  and  N_6
REMARK    4  A    between atoms: C_10  and  C_12
REMARK    5  A    between atoms: C_26  and  C_27
REMARK                            x       y       z     vdW  Elec       q    Type
REMARK                         _______ _______ _______ _____ _____    ______ ____
ROOT
ATOM      1  C   UNL     1       0.951  10.640  19.593  0.00  0.00    +0.000 A 
ATOM      2  C   UNL     1       1.455  11.516  20.574  0.00  0.00    +0.000 A 
ATOM      3  N   UNL     1       0.503  12.153  21.259  0.00  0.00    +0.000 NA
ATOM      4  N   UNL     1      -0.647  11.815  20.611  0.00  0.00    +0.000 N 
ATOM      5  C   UNL     1      -1.861  12.401  21.009  0.00  0.00    +0.000 A 
ATOM      6  N   UNL     1      -2.783  12.777  20.177  0.00  0.00    +0.000 NA
ATOM      7  N   UNL     1      -3.906  13.191  20.803  0.00  0.00    +0.000 N 
ATOM      8  C   UNL     1      -4.954  13.866  20.246  0.00  0.00    +0.000 A 
ATOM      9  C   UNL     1      -5.963  13.931  21.187  0.00  0.00    +0.000 A 
ATOM     10  C   UNL     1      -5.496  13.283  22.358  0.00  0.00    +0.000 A 
ATOM     11  C   UNL     1      -4.187  12.929  22.113  0.00  0.00    +0.000 A 
ATOM     12  C   UNL     1      -3.173  12.327  22.913  0.00  0.00    +0.000 A 
ATOM     13  O   UNL     1      -3.375  11.660  23.921  0.00  0.00    +0.000 OA
ATOM     14  N   UNL     1      -1.919  12.497  22.380  0.00  0.00    +0.000 N 
ATOM     15  C   UNL     1      -0.419  10.890  19.610  0.00  0.00    +0.000 A 
ATOM     16  C   UNL     1      -1.505  10.252  18.813  0.00  0.00    +0.000 C 
ATOM     17  H   UNL     1      -1.615  13.437  22.617  0.00  0.00    +0.000 HD
ENDROOT
BRANCH   1  22
ATOM     18  N   UNL     1       2.740   5.710  19.690  0.00  0.00    +0.000 NA
ATOM     19  C   UNL     1       3.394   6.515  18.607  0.00  0.00    +0.000 C 
ATOM     20  C   UNL     1       2.420   7.519  17.987  0.00  0.00    +0.000 C 
ATOM     21  N   UNL     1       1.826   8.388  19.015  0.00  0.00    +0.000 N 
ATOM     22  C   UNL     1       1.611   9.724  18.666  0.00  0.00    +0.000 C 
ATOM     23  O   UNL     1       1.981  10.147  17.570  0.00  0.00    +0.000 OA
ATOM     24  C   UNL     1       1.164   7.637  20.091  0.00  0.00    +0.000 C 
ATOM     25  C   UNL     1       2.112   6.597  20.720  0.00  0.00    +0.000 C 
BRANCH  18  26
ATOM     26  S   UNL     1       1.838   4.354  19.184  0.00  0.00    +0.000 S 
ATOM     27  O   UNL     1       1.541   4.532  17.777  0.00  0.00    +0.000 OA
ATOM     28  O   UNL     1       0.793   4.129  20.152  0.00  0.00    +0.000 OA
BRANCH  26  30
ATOM     29  C   UNL     1       3.203   2.284  18.040  0.00  0.00    +0.000 C 
ATOM     30  C   UNL     1       3.073   3.068  19.328  0.00  0.00    +0.000 C 
ENDBRANCH  26  30
ENDBRANCH  18  26
ENDBRANCH   1  22
TORSDOF 3
ENDMDL
MODEL 8
REMARK VINA RESULT:      -7.7      3.854      9.266
REMARK  Name = 
REMARK  5 active torsions:
REMARK  status: ('A' for Active; 'I' for Inactive)
REMARK    1  A    between atoms: C_1  and  C_2
REMARK    2  A    between atoms: C_2  and  S_3
REMARK    3  A    between atoms: S_3  and  N_6
REMARK    4  A    between atoms: C_10  and  C_12
REMARK    5  A    between atoms: C_26  and  C_27
REMARK                            x       y       z     vdW  Elec       q    Type
REMARK                         _______ _______ _______ _____ _____    ______ ____
ROOT
ATOM      1  C   UNL     1       1.231   8.755  20.187  0.00  0.00    +0.000 A 
ATOM      2  C   UNL     1       1.137   7.648  21.053  0.00  0.00    +0.000 A 
ATOM      3  N   UNL     1       1.954   6.645  20.728  0.00  0.00    +0.000 NA
ATOM      4  N   UNL     1       2.481   7.029  19.532  0.00  0.00    +0.000 N 
ATOM      5  C   UNL     1       3.324   6.147  18.834  0.00  0.00    +0.000 A 
ATOM      6  N   UNL     1       3.299   6.000  17.544  0.00  0.00    +0.000 NA
ATOM      7  N   UNL     1       4.286   5.194  17.097  0.00  0.00    +0.000 N 
ATOM      8  C   UNL     1       4.397   4.646  15.852  0.00  0.00    +0.000 A 
ATOM      9  C   UNL     1       5.637   4.044  15.763  0.00  0.00    +0.000 A 
ATOM     10  C   UNL     1       6.289   4.225  17.009  0.00  0.00    +0.000 A 
ATOM     11  C   UNL     1       5.382   4.852  17.836  0.00  0.00    +0.000 A 
ATOM     12  C   UNL     1       5.414   5.230  19.210  0.00  0.00    +0.000 A 
ATOM     13  O   UNL     1       6.433   5.388  19.873  0.00  0.00    +0.000 OA
ATOM     14  N   UNL     1       4.162   5.494  19.707  0.00  0.00    +0.000 N 
ATOM     15  C   UNL     1       2.082   8.305  19.180  0.00  0.00    +0.000 A 
ATOM     16  C   UNL     1       2.594   9.030  17.983  0.00  0.00    +0.000 C 
ATOM     17  H   UNL     1       3.725   4.601  19.914  0.00  0.00    +0.000 HD
ENDROOT
BRANCH   1  22
ATOM     18  N   UNL     1      -2.372  11.254  17.309  0.00  0.00    +0.000 NA
ATOM     19  C   UNL     1      -1.517  12.214  18.080  0.00  0.00    +0.000 C 
ATOM     20  C   UNL     1      -1.128  11.647  19.447  0.00  0.00    +0.000 C 
ATOM     21  N   UNL     1      -0.474  10.336  19.313  0.00  0.00    +0.000 N 
ATOM     22  C   UNL     1       0.577  10.061  20.192  0.00  0.00    +0.000 C 
ATOM     23  O   UNL     1       0.967  10.921  20.983  0.00  0.00    +0.000 OA
ATOM     24  C   UNL     1      -1.285   9.360  18.571  0.00  0.00    +0.000 C 
ATOM     25  C   UNL     1      -1.716   9.913  17.198  0.00  0.00    +0.000 C 
BRANCH  18  26
ATOM     26  S   UNL     1      -4.039  11.272  17.667  0.00  0.00    +0.000 S 
ATOM     27  O   UNL     1      -4.411   9.930  18.065  0.00  0.00    +0.000 OA
ATOM     28  O   UNL     1      -4.717  11.955  16.592  0.00  0.00    +0.000 OA
BRANCH  26  30
ATOM     29  C   UNL     1      -5.413  12.320  19.782  0.00  0.00    +0.000 C 
ATOM     30  C   UNL     1      -4.048  12.302  19.130  0.00  0.00    +0.000 C 
ENDBRANCH  26  30
ENDBRANCH  18  26
ENDBRANCH   1  22
TORSDOF 3
ENDMDL
MODEL 9
REMARK VINA RESULT:      -7.6      2.516      3.901
REMARK  Name = 
REMARK  5 active torsions:
REMARK  status: ('A' for Active; 'I' for Inactive)
REMARK    1  A    between atoms: C_1  and  C_2
REMARK    2  A    between atoms: C_2  and  S_3
REMARK    3  A    between atoms: S_3  and  N_6
REMARK    4  A    between atoms: C_10  and  C_12
REMARK    5  A    between atoms: C_26  and  C_27
REMARK                            x       y       z     vdW  Elec       q    Type
REMARK                         _______ _______ _______ _____ _____    ______ ____
ROOT
ATOM      1  C   UNL     1       1.154   9.223  20.265  0.00  0.00    +0.000 A 
ATOM      2  C   UNL     1       0.986   8.675  21.552  0.00  0.00    +0.000 A 
ATOM      3  N   UNL     1       0.321   9.473  22.388  0.00  0.00    +0.000 NA
ATOM      4  N   UNL     1       0.187  10.637  21.692  0.00  0.00    +0.000 N 
ATOM      5  C   UNL     1      -0.388  11.755  22.321  0.00  0.00    +0.000 A 
ATOM      6  N   UNL     1       0.038  12.970  22.154  0.00  0.00    +0.000 NA
ATOM      7  N   UNL     1      -0.754  13.882  22.759  0.00  0.00    +0.000 N 
ATOM      8  C   UNL     1      -0.467  15.197  22.982  0.00  0.00    +0.000 A 
ATOM      9  C   UNL     1      -1.612  15.806  23.459  0.00  0.00    +0.000 A 
ATOM     10  C   UNL     1      -2.620  14.812  23.538  0.00  0.00    +0.000 A 
ATOM     11  C   UNL     1      -2.021  13.621  23.193  0.00  0.00    +0.000 A 
ATOM     12  C   UNL     1      -2.483  12.272  23.156  0.00  0.00    +0.000 A 
ATOM     13  O   UNL     1      -3.659  11.932  23.092  0.00  0.00    +0.000 OA
ATOM     14  N   UNL     1      -1.450  11.369  23.105  0.00  0.00    +0.000 N 
ATOM     15  C   UNL     1       0.663  10.520  20.400  0.00  0.00    +0.000 A 
ATOM     16  C   UNL     1       0.541  11.595  19.374  0.00  0.00    +0.000 C 
ATOM     17  H   UNL     1      -1.090  11.271  24.050  0.00  0.00    +0.000 HD
ENDROOT
BRANCH   1  22
ATOM     18  N   UNL     1       3.656   4.848  18.812  0.00  0.00    +0.000 NA
ATOM     19  C   UNL     1       3.967   5.994  17.896  0.00  0.00    +0.000 C 
ATOM     20  C   UNL     1       2.754   6.907  17.706  0.00  0.00    +0.000 C 
ATOM     21  N   UNL     1       2.237   7.381  18.999  0.00  0.00    +0.000 N 
ATOM     22  C   UNL     1       1.761   8.694  19.046  0.00  0.00    +0.000 C 
ATOM     23  O   UNL     1       1.851   9.423  18.058  0.00  0.00    +0.000 OA
ATOM     24  C   UNL     1       1.909   6.286  19.924  0.00  0.00    +0.000 C 
ATOM     25  C   UNL     1       3.104   5.332  20.116  0.00  0.00    +0.000 C 
BRANCH  18  26
ATOM     26  S   UNL     1       2.892   3.499  18.102  0.00  0.00    +0.000 S 
ATOM     27  O   UNL     1       3.929   2.666  17.528  0.00  0.00    +0.000 OA
ATOM     28  O   UNL     1       1.786   3.981  17.310  0.00  0.00    +0.000 OA
BRANCH  26  30
ATOM     29  C   UNL     1       0.764   2.511  19.499  0.00  0.00    +0.000 C 
ATOM     30  C   UNL     1       2.267   2.673  19.561  0.00  0.00    +0.000 C 
ENDBRANCH  26  30
ENDBRANCH  18  26
ENDBRANCH   1  22
TORSDOF 3
ENDMDL
