MODEL 1
REMARK VINA RESULT:      -7.9      0.000      0.000
REMARK  Name = 
REMARK  6 active torsions:
REMARK  status: ('A' for Active; 'I' for Inactive)
REMARK    1  A    between atoms: C_1  and  C_2
REMARK    2  A    between atoms: C_6  and  C_7
REMARK    3  A    between atoms: C_11  and  C_13
REMARK    4  A    between atoms: C_13  and  C_14
REMARK    5  A    between atoms: C_14  and  C_15
REMARK    6  A    between atoms: C_25  and  O_26
REMARK                            x       y       z     vdW  Elec       q    Type
REMARK                         _______ _______ _______ _____ _____    ______ ____
ROOT
ATOM      1  C   UNL     1      -1.876  12.144  19.372  0.00  0.00    +0.000 C 
ATOM      2  C   UNL     1      -1.929  10.696  18.866  0.00  0.00    +0.000 C 
ATOM      3  C   UNL     1      -0.620   9.934  19.021  0.00  0.00    +0.000 C 
ATOM      4  N   UNL     1       0.534  10.703  18.546  0.00  0.00    +0.000 N 
ATOM      5  C   UNL     1       1.665  10.120  17.978  0.00  0.00    +0.000 C 
ATOM      6  O   UNL     1       2.665  10.778  17.685  0.00  0.00    +0.000 OA
ATOM      7  C   UNL     1       0.672  12.059  19.093  0.00  0.00    +0.000 C 
ATOM      8  C   UNL     1      -0.609  12.870  18.885  0.00  0.00    +0.000 C 
ENDROOT
BRANCH   1  14
ATOM      9  C   UNL     1      -4.365  13.568  20.735  0.00  0.00    +0.000 C 
ATOM     10  C   UNL     1      -3.258  12.877  21.465  0.00  0.00    +0.000 A 
ATOM     11  C   UNL     1      -3.224  12.740  22.893  0.00  0.00    +0.000 A 
ATOM     12  C   UNL     1      -2.110  12.072  23.336  0.00  0.00    +0.000 A 
ATOM     13  S   UNL     1      -1.093  11.627  22.052  0.00  0.00    +0.000 S 
ATOM     14  C   UNL     1      -2.154  12.275  20.867  0.00  0.00    +0.000 A 
ENDBRANCH   1  14
BRANCH   8  15
ATOM     15  O   UNL     1      -0.750  13.118  17.470  0.00  0.00    +0.000 OA
ATOM     16  H   UNL     1      -1.685  13.369  17.319  0.00  0.00    +0.000 HD
ENDBRANCH   8  15
BRANCH   5  17
ATOM     17  C   UNL     1       1.595   8.642  17.671  0.00  0.00    +0.000 C 
BRANCH  17  18
ATOM     18  C   UNL     1       2.868   7.926  18.105  0.00  0.00    +0.000 C 
BRANCH  18  19
ATOM     19  C   UNL     1       2.545   6.584  18.668  0.00  0.00    +0.000 A 
ATOM     20  N   UNL     1       2.163   5.520  17.991  0.00  0.00    +0.000 NA
ATOM     21  C   UNL     1       1.997   4.529  18.925  0.00  0.00    +0.000 A 
ATOM     22  C   UNL     1       1.611   3.193  18.750  0.00  0.00    +0.000 A 
ATOM     23  C   UNL     1       1.517   2.372  19.880  0.00  0.00    +0.000 A 
ATOM     24  C   UNL     1       1.801   2.876  21.155  0.00  0.00    +0.000 A 
ATOM     25  C   UNL     1       2.186   4.209  21.346  0.00  0.00    +0.000 A 
ATOM     26  C   UNL     1       2.274   5.001  20.200  0.00  0.00    +0.000 A 
ATOM     27  N   UNL     1       2.614   6.315  20.009  0.00  0.00    +0.000 N 
ATOM     28  H   UNL     1       2.878   6.973  20.729  0.00  0.00    +0.000 HD
ENDBRANCH  18  19
ENDBRANCH  17  18
ENDBRANCH   5  17
TORSDOF 5
ENDMDL
MODEL 2
REMARK VINA RESULT:      -7.9      0.242      1.160
REMARK  Name = 
REMARK  6 active torsions:
REMARK  status: ('A' for Active; 'I' for Inactive)
REMARK    1  A    between atoms: C_1  and  C_2
REMARK    2  A    between atoms: C_6  and  C_7
REMARK    3  A    between atoms: C_11  and  C_13
REMARK    4  A    between atoms: C_13  and  C_14
REMARK    5  A    between atoms: C_14  and  C_15
REMARK    6  A    between atoms: C_25  and  O_26
REMARK                            x       y       z     vdW  Elec       q    Type
REMARK                         _______ _______ _______ _____ _____    ______ ____
ROOT
ATOM      1  C   UNL     1      -1.916  12.195  19.352  0.00  0.00    +0.000 C 
ATOM      2  C   UNL     1      -1.960  10.756  18.818  0.00  0.00    +0.000 C 
ATOM      3  C   UNL     1      -0.653   9.992  18.981  0.00  0.00    +0.000 C 
ATOM      4  N   UNL     1       0.508  10.769  18.539  0.00  0.00    +0.000 N 
ATOM      5  C   UNL     1       1.648  10.197  17.979  0.00  0.00    +0.000 C 
ATOM      6  O   UNL     1       2.652  10.860  17.715  0.00  0.00    +0.000 OA
ATOM      7  C   UNL     1       0.636  12.114  19.113  0.00  0.00    +0.000 C 
ATOM      8  C   UNL     1      -0.641  12.929  18.899  0.00  0.00    +0.000 C 
ENDROOT
BRANCH   1  14
ATOM      9  C   UNL     1      -4.542  13.375  20.692  0.00  0.00    +0.000 C 
ATOM     10  C   UNL     1      -3.380  12.792  21.431  0.00  0.00    +0.000 A 
ATOM     11  C   UNL     1      -3.347  12.659  22.860  0.00  0.00    +0.000 A 
ATOM     12  C   UNL     1      -2.177  12.101  23.314  0.00  0.00    +0.000 A 
ATOM     13  S   UNL     1      -1.111  11.754  22.038  0.00  0.00    +0.000 S 
ATOM     14  C   UNL     1      -2.219  12.298  20.844  0.00  0.00    +0.000 A 
ENDBRANCH   1  14
BRANCH   8  15
ATOM     15  O   UNL     1      -0.759  13.203  17.486  0.00  0.00    +0.000 OA
ATOM     16  H   UNL     1      -1.678  12.978  17.231  0.00  0.00    +0.000 HD
ENDBRANCH   8  15
BRANCH   5  17
ATOM     17  C   UNL     1       1.584   8.724  17.645  0.00  0.00    +0.000 C 
BRANCH  17  18
ATOM     18  C   UNL     1       2.836   7.995  18.116  0.00  0.00    +0.000 C 
BRANCH  18  19
ATOM     19  C   UNL     1       2.483   6.652  18.658  0.00  0.00    +0.000 A 
ATOM     20  N   UNL     1       2.370   6.323  19.929  0.00  0.00    +0.000 NA
ATOM     21  C   UNL     1       2.020   4.997  19.936  0.00  0.00    +0.000 A 
ATOM     22  C   UNL     1       1.762   4.147  21.022  0.00  0.00    +0.000 A 
ATOM     23  C   UNL     1       1.415   2.816  20.759  0.00  0.00    +0.000 A 
ATOM     24  C   UNL     1       1.331   2.345  19.444  0.00  0.00    +0.000 A 
ATOM     25  C   UNL     1       1.588   3.181  18.350  0.00  0.00    +0.000 A 
ATOM     26  C   UNL     1       1.927   4.503  18.643  0.00  0.00    +0.000 A 
ATOM     27  N   UNL     1       2.234   5.576  17.847  0.00  0.00    +0.000 N 
ATOM     28  H   UNL     1       2.264   5.580  16.837  0.00  0.00    +0.000 HD
ENDBRANCH  18  19
ENDBRANCH  17  18
ENDBRANCH   5  17
TORSDOF 5
ENDMDL
MODEL 3
REMARK VINA RESULT:      -7.8      3.754      6.202
REMARK  Name = 
REMARK  6 active torsions:
REMARK  status: ('A' for Active; 'I' for Inactive)
REMARK    1  A    between atoms: C_1  and  C_2
REMARK    2  A    between atoms: C_6  and  C_7
REMARK    3  A    between atoms: C_11  and  C_13
REMARK    4  A    between atoms: C_13  and  C_14
REMARK    5  A    between atoms: C_14  and  C_15
REMARK    6  A    between atoms: C_25  and  O_26
REMARK                            x       y       z     vdW  Elec       q    Type
REMARK                         _______ _______ _______ _____ _____    ______ ____
ROOT
ATOM      1  C   UNL     1       2.293   7.186  20.087  0.00  0.00    +0.000 C 
ATOM      2  C   UNL     1       3.143   6.629  18.936  0.00  0.00    +0.000 C 
ATOM      3  C   UNL     1       2.432   5.587  18.084  0.00  0.00    +0.000 C 
ATOM      4  N   UNL     1       1.762   4.565  18.894  0.00  0.00    +0.000 N 
ATOM      5  C   UNL     1       1.608   3.241  18.489  0.00  0.00    +0.000 C 
ATOM      6  O   UNL     1       0.949   2.429  19.139  0.00  0.00    +0.000 OA
ATOM      7  C   UNL     1       0.860   5.064  19.939  0.00  0.00    +0.000 C 
ATOM      8  C   UNL     1       1.573   6.062  20.854  0.00  0.00    +0.000 C 
ENDROOT
BRANCH   1  14
ATOM      9  C   UNL     1       0.149   8.682  21.887  0.00  0.00    +0.000 C 
ATOM     10  C   UNL     1       0.480   9.026  20.471  0.00  0.00    +0.000 A 
ATOM     11  C   UNL     1      -0.119  10.126  19.770  0.00  0.00    +0.000 A 
ATOM     12  C   UNL     1       0.336  10.245  18.480  0.00  0.00    +0.000 A 
ATOM     13  S   UNL     1       1.462   9.033  18.097  0.00  0.00    +0.000 S 
ATOM     14  C   UNL     1       1.402   8.353  19.674  0.00  0.00    +0.000 A 
ENDBRANCH   1  14
BRANCH   8  15
ATOM     15  O   UNL     1       2.559   5.335  21.618  0.00  0.00    +0.000 OA
ATOM     16  H   UNL     1       2.808   4.552  21.085  0.00  0.00    +0.000 HD
ENDBRANCH   8  15
BRANCH   5  17
ATOM     17  C   UNL     1       2.341   2.817  17.237  0.00  0.00    +0.000 C 
BRANCH  17  18
ATOM     18  C   UNL     1       3.721   2.262  17.566  0.00  0.00    +0.000 C 
BRANCH  18  19
ATOM     19  C   UNL     1       4.724   3.363  17.628  0.00  0.00    +0.000 A 
ATOM     20  N   UNL     1       5.094   4.145  16.634  0.00  0.00    +0.000 NA
ATOM     21  C   UNL     1       6.019   5.006  17.167  0.00  0.00    +0.000 A 
ATOM     22  C   UNL     1       6.725   6.051  16.554  0.00  0.00    +0.000 A 
ATOM     23  C   UNL     1       7.623   6.795  17.329  0.00  0.00    +0.000 A 
ATOM     24  C   UNL     1       7.812   6.500  18.684  0.00  0.00    +0.000 A 
ATOM     25  C   UNL     1       7.115   5.459  19.311  0.00  0.00    +0.000 A 
ATOM     26  C   UNL     1       6.225   4.738  18.514  0.00  0.00    +0.000 A 
ATOM     27  N   UNL     1       5.393   3.682  18.780  0.00  0.00    +0.000 N 
ATOM     28  H   UNL     1       5.283   3.221  19.672  0.00  0.00    +0.000 HD
ENDBRANCH  18  19
ENDBRANCH  17  18
ENDBRANCH   5  17
TORSDOF 5
ENDMDL
MODEL 4
REMARK VINA RESULT:      -7.7      3.706      8.966
REMARK  Name = 
REMARK  6 active torsions:
REMARK  status: ('A' for Active; 'I' for Inactive)
REMARK    1  A    between atoms: C_1  and  C_2
REMARK    2  A    between atoms: C_6  and  C_7
REMARK    3  A    between atoms: C_11  and  C_13
REMARK    4  A    between atoms: C_13  and  C_14
REMARK    5  A    between atoms: C_14  and  C_15
REMARK    6  A    between atoms: C_25  and  O_26
REMARK                            x       y       z     vdW  Elec       q    Type
REMARK                         _______ _______ _______ _____ _____    ______ ____
ROOT
ATOM      1  C   UNL     1       3.754   5.127  17.558  0.00  0.00    +0.000 C 
ATOM      2  C   UNL     1       3.354   6.451  16.891  0.00  0.00    +0.000 C 
ATOM      3  C   UNL     1       3.249   7.626  17.853  0.00  0.00    +0.000 C 
ATOM      4  N   UNL     1       2.480   7.295  19.057  0.00  0.00    +0.000 N 
ATOM      5  C   UNL     1       1.702   8.219  19.750  0.00  0.00    +0.000 C 
ATOM      6  O   UNL     1       1.152   7.944  20.818  0.00  0.00    +0.000 OA
ATOM      7  C   UNL     1       2.905   6.089  19.778  0.00  0.00    +0.000 C 
ATOM      8  C   UNL     1       2.950   4.876  18.846  0.00  0.00    +0.000 C 
ENDROOT
BRANCH   1  14
ATOM      9  C   UNL     1       5.768   4.055  15.349  0.00  0.00    +0.000 C 
ATOM     10  C   UNL     1       6.150   4.504  16.723  0.00  0.00    +0.000 A 
ATOM     11  C   UNL     1       7.507   4.543  17.187  0.00  0.00    +0.000 A 
ATOM     12  C   UNL     1       7.614   4.986  18.482  0.00  0.00    +0.000 A 
ATOM     13  S   UNL     1       6.093   5.336  19.153  0.00  0.00    +0.000 S 
ATOM     14  C   UNL     1       5.263   4.950  17.699  0.00  0.00    +0.000 A 
ENDBRANCH   1  14
BRANCH   8  15
ATOM     15  O   UNL     1       1.593   4.554  18.473  0.00  0.00    +0.000 OA
ATOM     16  H   UNL     1       1.021   5.247  18.862  0.00  0.00    +0.000 HD
ENDBRANCH   8  15
BRANCH   5  17
ATOM     17  C   UNL     1       1.502   9.571  19.104  0.00  0.00    +0.000 C 
BRANCH  17  18
ATOM     18  C   UNL     1       0.412  10.367  19.811  0.00  0.00    +0.000 C 
BRANCH  18  19
ATOM     19  C   UNL     1      -0.767  10.542  18.917  0.00  0.00    +0.000 A 
ATOM     20  N   UNL     1      -1.874  11.200  19.196  0.00  0.00    +0.000 NA
ATOM     21  C   UNL     1      -2.656  11.099  18.073  0.00  0.00    +0.000 A 
ATOM     22  C   UNL     1      -3.931  11.625  17.823  0.00  0.00    +0.000 A 
ATOM     23  C   UNL     1      -4.522  11.379  16.578  0.00  0.00    +0.000 A 
ATOM     24  C   UNL     1      -3.855  10.623  15.607  0.00  0.00    +0.000 A 
ATOM     25  C   UNL     1      -2.582  10.089  15.843  0.00  0.00    +0.000 A 
ATOM     26  C   UNL     1      -2.018  10.354  17.091  0.00  0.00    +0.000 A 
ATOM     27  N   UNL     1      -0.818  10.005  17.657  0.00  0.00    +0.000 N 
ATOM     28  H   UNL     1      -0.092   9.455  17.221  0.00  0.00    +0.000 HD
ENDBRANCH  18  19
ENDBRANCH  17  18
ENDBRANCH   5  17
TORSDOF 5
ENDMDL
MODEL 5
REMARK VINA RESULT:      -7.6      3.722      8.925
REMARK  Name = 
REMARK  6 active torsions:
REMARK  status: ('A' for Active; 'I' for Inactive)
REMARK    1  A    between atoms: C_1  and  C_2
REMARK    2  A    between atoms: C_6  and  C_7
REMARK    3  A    between atoms: C_11  and  C_13
REMARK    4  A    between atoms: C_13  and  C_14
REMARK    5  A    between atoms: C_14  and  C_15
REMARK    6  A    between atoms: C_25  and  O_26
REMARK                            x       y       z     vdW  Elec       q    Type
REMARK                         _______ _______ _______ _____ _____    ______ ____
ROOT
ATOM      1  C   UNL     1       3.713   5.056  17.665  0.00  0.00    +0.000 C 
ATOM      2  C   UNL     1       3.248   6.380  17.042  0.00  0.00    +0.000 C 
ATOM      3  C   UNL     1       3.160   7.535  18.030  0.00  0.00    +0.000 C 
ATOM      4  N   UNL     1       2.460   7.165  19.263  0.00  0.00    +0.000 N 
ATOM      5  C   UNL     1       1.694   8.057  20.010  0.00  0.00    +0.000 C 
ATOM      6  O   UNL     1       1.203   7.749  21.098  0.00  0.00    +0.000 OA
ATOM      7  C   UNL     1       2.949   5.958  19.941  0.00  0.00    +0.000 C 
ATOM      8  C   UNL     1       2.980   4.763  18.987  0.00  0.00    +0.000 C 
ENDROOT
BRANCH   1  14
ATOM      9  C   UNL     1       5.641   4.057  15.349  0.00  0.00    +0.000 C 
ATOM     10  C   UNL     1       6.079   4.502  16.707  0.00  0.00    +0.000 A 
ATOM     11  C   UNL     1       7.457   4.570  17.104  0.00  0.00    +0.000 A 
ATOM     12  C   UNL     1       7.616   5.003  18.397  0.00  0.00    +0.000 A 
ATOM     13  S   UNL     1       6.123   5.308  19.145  0.00  0.00    +0.000 S 
ATOM     14  C   UNL     1       5.231   4.916  17.730  0.00  0.00    +0.000 A 
ENDBRANCH   1  14
BRANCH   8  15
ATOM     15  O   UNL     1       1.615   4.411  18.674  0.00  0.00    +0.000 OA
ATOM     16  H   UNL     1       1.600   3.443  18.525  0.00  0.00    +0.000 HD
ENDBRANCH   8  15
BRANCH   5  17
ATOM     17  C   UNL     1       1.429   9.413  19.399  0.00  0.00    +0.000 C 
BRANCH  17  18
ATOM     18  C   UNL     1       0.210  10.075  20.028  0.00  0.00    +0.000 C 
BRANCH  18  19
ATOM     19  C   UNL     1      -0.846  10.304  19.002  0.00  0.00    +0.000 A 
ATOM     20  N   UNL     1      -0.846   9.860  17.760  0.00  0.00    +0.000 NA
ATOM     21  C   UNL     1      -2.018  10.308  17.208  0.00  0.00    +0.000 A 
ATOM     22  C   UNL     1      -2.529  10.113  15.917  0.00  0.00    +0.000 A 
ATOM     23  C   UNL     1      -3.768  10.680  15.597  0.00  0.00    +0.000 A 
ATOM     24  C   UNL     1      -4.480  11.425  16.545  0.00  0.00    +0.000 A 
ATOM     25  C   UNL     1      -3.982  11.630  17.838  0.00  0.00    +0.000 A 
ATOM     26  C   UNL     1      -2.747  11.050  18.128  0.00  0.00    +0.000 A 
ATOM     27  N   UNL     1      -1.974  11.038  19.261  0.00  0.00    +0.000 N 
ATOM     28  H   UNL     1      -2.198  11.485  20.139  0.00  0.00    +0.000 HD
ENDBRANCH  18  19
ENDBRANCH  17  18
ENDBRANCH   5  17
TORSDOF 5
ENDMDL
MODEL 6
REMARK VINA RESULT:      -7.6      3.730      6.255
REMARK  Name = 
REMARK  6 active torsions:
REMARK  status: ('A' for Active; 'I' for Inactive)
REMARK    1  A    between atoms: C_1  and  C_2
REMARK    2  A    between atoms: C_6  and  C_7
REMARK    3  A    between atoms: C_11  and  C_13
REMARK    4  A    between atoms: C_13  and  C_14
REMARK    5  A    between atoms: C_14  and  C_15
REMARK    6  A    between atoms: C_25  and  O_26
REMARK                            x       y       z     vdW  Elec       q    Type
REMARK                         _______ _______ _______ _____ _____    ______ ____
ROOT
ATOM      1  C   UNL     1       2.262   7.226  20.106  0.00  0.00    +0.000 C 
ATOM      2  C   UNL     1       3.115   6.662  18.961  0.00  0.00    +0.000 C 
ATOM      3  C   UNL     1       2.406   5.613  18.115  0.00  0.00    +0.000 C 
ATOM      4  N   UNL     1       1.735   4.596  18.930  0.00  0.00    +0.000 N 
ATOM      5  C   UNL     1       1.582   3.270  18.534  0.00  0.00    +0.000 C 
ATOM      6  O   UNL     1       0.922   2.461  19.188  0.00  0.00    +0.000 OA
ATOM      7  C   UNL     1       0.830   5.102  19.970  0.00  0.00    +0.000 C 
ATOM      8  C   UNL     1       1.540   6.107  20.879  0.00  0.00    +0.000 C 
ENDROOT
BRANCH   1  14
ATOM      9  C   UNL     1       0.104   8.725  21.887  0.00  0.00    +0.000 C 
ATOM     10  C   UNL     1       0.442   9.064  20.471  0.00  0.00    +0.000 A 
ATOM     11  C   UNL     1      -0.155  10.159  19.762  0.00  0.00    +0.000 A 
ATOM     12  C   UNL     1       0.308  10.274  18.475  0.00  0.00    +0.000 A 
ATOM     13  S   UNL     1       1.439   9.063  18.104  0.00  0.00    +0.000 S 
ATOM     14  C   UNL     1       1.371   8.390  19.683  0.00  0.00    +0.000 A 
ENDBRANCH   1  14
BRANCH   8  15
ATOM     15  O   UNL     1       2.526   5.386  21.650  0.00  0.00    +0.000 OA
ATOM     16  H   UNL     1       3.393   5.556  21.228  0.00  0.00    +0.000 HD
ENDBRANCH   8  15
BRANCH   5  17
ATOM     17  C   UNL     1       2.318   2.837  17.286  0.00  0.00    +0.000 C 
BRANCH  17  18
ATOM     18  C   UNL     1       3.686   2.260  17.624  0.00  0.00    +0.000 C 
BRANCH  18  19
ATOM     19  C   UNL     1       4.690   3.352  17.773  0.00  0.00    +0.000 A 
ATOM     20  N   UNL     1       5.310   3.704  18.882  0.00  0.00    +0.000 NA
ATOM     21  C   UNL     1       6.139   4.737  18.528  0.00  0.00    +0.000 A 
ATOM     22  C   UNL     1       7.034   5.475  19.317  0.00  0.00    +0.000 A 
ATOM     23  C   UNL     1       7.779   6.491  18.708  0.00  0.00    +0.000 A 
ATOM     24  C   UNL     1       7.632   6.765  17.343  0.00  0.00    +0.000 A 
ATOM     25  C   UNL     1       6.742   6.038  16.542  0.00  0.00    +0.000 A 
ATOM     26  C   UNL     1       6.016   5.029  17.177  0.00  0.00    +0.000 A 
ATOM     27  N   UNL     1       5.081   4.137  16.721  0.00  0.00    +0.000 N 
ATOM     28  H   UNL     1       4.742   4.063  15.772  0.00  0.00    +0.000 HD
ENDBRANCH  18  19
ENDBRANCH  17  18
ENDBRANCH   5  17
TORSDOF 5
ENDMDL
MODEL 7
REMARK VINA RESULT:      -7.5      1.284      1.552
REMARK  Name = 
REMARK  6 active torsions:
REMARK  status: ('A' for Active; 'I' for Inactive)
REMARK    1  A    between atoms: C_1  and  C_2
REMARK    2  A    between atoms: C_6  and  C_7
REMARK    3  A    between atoms: C_11  and  C_13
REMARK    4  A    between atoms: C_13  and  C_14
REMARK    5  A    between atoms: C_14  and  C_15
REMARK    6  A    between atoms: C_25  and  O_26
REMARK                            x       y       z     vdW  Elec       q    Type
REMARK                         _______ _______ _______ _____ _____    ______ ____
ROOT
ATOM      1  C   UNL     1      -1.746  12.363  19.574  0.00  0.00    +0.000 C 
ATOM      2  C   UNL     1      -1.758  10.835  19.432  0.00  0.00    +0.000 C 
ATOM      3  C   UNL     1      -0.384  10.188  19.554  0.00  0.00    +0.000 C 
ATOM      4  N   UNL     1       0.627  10.866  18.739  0.00  0.00    +0.000 N 
ATOM      5  C   UNL     1       1.708  10.212  18.152  0.00  0.00    +0.000 C 
ATOM      6  O   UNL     1       2.601  10.820  17.561  0.00  0.00    +0.000 OA
ATOM      7  C   UNL     1       0.735  12.319  18.927  0.00  0.00    +0.000 C 
ATOM      8  C   UNL     1      -0.621  13.002  18.739  0.00  0.00    +0.000 C 
ENDROOT
BRANCH   1  14
ATOM      9  C   UNL     1      -4.366  12.781  21.318  0.00  0.00    +0.000 C 
ATOM     10  C   UNL     1      -2.965  12.999  21.795  0.00  0.00    +0.000 A 
ATOM     11  C   UNL     1      -2.645  13.385  23.139  0.00  0.00    +0.000 A 
ATOM     12  C   UNL     1      -1.295  13.529  23.343  0.00  0.00    +0.000 A 
ATOM     13  S   UNL     1      -0.410  13.223  21.926  0.00  0.00    +0.000 S 
ATOM     14  C   UNL     1      -1.819  12.839  21.021  0.00  0.00    +0.000 A 
ENDBRANCH   1  14
BRANCH   8  15
ATOM     15  O   UNL     1      -0.981  12.895  17.345  0.00  0.00    +0.000 OA
ATOM     16  H   UNL     1      -0.432  13.547  16.861  0.00  0.00    +0.000 HD
ENDBRANCH   8  15
BRANCH   5  17
ATOM     17  C   UNL     1       1.710   8.701  18.212  0.00  0.00    +0.000 C 
BRANCH  17  18
ATOM     18  C   UNL     1       3.053   8.133  17.773  0.00  0.00    +0.000 C 
BRANCH  18  19
ATOM     19  C   UNL     1       3.030   6.643  17.827  0.00  0.00    +0.000 A 
ATOM     20  N   UNL     1       4.054   5.834  17.638  0.00  0.00    +0.000 NA
ATOM     21  C   UNL     1       3.556   4.566  17.799  0.00  0.00    +0.000 A 
ATOM     22  C   UNL     1       4.214   3.331  17.720  0.00  0.00    +0.000 A 
ATOM     23  C   UNL     1       3.471   2.164  17.930  0.00  0.00    +0.000 A 
ATOM     24  C   UNL     1       2.101   2.229  18.212  0.00  0.00    +0.000 A 
ATOM     25  C   UNL     1       1.429   3.455  18.293  0.00  0.00    +0.000 A 
ATOM     26  C   UNL     1       2.197   4.601  18.082  0.00  0.00    +0.000 A 
ATOM     27  N   UNL     1       1.886   5.936  18.087  0.00  0.00    +0.000 N 
ATOM     28  H   UNL     1       0.974   6.334  18.259  0.00  0.00    +0.000 HD
ENDBRANCH  18  19
ENDBRANCH  17  18
ENDBRANCH   5  17
TORSDOF 5
ENDMDL
MODEL 8
REMARK VINA RESULT:      -7.4      3.628      6.279
REMARK  Name = 
REMARK  6 active torsions:
REMARK  status: ('A' for Active; 'I' for Inactive)
REMARK    1  A    between atoms: C_1  and  C_2
REMARK    2  A    between atoms: C_6  and  C_7
REMARK    3  A    between atoms: C_11  and  C_13
REMARK    4  A    between atoms: C_13  and  C_14
REMARK    5  A    between atoms: C_14  and  C_15
REMARK    6  A    between atoms: C_25  and  O_26
REMARK                            x       y       z     vdW  Elec       q    Type
REMARK                         _______ _______ _______ _____ _____    ______ ____
ROOT
ATOM      1  C   UNL     1       2.270   7.068  20.359  0.00  0.00    +0.000 C 
ATOM      2  C   UNL     1       3.093   6.638  19.137  0.00  0.00    +0.000 C 
ATOM      3  C   UNL     1       2.376   5.659  18.216  0.00  0.00    +0.000 C 
ATOM      4  N   UNL     1       1.756   4.553  18.951  0.00  0.00    +0.000 N 
ATOM      5  C   UNL     1       1.616   3.267  18.433  0.00  0.00    +0.000 C 
ATOM      6  O   UNL     1       0.997   2.384  19.027  0.00  0.00    +0.000 OA
ATOM      7  C   UNL     1       0.877   4.934  20.064  0.00  0.00    +0.000 C 
ATOM      8  C   UNL     1       1.599   5.863  21.043  0.00  0.00    +0.000 C 
ENDROOT
BRANCH   1  14
ATOM      9  C   UNL     1       2.310   8.975  17.821  0.00  0.00    +0.000 C 
ATOM     10  C   UNL     1       1.341   9.067  18.956  0.00  0.00    +0.000 A 
ATOM     11  C   UNL     1       0.271  10.021  19.000  0.00  0.00    +0.000 A 
ATOM     12  C   UNL     1      -0.487   9.919  20.140  0.00  0.00    +0.000 A 
ATOM     13  S   UNL     1       0.092   8.699  21.170  0.00  0.00    +0.000 S 
ATOM     14  C   UNL     1       1.340   8.246  20.081  0.00  0.00    +0.000 A 
ENDBRANCH   1  14
BRANCH   8  15
ATOM     15  O   UNL     1       2.625   5.095  21.707  0.00  0.00    +0.000 OA
ATOM     16  H   UNL     1       3.222   4.758  21.008  0.00  0.00    +0.000 HD
ENDBRANCH   8  15
BRANCH   5  17
ATOM     17  C   UNL     1       2.317   2.975  17.125  0.00  0.00    +0.000 C 
BRANCH  17  18
ATOM     18  C   UNL     1       3.708   2.400  17.360  0.00  0.00    +0.000 C 
BRANCH  18  19
ATOM     19  C   UNL     1       4.710   3.497  17.484  0.00  0.00    +0.000 A 
ATOM     20  N   UNL     1       5.026   4.381  16.559  0.00  0.00    +0.000 NA
ATOM     21  C   UNL     1       5.975   5.189  17.130  0.00  0.00    +0.000 A 
ATOM     22  C   UNL     1       6.646   6.297  16.593  0.00  0.00    +0.000 A 
ATOM     23  C   UNL     1       7.582   6.963  17.394  0.00  0.00    +0.000 A 
ATOM     24  C   UNL     1       7.842   6.531  18.699  0.00  0.00    +0.000 A 
ATOM     25  C   UNL     1       7.181   5.425  19.250  0.00  0.00    +0.000 A 
ATOM     26  C   UNL     1       6.253   4.784  18.429  0.00  0.00    +0.000 A 
ATOM     27  N   UNL     1       5.438   3.700  18.627  0.00  0.00    +0.000 N 
ATOM     28  H   UNL     1       5.376   3.148  19.471  0.00  0.00    +0.000 HD
ENDBRANCH  18  19
ENDBRANCH  17  18
ENDBRANCH   5  17
TORSDOF 5
ENDMDL
MODEL 9
REMARK VINA RESULT:      -7.4      2.204      3.121
REMARK  Name = 
REMARK  6 active torsions:
REMARK  status: ('A' for Active; 'I' for Inactive)
REMARK    1  A    between atoms: C_1  and  C_2
REMARK    2  A    between atoms: C_6  and  C_7
REMARK    3  A    between atoms: C_11  and  C_13
REMARK    4  A    between atoms: C_13  and  C_14
REMARK    5  A    between atoms: C_14  and  C_15
REMARK    6  A    between atoms: C_25  and  O_26
REMARK                            x       y       z     vdW  Elec       q    Type
REMARK                         _______ _______ _______ _____ _____    ______ ____
ROOT
ATOM      1  C   UNL     1      -1.731  11.534  17.792  0.00  0.00    +0.000 C 
ATOM      2  C   UNL     1      -1.266  10.071  17.815  0.00  0.00    +0.000 C 
ATOM      3  C   UNL     1      -1.039   9.511  19.213  0.00  0.00    +0.000 C 
ATOM      4  N   UNL     1      -0.249  10.414  20.055  0.00  0.00    +0.000 N 
ATOM      5  C   UNL     1       0.620   9.973  21.051  0.00  0.00    +0.000 C 
ATOM      6  O   UNL     1       1.192  10.752  21.815  0.00  0.00    +0.000 OA
ATOM      7  C   UNL     1      -0.727  11.799  20.137  0.00  0.00    +0.000 C 
ATOM      8  C   UNL     1      -0.896  12.409  18.744  0.00  0.00    +0.000 C 
ENDROOT
BRANCH   1  14
ATOM      9  C   UNL     1      -3.939  10.850  15.615  0.00  0.00    +0.000 C 
ATOM     10  C   UNL     1      -4.211  11.370  16.990  0.00  0.00    +0.000 A 
ATOM     11  C   UNL     1      -5.536  11.577  17.502  0.00  0.00    +0.000 A 
ATOM     12  C   UNL     1      -5.539  12.063  18.787  0.00  0.00    +0.000 A 
ATOM     13  S   UNL     1      -3.963  12.292  19.375  0.00  0.00    +0.000 S 
ATOM     14  C   UNL     1      -3.242  11.693  17.935  0.00  0.00    +0.000 A 
ENDBRANCH   1  14
BRANCH   8  15
ATOM     15  O   UNL     1       0.419  12.569  18.169  0.00  0.00    +0.000 OA
ATOM     16  H   UNL     1       0.325  13.187  17.416  0.00  0.00    +0.000 HD
ENDBRANCH   8  15
BRANCH   5  17
ATOM     17  C   UNL     1       0.888   8.487  21.119  0.00  0.00    +0.000 C 
BRANCH  17  18
ATOM     18  C   UNL     1       2.046   8.092  20.211  0.00  0.00    +0.000 C 
BRANCH  18  19
ATOM     19  C   UNL     1       1.976   6.640  19.879  0.00  0.00    +0.000 A 
ATOM     20  N   UNL     1       1.579   5.670  20.678  0.00  0.00    +0.000 NA
ATOM     21  C   UNL     1       1.672   4.521  19.935  0.00  0.00    +0.000 A 
ATOM     22  C   UNL     1       1.364   3.200  20.291  0.00  0.00    +0.000 A 
ATOM     23  C   UNL     1       1.547   2.191  19.337  0.00  0.00    +0.000 A 
ATOM     24  C   UNL     1       2.029   2.495  18.059  0.00  0.00    +0.000 A 
ATOM     25  C   UNL     1       2.342   3.810  17.689  0.00  0.00    +0.000 A 
ATOM     26  C   UNL     1       2.147   4.793  18.659  0.00  0.00    +0.000 A 
ATOM     27  N   UNL     1       2.338   6.150  18.652  0.00  0.00    +0.000 N 
ATOM     28  H   UNL     1       2.680   6.699  17.876  0.00  0.00    +0.000 HD
ENDBRANCH  18  19
ENDBRANCH  17  18
ENDBRANCH   5  17
TORSDOF 5
ENDMDL
