MODEL 1
REMARK VINA RESULT:      -7.4      0.000      0.000
REMARK  Name = 
REMARK  3 active torsions:
REMARK  status: ('A' for Active; 'I' for Inactive)
REMARK    1  A    between atoms: C_5  and  C_7
REMARK    2  A    between atoms: C_9  and  N_10
REMARK    3  A    between atoms: C_11  and  C_13
REMARK                            x       y       z     vdW  Elec       q    Type
REMARK                         _______ _______ _______ _____ _____    ______ ____
ROOT
ATOM      1  C   UNL     1       6.379   5.007  16.161  0.00  0.00    +0.000 A 
ATOM      2  C   UNL     1       5.373   4.165  16.666  0.00  0.00    +0.000 A 
ATOM      3  C   UNL     1       4.932   4.275  17.986  0.00  0.00    +0.000 A 
ATOM      4  C   UNL     1       5.527   5.228  18.822  0.00  0.00    +0.000 A 
ATOM      5  C   UNL     1       6.523   6.077  18.327  0.00  0.00    +0.000 A 
ATOM      6  C   UNL     1       6.942   5.961  17.003  0.00  0.00    +0.000 A 
ATOM      7  F   UNL     1       7.903   6.788  16.565  0.00  0.00    +0.000 F 
ENDROOT
BRANCH   1  12
ATOM      8  N   UNL     1       7.258   4.244  12.026  0.00  0.00    +0.000 N 
ATOM      9  C   UNL     1       6.251   3.612  12.659  0.00  0.00    +0.000 C 
ATOM     10  O   UNL     1       5.532   2.803  12.084  0.00  0.00    +0.000 OA
ATOM     11  N   UNL     1       6.058   3.922  13.978  0.00  0.00    +0.000 N 
ATOM     12  C   UNL     1       6.787   4.813  14.744  0.00  0.00    +0.000 C 
ATOM     13  O   UNL     1       7.753   5.439  14.309  0.00  0.00    +0.000 OA
ATOM     14  H   UNL     1       7.476   4.013  11.069  0.00  0.00    +0.000 HD
ATOM     15  H   UNL     1       7.892   4.838  12.556  0.00  0.00    +0.000 HD
ATOM     16  H   UNL     1       5.281   3.423  14.390  0.00  0.00    +0.000 HD
ENDBRANCH   1  12
BRANCH   3  17
ATOM     17  N   UNL     1       3.917   3.455  18.522  0.00  0.00    +0.000 N 
ATOM     18  C   UNL     1       2.549   3.647  18.372  0.00  0.00    +0.000 C 
ATOM     19  O   UNL     1       2.015   4.571  17.769  0.00  0.00    +0.000 OA
ATOM     20  H   UNL     1       4.202   2.764  19.209  0.00  0.00    +0.000 HD
BRANCH  18  21
ATOM     21  C   UNL     1       1.697   2.564  19.012  0.00  0.00    +0.000 C 
ATOM     22  I   UNL     1       1.636   2.848  21.111  0.00  0.00    +0.000 I 
ENDBRANCH  18  21
ENDBRANCH   3  17
TORSDOF 3
ENDMDL
MODEL 2
REMARK VINA RESULT:      -7.4      3.744      4.903
REMARK  Name = 
REMARK  3 active torsions:
REMARK  status: ('A' for Active; 'I' for Inactive)
REMARK    1  A    between atoms: C_5  and  C_7
REMARK    2  A    between atoms: C_9  and  N_10
REMARK    3  A    between atoms: C_11  and  C_13
REMARK                            x       y       z     vdW  Elec       q    Type
REMARK                         _______ _______ _______ _____ _____    ______ ____
ROOT
ATOM      1  C   UNL     1       3.761   4.417  18.284  0.00  0.00    +0.000 A 
ATOM      2  C   UNL     1       3.401   5.490  19.117  0.00  0.00    +0.000 A 
ATOM      3  C   UNL     1       2.308   5.401  19.982  0.00  0.00    +0.000 A 
ATOM      4  C   UNL     1       1.548   4.224  19.993  0.00  0.00    +0.000 A 
ATOM      5  C   UNL     1       1.903   3.147  19.174  0.00  0.00    +0.000 A 
ATOM      6  C   UNL     1       3.004   3.250  18.327  0.00  0.00    +0.000 A 
ATOM      7  F   UNL     1       3.312   2.199  17.552  0.00  0.00    +0.000 F 
ENDROOT
BRANCH   1  12
ATOM      8  N   UNL     1       7.361   4.812  15.974  0.00  0.00    +0.000 N 
ATOM      9  C   UNL     1       7.391   4.414  17.261  0.00  0.00    +0.000 C 
ATOM     10  O   UNL     1       8.441   4.133  17.828  0.00  0.00    +0.000 OA
ATOM     11  N   UNL     1       6.189   4.326  17.909  0.00  0.00    +0.000 N 
ATOM     12  C   UNL     1       4.937   4.606  17.394  0.00  0.00    +0.000 C 
ATOM     13  O   UNL     1       4.759   5.008  16.245  0.00  0.00    +0.000 OA
ATOM     14  H   UNL     1       8.222   4.943  15.467  0.00  0.00    +0.000 HD
ATOM     15  H   UNL     1       6.484   5.125  15.564  0.00  0.00    +0.000 HD
ATOM     16  H   UNL     1       6.280   4.011  18.867  0.00  0.00    +0.000 HD
ENDBRANCH   1  12
BRANCH   3  17
ATOM     17  N   UNL     1       1.924   6.453  20.840  0.00  0.00    +0.000 N 
ATOM     18  C   UNL     1       1.711   7.774  20.465  0.00  0.00    +0.000 C 
ATOM     19  O   UNL     1       1.844   8.230  19.335  0.00  0.00    +0.000 OA
ATOM     20  H   UNL     1       1.967   6.269  21.837  0.00  0.00    +0.000 HD
BRANCH  18  21
ATOM     21  C   UNL     1       1.244   8.672  21.598  0.00  0.00    +0.000 C 
ATOM     22  I   UNL     1       0.291  10.390  20.805  0.00  0.00    +0.000 I 
ENDBRANCH  18  21
ENDBRANCH   3  17
TORSDOF 3
ENDMDL
MODEL 3
REMARK VINA RESULT:      -7.4      3.785      4.842
REMARK  Name = 
REMARK  3 active torsions:
REMARK  status: ('A' for Active; 'I' for Inactive)
REMARK    1  A    between atoms: C_5  and  C_7
REMARK    2  A    between atoms: C_9  and  N_10
REMARK    3  A    between atoms: C_11  and  C_13
REMARK                            x       y       z     vdW  Elec       q    Type
REMARK                         _______ _______ _______ _____ _____    ______ ____
ROOT
ATOM      1  C   UNL     1       4.009   4.208  18.887  0.00  0.00    +0.000 A 
ATOM      2  C   UNL     1       3.586   5.311  19.648  0.00  0.00    +0.000 A 
ATOM      3  C   UNL     1       2.298   5.370  20.184  0.00  0.00    +0.000 A 
ATOM      4  C   UNL     1       1.411   4.316  19.932  0.00  0.00    +0.000 A 
ATOM      5  C   UNL     1       1.825   3.209  19.183  0.00  0.00    +0.000 A 
ATOM      6  C   UNL     1       3.117   3.162  18.666  0.00  0.00    +0.000 A 
ATOM      7  F   UNL     1       3.478   2.088  17.949  0.00  0.00    +0.000 F 
ENDROOT
BRANCH   1  12
ATOM      8  N   UNL     1       7.872   4.322  17.010  0.00  0.00    +0.000 N 
ATOM      9  C   UNL     1       6.739   4.246  16.285  0.00  0.00    +0.000 C 
ATOM     10  O   UNL     1       6.756   4.219  15.060  0.00  0.00    +0.000 OA
ATOM     11  N   UNL     1       5.561   4.209  16.980  0.00  0.00    +0.000 N 
ATOM     12  C   UNL     1       5.397   4.236  18.353  0.00  0.00    +0.000 C 
ATOM     13  O   UNL     1       6.340   4.275  19.141  0.00  0.00    +0.000 OA
ATOM     14  H   UNL     1       8.768   4.299  16.550  0.00  0.00    +0.000 HD
ATOM     15  H   UNL     1       7.826   4.249  18.025  0.00  0.00    +0.000 HD
ATOM     16  H   UNL     1       4.749   4.163  16.377  0.00  0.00    +0.000 HD
ENDBRANCH   1  12
BRANCH   3  17
ATOM     17  N   UNL     1       1.844   6.456  20.962  0.00  0.00    +0.000 N 
ATOM     18  C   UNL     1       1.665   7.760  20.515  0.00  0.00    +0.000 C 
ATOM     19  O   UNL     1       1.895   8.169  19.384  0.00  0.00    +0.000 OA
ATOM     20  H   UNL     1       1.801   6.314  21.966  0.00  0.00    +0.000 HD
BRANCH  18  21
ATOM     21  C   UNL     1       1.104   8.703  21.567  0.00  0.00    +0.000 C 
ATOM     22  I   UNL     1       0.163  10.349  20.623  0.00  0.00    +0.000 I 
ENDBRANCH  18  21
ENDBRANCH   3  17
TORSDOF 3
ENDMDL
MODEL 4
REMARK VINA RESULT:      -7.1      1.387      1.387
REMARK  Name = 
REMARK  3 active torsions:
REMARK  status: ('A' for Active; 'I' for Inactive)
REMARK    1  A    between atoms: C_5  and  C_7
REMARK    2  A    between atoms: C_9  and  N_10
REMARK    3  A    between atoms: C_11  and  C_13
REMARK                            x       y       z     vdW  Elec       q    Type
REMARK                         _______ _______ _______ _____ _____    ______ ____
ROOT
ATOM      1  C   UNL     1       5.148   4.988  15.867  0.00  0.00    +0.000 A 
ATOM      2  C   UNL     1       4.350   4.146  16.659  0.00  0.00    +0.000 A 
ATOM      3  C   UNL     1       3.665   4.634  17.774  0.00  0.00    +0.000 A 
ATOM      4  C   UNL     1       3.804   5.986  18.115  0.00  0.00    +0.000 A 
ATOM      5  C   UNL     1       4.590   6.835  17.327  0.00  0.00    +0.000 A 
ATOM      6  C   UNL     1       5.255   6.333  16.212  0.00  0.00    +0.000 A 
ATOM      7  F   UNL     1       6.003   7.174  15.483  0.00  0.00    +0.000 F 
ENDROOT
BRANCH   1  12
ATOM      8  N   UNL     1       6.832   3.226  12.329  0.00  0.00    +0.000 N 
ATOM      9  C   UNL     1       5.503   3.399  12.465  0.00  0.00    +0.000 C 
ATOM     10  O   UNL     1       4.715   3.074  11.584  0.00  0.00    +0.000 OA
ATOM     11  N   UNL     1       5.069   3.964  13.633  0.00  0.00    +0.000 N 
ATOM     12  C   UNL     1       5.842   4.377  14.702  0.00  0.00    +0.000 C 
ATOM     13  O   UNL     1       7.066   4.255  14.732  0.00  0.00    +0.000 OA
ATOM     14  H   UNL     1       7.201   2.768  11.511  0.00  0.00    +0.000 HD
ATOM     15  H   UNL     1       7.449   3.420  13.116  0.00  0.00    +0.000 HD
ATOM     16  H   UNL     1       4.064   4.075  13.667  0.00  0.00    +0.000 HD
ENDBRANCH   1  12
BRANCH   3  17
ATOM     17  N   UNL     1       2.847   3.821  18.585  0.00  0.00    +0.000 N 
ATOM     18  C   UNL     1       1.519   3.494  18.336  0.00  0.00    +0.000 C 
ATOM     19  O   UNL     1       0.851   3.881  17.384  0.00  0.00    +0.000 OA
ATOM     20  H   UNL     1       3.202   3.589  19.507  0.00  0.00    +0.000 HD
BRANCH  18  21
ATOM     21  C   UNL     1       0.912   2.546  19.357  0.00  0.00    +0.000 C 
ATOM     22  I   UNL     1       1.774   2.896  21.260  0.00  0.00    +0.000 I 
ENDBRANCH  18  21
ENDBRANCH   3  17
TORSDOF 3
ENDMDL
MODEL 5
REMARK VINA RESULT:      -7.0      3.009      6.345
REMARK  Name = 
REMARK  3 active torsions:
REMARK  status: ('A' for Active; 'I' for Inactive)
REMARK    1  A    between atoms: C_5  and  C_7
REMARK    2  A    between atoms: C_9  and  N_10
REMARK    3  A    between atoms: C_11  and  C_13
REMARK                            x       y       z     vdW  Elec       q    Type
REMARK                         _______ _______ _______ _____ _____    ______ ____
ROOT
ATOM      1  C   UNL     1       4.789   4.393  18.010  0.00  0.00    +0.000 A 
ATOM      2  C   UNL     1       4.816   3.953  16.676  0.00  0.00    +0.000 A 
ATOM      3  C   UNL     1       5.994   3.984  15.927  0.00  0.00    +0.000 A 
ATOM      4  C   UNL     1       7.160   4.488  16.518  0.00  0.00    +0.000 A 
ATOM      5  C   UNL     1       7.146   4.920  17.849  0.00  0.00    +0.000 A 
ATOM      6  C   UNL     1       5.964   4.870  18.585  0.00  0.00    +0.000 A 
ATOM      7  F   UNL     1       5.987   5.297  19.856  0.00  0.00    +0.000 F 
ENDROOT
BRANCH   1  12
ATOM      8  N   UNL     1       1.210   4.050  20.360  0.00  0.00    +0.000 N 
ATOM      9  C   UNL     1       2.369   3.493  20.759  0.00  0.00    +0.000 C 
ATOM     10  O   UNL     1       2.461   2.875  21.814  0.00  0.00    +0.000 OA
ATOM     11  N   UNL     1       3.449   3.655  19.935  0.00  0.00    +0.000 N 
ATOM     12  C   UNL     1       3.488   4.327  18.727  0.00  0.00    +0.000 C 
ATOM     13  O   UNL     1       2.500   4.859  18.224  0.00  0.00    +0.000 OA
ATOM     14  H   UNL     1       0.372   3.916  20.904  0.00  0.00    +0.000 HD
ATOM     15  H   UNL     1       1.146   4.475  19.437  0.00  0.00    +0.000 HD
ATOM     16  H   UNL     1       4.290   3.223  20.297  0.00  0.00    +0.000 HD
ENDBRANCH   1  12
BRANCH   3  17
ATOM     17  N   UNL     1       6.061   3.541  14.589  0.00  0.00    +0.000 N 
ATOM     18  C   UNL     1       6.693   4.200  13.542  0.00  0.00    +0.000 C 
ATOM     19  O   UNL     1       7.271   5.278  13.617  0.00  0.00    +0.000 OA
ATOM     20  H   UNL     1       5.461   2.763  14.334  0.00  0.00    +0.000 HD
BRANCH  18  21
ATOM     21  C   UNL     1       6.652   3.449  12.222  0.00  0.00    +0.000 C 
ATOM     22  I   UNL     1       4.642   3.198  11.603  0.00  0.00    +0.000 I 
ENDBRANCH  18  21
ENDBRANCH   3  17
TORSDOF 3
ENDMDL
MODEL 6
REMARK VINA RESULT:      -7.0      3.846      4.940
REMARK  Name = 
REMARK  3 active torsions:
REMARK  status: ('A' for Active; 'I' for Inactive)
REMARK    1  A    between atoms: C_5  and  C_7
REMARK    2  A    between atoms: C_9  and  N_10
REMARK    3  A    between atoms: C_11  and  C_13
REMARK                            x       y       z     vdW  Elec       q    Type
REMARK                         _______ _______ _______ _____ _____    ______ ____
ROOT
ATOM      1  C   UNL     1       4.003   4.893  18.773  0.00  0.00    +0.000 A 
ATOM      2  C   UNL     1       3.446   6.143  19.093  0.00  0.00    +0.000 A 
ATOM      3  C   UNL     1       2.414   6.259  20.026  0.00  0.00    +0.000 A 
ATOM      4  C   UNL     1       1.915   5.098  20.631  0.00  0.00    +0.000 A 
ATOM      5  C   UNL     1       2.468   3.849  20.326  0.00  0.00    +0.000 A 
ATOM      6  C   UNL     1       3.506   3.755  19.402  0.00  0.00    +0.000 A 
ATOM      7  F   UNL     1       4.008   2.541  19.130  0.00  0.00    +0.000 F 
ENDROOT
BRANCH   1  12
ATOM      8  N   UNL     1       7.372   4.676  16.117  0.00  0.00    +0.000 N 
ATOM      9  C   UNL     1       7.495   4.411  17.432  0.00  0.00    +0.000 C 
ATOM     10  O   UNL     1       8.567   4.084  17.928  0.00  0.00    +0.000 OA
ATOM     11  N   UNL     1       6.362   4.515  18.192  0.00  0.00    +0.000 N 
ATOM     12  C   UNL     1       5.095   4.868  17.764  0.00  0.00    +0.000 C 
ATOM     13  O   UNL     1       4.840   5.165  16.598  0.00  0.00    +0.000 OA
ATOM     14  H   UNL     1       8.186   4.665  15.522  0.00  0.00    +0.000 HD
ATOM     15  H   UNL     1       6.491   5.034  15.755  0.00  0.00    +0.000 HD
ATOM     16  H   UNL     1       6.520   4.292  19.167  0.00  0.00    +0.000 HD
ENDBRANCH   1  12
BRANCH   3  17
ATOM     17  N   UNL     1       1.839   7.497  20.380  0.00  0.00    +0.000 N 
ATOM     18  C   UNL     1       1.561   8.545  19.510  0.00  0.00    +0.000 C 
ATOM     19  O   UNL     1       1.794   8.560  18.307  0.00  0.00    +0.000 OA
ATOM     20  H   UNL     1       1.774   7.706  21.371  0.00  0.00    +0.000 HD
BRANCH  18  21
ATOM     21  C   UNL     1       0.883   9.734  20.169  0.00  0.00    +0.000 C 
ATOM     22  I   UNL     1       0.469   9.288  22.198  0.00  0.00    +0.000 I 
ENDBRANCH  18  21
ENDBRANCH   3  17
TORSDOF 3
ENDMDL
MODEL 7
REMARK VINA RESULT:      -7.0      5.216      6.520
REMARK  Name = 
REMARK  3 active torsions:
REMARK  status: ('A' for Active; 'I' for Inactive)
REMARK    1  A    between atoms: C_5  and  C_7
REMARK    2  A    between atoms: C_9  and  N_10
REMARK    3  A    between atoms: C_11  and  C_13
REMARK                            x       y       z     vdW  Elec       q    Type
REMARK                         _______ _______ _______ _____ _____    ______ ____
ROOT
ATOM      1  C   UNL     1       2.786   6.871  19.052  0.00  0.00    +0.000 A 
ATOM      2  C   UNL     1       1.941   7.257  20.107  0.00  0.00    +0.000 A 
ATOM      3  C   UNL     1       1.233   8.459  20.065  0.00  0.00    +0.000 A 
ATOM      4  C   UNL     1       1.394   9.301  18.957  0.00  0.00    +0.000 A 
ATOM      5  C   UNL     1       2.225   8.922  17.897  0.00  0.00    +0.000 A 
ATOM      6  C   UNL     1       2.915   7.713  17.951  0.00  0.00    +0.000 A 
ATOM      7  F   UNL     1       3.707   7.385  16.920  0.00  0.00    +0.000 F 
ENDROOT
BRANCH   1  12
ATOM      8  N   UNL     1       5.169   3.313  19.392  0.00  0.00    +0.000 N 
ATOM      9  C   UNL     1       5.708   4.486  19.010  0.00  0.00    +0.000 C 
ATOM     10  O   UNL     1       6.902   4.598  18.754  0.00  0.00    +0.000 OA
ATOM     11  N   UNL     1       4.861   5.558  18.927  0.00  0.00    +0.000 N 
ATOM     12  C   UNL     1       3.503   5.575  19.188  0.00  0.00    +0.000 C 
ATOM     13  O   UNL     1       2.871   4.573  19.518  0.00  0.00    +0.000 OA
ATOM     14  H   UNL     1       5.738   2.481  19.419  0.00  0.00    +0.000 HD
ATOM     15  H   UNL     1       4.160   3.235  19.506  0.00  0.00    +0.000 HD
ATOM     16  H   UNL     1       5.330   6.410  18.646  0.00  0.00    +0.000 HD
ENDBRANCH   1  12
BRANCH   3  17
ATOM     17  N   UNL     1       0.368   8.873  21.100  0.00  0.00    +0.000 N 
ATOM     18  C   UNL     1       0.758   9.369  22.338  0.00  0.00    +0.000 C 
ATOM     19  O   UNL     1       1.912   9.503  22.727  0.00  0.00    +0.000 OA
ATOM     20  H   UNL     1      -0.613   8.637  20.998  0.00  0.00    +0.000 HD
BRANCH  18  21
ATOM     21  C   UNL     1      -0.399   9.793  23.227  0.00  0.00    +0.000 C 
ATOM     22  I   UNL     1      -1.172  11.649  22.562  0.00  0.00    +0.000 I 
ENDBRANCH  18  21
ENDBRANCH   3  17
TORSDOF 3
ENDMDL
MODEL 8
REMARK VINA RESULT:      -6.9      2.920      6.049
REMARK  Name = 
REMARK  3 active torsions:
REMARK  status: ('A' for Active; 'I' for Inactive)
REMARK    1  A    between atoms: C_5  and  C_7
REMARK    2  A    between atoms: C_9  and  N_10
REMARK    3  A    between atoms: C_11  and  C_13
REMARK                            x       y       z     vdW  Elec       q    Type
REMARK                         _______ _______ _______ _____ _____    ______ ____
ROOT
ATOM      1  C   UNL     1       4.901   4.443  17.911  0.00  0.00    +0.000 A 
ATOM      2  C   UNL     1       4.928   4.044  16.564  0.00  0.00    +0.000 A 
ATOM      3  C   UNL     1       6.120   4.029  15.837  0.00  0.00    +0.000 A 
ATOM      4  C   UNL     1       7.301   4.445  16.464  0.00  0.00    +0.000 A 
ATOM      5  C   UNL     1       7.286   4.837  17.807  0.00  0.00    +0.000 A 
ATOM      6  C   UNL     1       6.090   4.833  18.521  0.00  0.00    +0.000 A 
ATOM      7  F   UNL     1       6.113   5.220  19.805  0.00  0.00    +0.000 F 
ENDROOT
BRANCH   1  12
ATOM      8  N   UNL     1       1.057   4.066  19.792  0.00  0.00    +0.000 N 
ATOM      9  C   UNL     1       1.532   3.115  18.965  0.00  0.00    +0.000 C 
ATOM     10  O   UNL     1       0.898   2.094  18.720  0.00  0.00    +0.000 OA
ATOM     11  N   UNL     1       2.765   3.335  18.412  0.00  0.00    +0.000 N 
ATOM     12  C   UNL     1       3.584   4.432  18.603  0.00  0.00    +0.000 C 
ATOM     13  O   UNL     1       3.270   5.390  19.307  0.00  0.00    +0.000 OA
ATOM     14  H   UNL     1       0.133   3.978  20.184  0.00  0.00    +0.000 HD
ATOM     15  H   UNL     1       1.567   4.941  19.899  0.00  0.00    +0.000 HD
ATOM     16  H   UNL     1       3.067   2.579  17.811  0.00  0.00    +0.000 HD
ENDBRANCH   1  12
BRANCH   3  17
ATOM     17  N   UNL     1       6.186   3.623  14.487  0.00  0.00    +0.000 N 
ATOM     18  C   UNL     1       6.825   4.308  13.461  0.00  0.00    +0.000 C 
ATOM     19  O   UNL     1       7.410   5.380  13.567  0.00  0.00    +0.000 OA
ATOM     20  H   UNL     1       5.581   2.857  14.209  0.00  0.00    +0.000 HD
BRANCH  18  21
ATOM     21  C   UNL     1       6.781   3.595  12.119  0.00  0.00    +0.000 C 
ATOM     22  I   UNL     1       4.775   3.145  11.613  0.00  0.00    +0.000 I 
ENDBRANCH  18  21
ENDBRANCH   3  17
TORSDOF 3
ENDMDL
MODEL 9
REMARK VINA RESULT:      -6.9      1.097      1.497
REMARK  Name = 
REMARK  3 active torsions:
REMARK  status: ('A' for Active; 'I' for Inactive)
REMARK    1  A    between atoms: C_5  and  C_7
REMARK    2  A    between atoms: C_9  and  N_10
REMARK    3  A    between atoms: C_11  and  C_13
REMARK                            x       y       z     vdW  Elec       q    Type
REMARK                         _______ _______ _______ _____ _____    ______ ____
ROOT
ATOM      1  C   UNL     1       6.083   4.864  16.290  0.00  0.00    +0.000 A 
ATOM      2  C   UNL     1       5.027   4.107  16.825  0.00  0.00    +0.000 A 
ATOM      3  C   UNL     1       4.635   4.250  18.157  0.00  0.00    +0.000 A 
ATOM      4  C   UNL     1       5.331   5.151  18.974  0.00  0.00    +0.000 A 
ATOM      5  C   UNL     1       6.378   5.916  18.449  0.00  0.00    +0.000 A 
ATOM      6  C   UNL     1       6.747   5.769  17.114  0.00  0.00    +0.000 A 
ATOM      7  F   UNL     1       7.758   6.515  16.646  0.00  0.00    +0.000 F 
ENDROOT
BRANCH   1  12
ATOM      8  N   UNL     1       7.370   4.447  12.212  0.00  0.00    +0.000 N 
ATOM      9  C   UNL     1       7.916   5.367  13.032  0.00  0.00    +0.000 C 
ATOM     10  O   UNL     1       8.811   6.116  12.658  0.00  0.00    +0.000 OA
ATOM     11  N   UNL     1       7.430   5.421  14.310  0.00  0.00    +0.000 N 
ATOM     12  C   UNL     1       6.432   4.639  14.862  0.00  0.00    +0.000 C 
ATOM     13  O   UNL     1       5.824   3.780  14.225  0.00  0.00    +0.000 OA
ATOM     14  H   UNL     1       7.654   4.400  11.247  0.00  0.00    +0.000 HD
ATOM     15  H   UNL     1       6.566   3.906  12.526  0.00  0.00    +0.000 HD
ATOM     16  H   UNL     1       7.890   6.124  14.876  0.00  0.00    +0.000 HD
ENDBRANCH   1  12
BRANCH   3  17
ATOM     17  N   UNL     1       3.574   3.515  18.725  0.00  0.00    +0.000 N 
ATOM     18  C   UNL     1       2.221   3.702  18.465  0.00  0.00    +0.000 C 
ATOM     19  O   UNL     1       1.745   4.550  17.719  0.00  0.00    +0.000 OA
ATOM     20  H   UNL     1       3.802   2.911  19.508  0.00  0.00    +0.000 HD
BRANCH  18  21
ATOM     21  C   UNL     1       1.311   2.717  19.178  0.00  0.00    +0.000 C 
ATOM     22  I   UNL     1       1.624   2.837  21.269  0.00  0.00    +0.000 I 
ENDBRANCH  18  21
ENDBRANCH   3  17
TORSDOF 3
ENDMDL
