MODEL 1
REMARK VINA RESULT:      -6.8      0.000      0.000
REMARK  Name = 
REMARK  14 active torsions:
REMARK  status: ('A' for Active; 'I' for Inactive)
REMARK    1  A    between atoms: C_1  and  C_2
REMARK    2  A    between atoms: C_2  and  C_3
REMARK    3  A    between atoms: C_3  and  C_4
REMARK    4  A    between atoms: C_4  and  S_5
REMARK    5  A    between atoms: S_5  and  C_6
REMARK    6  A    between atoms: C_6  and  C_7
REMARK    7  A    between atoms: C_7  and  C_8
REMARK    8  A    between atoms: C_8  and  N_9
REMARK    9  A    between atoms: C_10  and  C_12
REMARK   10  A    between atoms: C_15  and  C_16
REMARK   11  A    between atoms: C_16  and  S_17
REMARK   12  A    between atoms: S_17  and  C_20
REMARK   13  A    between atoms: C_25  and  O_26
REMARK   14  A    between atoms: O_26  and  C_27
REMARK                            x       y       z     vdW  Elec       q    Type
REMARK                         _______ _______ _______ _____ _____    ______ ____
ROOT
ATOM      1  C   UNL     1       1.834   8.150  19.406  0.00  0.00    +0.000 A 
ATOM      2  C   UNL     1       2.299   7.925  18.123  0.00  0.00    +0.000 A 
ATOM      3  C   UNL     1       2.947   6.673  18.130  0.00  0.00    +0.000 A 
ATOM      4  C   UNL     1       2.858   6.189  19.421  0.00  0.00    +0.000 A 
ATOM      5  O   UNL     1       2.169   7.071  20.202  0.00  0.00    +0.000 OA
ENDROOT
BRANCH   1   7
ATOM      6  N   UNL     1       1.385  10.471  19.387  0.00  0.00    +0.000 N 
ATOM      7  C   UNL     1       1.083   9.253  19.954  0.00  0.00    +0.000 C 
ATOM      8  O   UNL     1       0.246   9.129  20.842  0.00  0.00    +0.000 OA
ATOM      9  H   UNL     1       2.074  10.489  18.645  0.00  0.00    +0.000 HD
BRANCH   6  10
ATOM     10  C   UNL     1       0.739  11.700  19.798  0.00  0.00    +0.000 C 
BRANCH  10  11
ATOM     11  C   UNL     1       0.503  12.669  18.640  0.00  0.00    +0.000 C 
BRANCH  11  12
ATOM     12  C   UNL     1      -0.981  12.864  18.320  0.00  0.00    +0.000 C 
BRANCH  12  13
ATOM     13  S   UNL     1      -1.924  11.522  19.113  0.00  0.00    +0.000 S 
BRANCH  13  14
ATOM     14  C   UNL     1      -3.511  11.673  18.231  0.00  0.00    +0.000 C 
BRANCH  14  15
ATOM     15  C   UNL     1      -3.839  10.317  17.605  0.00  0.00    +0.000 C 
BRANCH  15  17
ATOM     16  C   UNL     1      -2.936  10.751  15.301  0.00  0.00    +0.000 C 
ATOM     17  C   UNL     1      -2.812   9.895  16.555  0.00  0.00    +0.000 C 
ENDBRANCH  15  17
ENDBRANCH  14  15
ENDBRANCH  13  14
ENDBRANCH  12  13
ENDBRANCH  11  12
ENDBRANCH  10  11
ENDBRANCH   6  10
ENDBRANCH   1   7
BRANCH   4  18
ATOM     18  C   UNL     1       3.228   4.883  20.004  0.00  0.00    +0.000 C 
BRANCH  18  19
ATOM     19  S   UNL     1       3.660   3.646  18.813  0.00  0.00    +0.000 S 
ATOM     20  O   UNL     1       4.187   2.505  19.541  0.00  0.00    +0.000 OA
ATOM     21  O   UNL     1       2.480   3.443  17.983  0.00  0.00    +0.000 OA
BRANCH  19  22
ATOM     22  C   UNL     1       4.974   4.216  17.739  0.00  0.00    +0.000 A 
ATOM     23  C   UNL     1       4.886   3.774  16.399  0.00  0.00    +0.000 A 
ATOM     24  C   UNL     1       5.936   3.949  15.494  0.00  0.00    +0.000 A 
ATOM     25  C   UNL     1       7.090   4.597  15.901  0.00  0.00    +0.000 A 
ATOM     26  C   UNL     1       7.196   5.030  17.223  0.00  0.00    +0.000 A 
ATOM     27  C   UNL     1       6.164   4.827  18.164  0.00  0.00    +0.000 A 
BRANCH  27  28
ATOM     28  O   UNL     1       6.598   5.140  19.420  0.00  0.00    +0.000 OA
ATOM     29  C   UNL     1       7.887   5.689  19.584  0.00  0.00    +0.000 C 
ENDBRANCH  27  28
ENDBRANCH  19  22
ENDBRANCH  18  19
ENDBRANCH   4  18
TORSDOF 12
ENDMDL
MODEL 2
REMARK VINA RESULT:      -6.7      1.258      1.603
REMARK  Name = 
REMARK  14 active torsions:
REMARK  status: ('A' for Active; 'I' for Inactive)
REMARK    1  A    between atoms: C_1  and  C_2
REMARK    2  A    between atoms: C_2  and  C_3
REMARK    3  A    between atoms: C_3  and  C_4
REMARK    4  A    between atoms: C_4  and  S_5
REMARK    5  A    between atoms: S_5  and  C_6
REMARK    6  A    between atoms: C_6  and  C_7
REMARK    7  A    between atoms: C_7  and  C_8
REMARK    8  A    between atoms: C_8  and  N_9
REMARK    9  A    between atoms: C_10  and  C_12
REMARK   10  A    between atoms: C_15  and  C_16
REMARK   11  A    between atoms: C_16  and  S_17
REMARK   12  A    between atoms: S_17  and  C_20
REMARK   13  A    between atoms: C_25  and  O_26
REMARK   14  A    between atoms: O_26  and  C_27
REMARK                            x       y       z     vdW  Elec       q    Type
REMARK                         _______ _______ _______ _____ _____    ______ ____
ROOT
ATOM      1  C   UNL     1       1.929   8.201  19.407  0.00  0.00    +0.000 A 
ATOM      2  C   UNL     1       2.324   8.293  18.086  0.00  0.00    +0.000 A 
ATOM      3  C   UNL     1       2.966   7.081  17.760  0.00  0.00    +0.000 A 
ATOM      4  C   UNL     1       2.943   6.302  18.900  0.00  0.00    +0.000 A 
ATOM      5  O   UNL     1       2.300   6.966  19.904  0.00  0.00    +0.000 OA
ENDROOT
BRANCH   1   7
ATOM      6  N   UNL     1       1.124  10.404  19.712  0.00  0.00    +0.000 N 
ATOM      7  C   UNL     1       1.213   9.136  20.242  0.00  0.00    +0.000 C 
ATOM      8  O   UNL     1       0.722   8.839  21.326  0.00  0.00    +0.000 OA
ATOM      9  H   UNL     1       1.539  10.565  18.802  0.00  0.00    +0.000 HD
BRANCH   6  10
ATOM     10  C   UNL     1       0.444  11.485  20.395  0.00  0.00    +0.000 C 
BRANCH  10  11
ATOM     11  C   UNL     1      -1.073  11.304  20.441  0.00  0.00    +0.000 C 
BRANCH  11  12
ATOM     12  C   UNL     1      -1.830  12.450  19.767  0.00  0.00    +0.000 C 
BRANCH  12  13
ATOM     13  S   UNL     1      -3.168  11.741  18.754  0.00  0.00    +0.000 S 
BRANCH  13  14
ATOM     14  C   UNL     1      -2.253  10.431  17.878  0.00  0.00    +0.000 C 
BRANCH  14  15
ATOM     15  C   UNL     1      -3.124   9.933  16.723  0.00  0.00    +0.000 C 
BRANCH  15  17
ATOM     16  C   UNL     1      -3.046   9.949  14.212  0.00  0.00    +0.000 C 
ATOM     17  C   UNL     1      -2.988  10.802  15.472  0.00  0.00    +0.000 C 
ENDBRANCH  15  17
ENDBRANCH  14  15
ENDBRANCH  13  14
ENDBRANCH  12  13
ENDBRANCH  11  12
ENDBRANCH  10  11
ENDBRANCH   6  10
ENDBRANCH   1   7
BRANCH   4  18
ATOM     18  C   UNL     1       3.337   4.897  19.134  0.00  0.00    +0.000 C 
BRANCH  18  19
ATOM     19  S   UNL     1       5.071   4.585  18.958  0.00  0.00    +0.000 S 
ATOM     20  O   UNL     1       5.777   5.615  19.701  0.00  0.00    +0.000 OA
ATOM     21  O   UNL     1       5.281   3.197  19.344  0.00  0.00    +0.000 OA
BRANCH  19  22
ATOM     22  C   UNL     1       5.585   4.747  17.251  0.00  0.00    +0.000 A 
ATOM     23  C   UNL     1       4.921   3.890  16.342  0.00  0.00    +0.000 A 
ATOM     24  C   UNL     1       5.353   3.740  15.022  0.00  0.00    +0.000 A 
ATOM     25  C   UNL     1       6.442   4.465  14.570  0.00  0.00    +0.000 A 
ATOM     26  C   UNL     1       7.113   5.307  15.458  0.00  0.00    +0.000 A 
ATOM     27  C   UNL     1       6.719   5.443  16.806  0.00  0.00    +0.000 A 
BRANCH  27  28
ATOM     28  O   UNL     1       7.658   6.145  17.507  0.00  0.00    +0.000 OA
ATOM     29  C   UNL     1       7.622   7.555  17.480  0.00  0.00    +0.000 C 
ENDBRANCH  27  28
ENDBRANCH  19  22
ENDBRANCH  18  19
ENDBRANCH   4  18
TORSDOF 12
ENDMDL
MODEL 3
REMARK VINA RESULT:      -6.6      2.291      2.983
REMARK  Name = 
REMARK  14 active torsions:
REMARK  status: ('A' for Active; 'I' for Inactive)
REMARK    1  A    between atoms: C_1  and  C_2
REMARK    2  A    between atoms: C_2  and  C_3
REMARK    3  A    between atoms: C_3  and  C_4
REMARK    4  A    between atoms: C_4  and  S_5
REMARK    5  A    between atoms: S_5  and  C_6
REMARK    6  A    between atoms: C_6  and  C_7
REMARK    7  A    between atoms: C_7  and  C_8
REMARK    8  A    between atoms: C_8  and  N_9
REMARK    9  A    between atoms: C_10  and  C_12
REMARK   10  A    between atoms: C_15  and  C_16
REMARK   11  A    between atoms: C_16  and  S_17
REMARK   12  A    between atoms: S_17  and  C_20
REMARK   13  A    between atoms: C_25  and  O_26
REMARK   14  A    between atoms: O_26  and  C_27
REMARK                            x       y       z     vdW  Elec       q    Type
REMARK                         _______ _______ _______ _____ _____    ______ ____
ROOT
ATOM      1  C   UNL     1       1.783   8.644  19.099  0.00  0.00    +0.000 A 
ATOM      2  C   UNL     1       2.285   8.420  17.831  0.00  0.00    +0.000 A 
ATOM      3  C   UNL     1       2.962   7.183  17.866  0.00  0.00    +0.000 A 
ATOM      4  C   UNL     1       2.851   6.708  19.158  0.00  0.00    +0.000 A 
ATOM      5  O   UNL     1       2.122   7.581  19.914  0.00  0.00    +0.000 OA
ENDROOT
BRANCH   1   7
ATOM      6  N   UNL     1       0.492  10.573  18.648  0.00  0.00    +0.000 N 
ATOM      7  C   UNL     1       0.993   9.735  19.618  0.00  0.00    +0.000 C 
ATOM      8  O   UNL     1       0.778   9.907  20.814  0.00  0.00    +0.000 OA
ATOM      9  H   UNL     1       0.698  10.353  17.681  0.00  0.00    +0.000 HD
BRANCH   6  10
ATOM     10  C   UNL     1      -0.327  11.725  18.964  0.00  0.00    +0.000 C 
BRANCH  10  11
ATOM     11  C   UNL     1      -1.814  11.393  19.066  0.00  0.00    +0.000 C 
BRANCH  11  12
ATOM     12  C   UNL     1      -2.578  12.355  19.979  0.00  0.00    +0.000 C 
BRANCH  12  13
ATOM     13  S   UNL     1      -1.475  12.857  21.340  0.00  0.00    +0.000 S 
BRANCH  13  14
ATOM     14  C   UNL     1      -2.278  12.010  22.739  0.00  0.00    +0.000 C 
BRANCH  14  15
ATOM     15  C   UNL     1      -2.914  13.073  23.637  0.00  0.00    +0.000 C 
BRANCH  15  17
ATOM     16  C   UNL     1      -5.419  12.968  23.797  0.00  0.00    +0.000 C 
ATOM     17  C   UNL     1      -4.104  12.532  24.429  0.00  0.00    +0.000 C 
ENDBRANCH  15  17
ENDBRANCH  14  15
ENDBRANCH  13  14
ENDBRANCH  12  13
ENDBRANCH  11  12
ENDBRANCH  10  11
ENDBRANCH   6  10
ENDBRANCH   1   7
BRANCH   4  18
ATOM     18  C   UNL     1       3.236   5.416  19.763  0.00  0.00    +0.000 C 
BRANCH  18  19
ATOM     19  S   UNL     1       3.473   4.105  18.597  0.00  0.00    +0.000 S 
ATOM     20  O   UNL     1       3.809   2.908  19.349  0.00  0.00    +0.000 OA
ATOM     21  O   UNL     1       2.280   4.076  17.762  0.00  0.00    +0.000 OA
BRANCH  19  22
ATOM     22  C   UNL     1       4.866   4.440  17.524  0.00  0.00    +0.000 A 
ATOM     23  C   UNL     1       4.640   4.184  16.152  0.00  0.00    +0.000 A 
ATOM     24  C   UNL     1       5.681   4.187  15.220  0.00  0.00    +0.000 A 
ATOM     25  C   UNL     1       6.970   4.476  15.634  0.00  0.00    +0.000 A 
ATOM     26  C   UNL     1       7.210   4.721  16.986  0.00  0.00    +0.000 A 
ATOM     27  C   UNL     1       6.181   4.682  17.950  0.00  0.00    +0.000 A 
BRANCH  27  28
ATOM     28  O   UNL     1       6.707   4.737  19.209  0.00  0.00    +0.000 OA
ATOM     29  C   UNL     1       7.655   5.736  19.514  0.00  0.00    +0.000 C 
ENDBRANCH  27  28
ENDBRANCH  19  22
ENDBRANCH  18  19
ENDBRANCH   4  18
TORSDOF 12
ENDMDL
MODEL 4
REMARK VINA RESULT:      -6.5      2.832      9.390
REMARK  Name = 
REMARK  14 active torsions:
REMARK  status: ('A' for Active; 'I' for Inactive)
REMARK    1  A    between atoms: C_1  and  C_2
REMARK    2  A    between atoms: C_2  and  C_3
REMARK    3  A    between atoms: C_3  and  C_4
REMARK    4  A    between atoms: C_4  and  S_5
REMARK    5  A    between atoms: S_5  and  C_6
REMARK    6  A    between atoms: C_6  and  C_7
REMARK    7  A    between atoms: C_7  and  C_8
REMARK    8  A    between atoms: C_8  and  N_9
REMARK    9  A    between atoms: C_10  and  C_12
REMARK   10  A    between atoms: C_15  and  C_16
REMARK   11  A    between atoms: C_16  and  S_17
REMARK   12  A    between atoms: S_17  and  C_20
REMARK   13  A    between atoms: C_25  and  O_26
REMARK   14  A    between atoms: O_26  and  C_27
REMARK                            x       y       z     vdW  Elec       q    Type
REMARK                         _______ _______ _______ _____ _____    ______ ____
ROOT
ATOM      1  C   UNL     1       2.584   7.392  19.064  0.00  0.00    +0.000 A 
ATOM      2  C   UNL     1       2.129   6.923  20.282  0.00  0.00    +0.000 A 
ATOM      3  C   UNL     1       1.172   7.847  20.751  0.00  0.00    +0.000 A 
ATOM      4  C   UNL     1       1.091   8.847  19.801  0.00  0.00    +0.000 A 
ATOM      5  O   UNL     1       1.933   8.573  18.763  0.00  0.00    +0.000 OA
ENDROOT
BRANCH   1   7
ATOM      6  N   UNL     1       4.067   5.625  18.542  0.00  0.00    +0.000 N 
ATOM      7  C   UNL     1       3.542   6.833  18.140  0.00  0.00    +0.000 C 
ATOM      8  O   UNL     1       3.865   7.375  17.088  0.00  0.00    +0.000 OA
ATOM      9  H   UNL     1       3.735   5.233  19.415  0.00  0.00    +0.000 HD
BRANCH   6  10
ATOM     10  C   UNL     1       5.042   4.901  17.753  0.00  0.00    +0.000 C 
BRANCH  10  11
ATOM     11  C   UNL     1       4.406   3.956  16.735  0.00  0.00    +0.000 C 
BRANCH  11  12
ATOM     12  C   UNL     1       3.051   3.411  17.193  0.00  0.00    +0.000 C 
BRANCH  12  13
ATOM     13  S   UNL     1       3.337   1.907  18.179  0.00  0.00    +0.000 S 
BRANCH  13  14
ATOM     14  C   UNL     1       1.770   1.822  19.106  0.00  0.00    +0.000 C 
BRANCH  14  15
ATOM     15  C   UNL     1       1.163   3.226  19.141  0.00  0.00    +0.000 C 
BRANCH  15  17
ATOM     16  C   UNL     1       1.648   2.839  21.576  0.00  0.00    +0.000 C 
ATOM     17  C   UNL     1       0.931   3.726  20.567  0.00  0.00    +0.000 C 
ENDBRANCH  15  17
ENDBRANCH  14  15
ENDBRANCH  13  14
ENDBRANCH  12  13
ENDBRANCH  11  12
ENDBRANCH  10  11
ENDBRANCH   6  10
ENDBRANCH   1   7
BRANCH   4  18
ATOM     18  C   UNL     1       0.178  10.002  19.672  0.00  0.00    +0.000 C 
BRANCH  18  19
ATOM     19  S   UNL     1       0.446  11.282  20.865  0.00  0.00    +0.000 S 
ATOM     20  O   UNL     1       1.062  10.671  22.030  0.00  0.00    +0.000 OA
ATOM     21  O   UNL     1       1.179  12.338  20.179  0.00  0.00    +0.000 OA
BRANCH  19  22
ATOM     22  C   UNL     1      -1.105  11.984  21.419  0.00  0.00    +0.000 A 
ATOM     23  C   UNL     1      -1.356  11.861  22.805  0.00  0.00    +0.000 A 
ATOM     24  C   UNL     1      -2.604  12.160  23.357  0.00  0.00    +0.000 A 
ATOM     25  C   UNL     1      -3.623  12.618  22.539  0.00  0.00    +0.000 A 
ATOM     26  C   UNL     1      -3.393  12.736  21.169  0.00  0.00    +0.000 A 
ATOM     27  C   UNL     1      -2.153  12.400  20.584  0.00  0.00    +0.000 A 
BRANCH  27  28
ATOM     28  O   UNL     1      -2.256  12.393  19.222  0.00  0.00    +0.000 OA
ATOM     29  C   UNL     1      -3.350  11.738  18.620  0.00  0.00    +0.000 C 
ENDBRANCH  27  28
ENDBRANCH  19  22
ENDBRANCH  18  19
ENDBRANCH   4  18
TORSDOF 12
ENDMDL
MODEL 5
REMARK VINA RESULT:      -6.5      2.010      2.695
REMARK  Name = 
REMARK  14 active torsions:
REMARK  status: ('A' for Active; 'I' for Inactive)
REMARK    1  A    between atoms: C_1  and  C_2
REMARK    2  A    between atoms: C_2  and  C_3
REMARK    3  A    between atoms: C_3  and  C_4
REMARK    4  A    between atoms: C_4  and  S_5
REMARK    5  A    between atoms: S_5  and  C_6
REMARK    6  A    between atoms: C_6  and  C_7
REMARK    7  A    between atoms: C_7  and  C_8
REMARK    8  A    between atoms: C_8  and  N_9
REMARK    9  A    between atoms: C_10  and  C_12
REMARK   10  A    between atoms: C_15  and  C_16
REMARK   11  A    between atoms: C_16  and  S_17
REMARK   12  A    between atoms: S_17  and  C_20
REMARK   13  A    between atoms: C_25  and  O_26
REMARK   14  A    between atoms: O_26  and  C_27
REMARK                            x       y       z     vdW  Elec       q    Type
REMARK                         _______ _______ _______ _____ _____    ______ ____
ROOT
ATOM      1  C   UNL     1       1.553   8.909  19.022  0.00  0.00    +0.000 A 
ATOM      2  C   UNL     1       2.088   8.685  17.767  0.00  0.00    +0.000 A 
ATOM      3  C   UNL     1       2.784   7.460  17.825  0.00  0.00    +0.000 A 
ATOM      4  C   UNL     1       2.651   6.991  19.117  0.00  0.00    +0.000 A 
ATOM      5  O   UNL     1       1.891   7.856  19.850  0.00  0.00    +0.000 OA
ENDROOT
BRANCH   1   7
ATOM      6  N   UNL     1       1.425  11.158  19.740  0.00  0.00    +0.000 N 
ATOM      7  C   UNL     1       0.733   9.989  19.515  0.00  0.00    +0.000 C 
ATOM      8  O   UNL     1      -0.472   9.887  19.718  0.00  0.00    +0.000 OA
ATOM      9  H   UNL     1       2.416  11.168  19.530  0.00  0.00    +0.000 HD
BRANCH   6  10
ATOM     10  C   UNL     1       0.783  12.358  20.234  0.00  0.00    +0.000 C 
BRANCH  10  11
ATOM     11  C   UNL     1       0.162  13.206  19.124  0.00  0.00    +0.000 C 
BRANCH  11  12
ATOM     12  C   UNL     1      -0.782  14.286  19.658  0.00  0.00    +0.000 C 
BRANCH  12  13
ATOM     13  S   UNL     1      -2.164  13.470  20.521  0.00  0.00    +0.000 S 
BRANCH  13  14
ATOM     14  C   UNL     1      -2.002  14.219  22.174  0.00  0.00    +0.000 C 
BRANCH  14  15
ATOM     15  C   UNL     1      -1.314  13.206  23.091  0.00  0.00    +0.000 C 
BRANCH  15  17
ATOM     16  C   UNL     1      -0.989  10.715  23.069  0.00  0.00    +0.000 C 
ATOM     17  C   UNL     1      -2.010  11.845  23.082  0.00  0.00    +0.000 C 
ENDBRANCH  15  17
ENDBRANCH  14  15
ENDBRANCH  13  14
ENDBRANCH  12  13
ENDBRANCH  11  12
ENDBRANCH  10  11
ENDBRANCH   6  10
ENDBRANCH   1   7
BRANCH   4  18
ATOM     18  C   UNL     1       3.043   5.709  19.738  0.00  0.00    +0.000 C 
BRANCH  18  19
ATOM     19  S   UNL     1       3.280   4.383  18.589  0.00  0.00    +0.000 S 
ATOM     20  O   UNL     1       3.477   3.168  19.361  0.00  0.00    +0.000 OA
ATOM     21  O   UNL     1       2.155   4.431  17.666  0.00  0.00    +0.000 OA
BRANCH  19  22
ATOM     22  C   UNL     1       4.770   4.621  17.626  0.00  0.00    +0.000 A 
ATOM     23  C   UNL     1       4.679   4.216  16.274  0.00  0.00    +0.000 A 
ATOM     24  C   UNL     1       5.807   4.135  15.452  0.00  0.00    +0.000 A 
ATOM     25  C   UNL     1       7.048   4.486  15.955  0.00  0.00    +0.000 A 
ATOM     26  C   UNL     1       7.154   4.878  17.290  0.00  0.00    +0.000 A 
ATOM     27  C   UNL     1       6.035   4.927  18.149  0.00  0.00    +0.000 A 
BRANCH  27  28
ATOM     28  O   UNL     1       6.436   5.125  19.439  0.00  0.00    +0.000 OA
ATOM     29  C   UNL     1       7.729   5.631  19.687  0.00  0.00    +0.000 C 
ENDBRANCH  27  28
ENDBRANCH  19  22
ENDBRANCH  18  19
ENDBRANCH   4  18
TORSDOF 12
ENDMDL
MODEL 6
REMARK VINA RESULT:      -6.5      2.431      3.119
REMARK  Name = 
REMARK  14 active torsions:
REMARK  status: ('A' for Active; 'I' for Inactive)
REMARK    1  A    between atoms: C_1  and  C_2
REMARK    2  A    between atoms: C_2  and  C_3
REMARK    3  A    between atoms: C_3  and  C_4
REMARK    4  A    between atoms: C_4  and  S_5
REMARK    5  A    between atoms: S_5  and  C_6
REMARK    6  A    between atoms: C_6  and  C_7
REMARK    7  A    between atoms: C_7  and  C_8
REMARK    8  A    between atoms: C_8  and  N_9
REMARK    9  A    between atoms: C_10  and  C_12
REMARK   10  A    between atoms: C_15  and  C_16
REMARK   11  A    between atoms: C_16  and  S_17
REMARK   12  A    between atoms: S_17  and  C_20
REMARK   13  A    between atoms: C_25  and  O_26
REMARK   14  A    between atoms: O_26  and  C_27
REMARK                            x       y       z     vdW  Elec       q    Type
REMARK                         _______ _______ _______ _____ _____    ______ ____
ROOT
ATOM      1  C   UNL     1       1.512   8.890  18.918  0.00  0.00    +0.000 A 
ATOM      2  C   UNL     1       2.250   8.758  17.757  0.00  0.00    +0.000 A 
ATOM      3  C   UNL     1       3.025   7.587  17.889  0.00  0.00    +0.000 A 
ATOM      4  C   UNL     1       2.733   7.058  19.131  0.00  0.00    +0.000 A 
ATOM      5  O   UNL     1       1.802   7.833  19.760  0.00  0.00    +0.000 OA
ENDROOT
BRANCH   1   7
ATOM      6  N   UNL     1       0.917  10.635  20.399  0.00  0.00    +0.000 N 
ATOM      7  C   UNL     1       0.542   9.885  19.307  0.00  0.00    +0.000 C 
ATOM      8  O   UNL     1      -0.524  10.057  18.724  0.00  0.00    +0.000 OA
ATOM      9  H   UNL     1       1.822  10.445  20.814  0.00  0.00    +0.000 HD
BRANCH   6  10
ATOM     10  C   UNL     1       0.083  11.686  20.944  0.00  0.00    +0.000 C 
BRANCH  10  11
ATOM     11  C   UNL     1      -0.689  11.252  22.190  0.00  0.00    +0.000 C 
BRANCH  11  12
ATOM     12  C   UNL     1      -1.175  12.435  23.030  0.00  0.00    +0.000 C 
BRANCH  12  13
ATOM     13  S   UNL     1      -2.971  12.262  23.285  0.00  0.00    +0.000 S 
BRANCH  13  14
ATOM     14  C   UNL     1      -3.582  12.764  21.643  0.00  0.00    +0.000 C 
BRANCH  14  15
ATOM     15  C   UNL     1      -5.035  13.219  21.795  0.00  0.00    +0.000 C 
BRANCH  15  17
ATOM     16  C   UNL     1      -6.395  14.214  23.658  0.00  0.00    +0.000 C 
ATOM     17  C   UNL     1      -5.564  13.017  23.215  0.00  0.00    +0.000 C 
ENDBRANCH  15  17
ENDBRANCH  14  15
ENDBRANCH  13  14
ENDBRANCH  12  13
ENDBRANCH  11  12
ENDBRANCH  10  11
ENDBRANCH   6  10
ENDBRANCH   1   7
BRANCH   4  18
ATOM     18  C   UNL     1       3.127   5.785  19.770  0.00  0.00    +0.000 C 
BRANCH  18  19
ATOM     19  S   UNL     1       3.282   4.423  18.651  0.00  0.00    +0.000 S 
ATOM     20  O   UNL     1       3.488   3.225  19.448  0.00  0.00    +0.000 OA
ATOM     21  O   UNL     1       2.118   4.472  17.778  0.00  0.00    +0.000 OA
BRANCH  19  22
ATOM     22  C   UNL     1       4.732   4.600  17.616  0.00  0.00    +0.000 A 
ATOM     23  C   UNL     1       4.566   4.177  16.276  0.00  0.00    +0.000 A 
ATOM     24  C   UNL     1       5.650   4.049  15.404  0.00  0.00    +0.000 A 
ATOM     25  C   UNL     1       6.924   4.368  15.843  0.00  0.00    +0.000 A 
ATOM     26  C   UNL     1       7.104   4.777  17.164  0.00  0.00    +0.000 A 
ATOM     27  C   UNL     1       6.029   4.874  18.073  0.00  0.00    +0.000 A 
BRANCH  27  28
ATOM     28  O   UNL     1       6.496   5.079  19.340  0.00  0.00    +0.000 OA
ATOM     29  C   UNL     1       7.741   5.718  19.518  0.00  0.00    +0.000 C 
ENDBRANCH  27  28
ENDBRANCH  19  22
ENDBRANCH  18  19
ENDBRANCH   4  18
TORSDOF 12
ENDMDL
MODEL 7
REMARK VINA RESULT:      -6.4      2.665      9.215
REMARK  Name = 
REMARK  14 active torsions:
REMARK  status: ('A' for Active; 'I' for Inactive)
REMARK    1  A    between atoms: C_1  and  C_2
REMARK    2  A    between atoms: C_2  and  C_3
REMARK    3  A    between atoms: C_3  and  C_4
REMARK    4  A    between atoms: C_4  and  S_5
REMARK    5  A    between atoms: S_5  and  C_6
REMARK    6  A    between atoms: C_6  and  C_7
REMARK    7  A    between atoms: C_7  and  C_8
REMARK    8  A    between atoms: C_8  and  N_9
REMARK    9  A    between atoms: C_10  and  C_12
REMARK   10  A    between atoms: C_15  and  C_16
REMARK   11  A    between atoms: C_16  and  S_17
REMARK   12  A    between atoms: S_17  and  C_20
REMARK   13  A    between atoms: C_25  and  O_26
REMARK   14  A    between atoms: O_26  and  C_27
REMARK                            x       y       z     vdW  Elec       q    Type
REMARK                         _______ _______ _______ _____ _____    ______ ____
ROOT
ATOM      1  C   UNL     1       2.232   7.662  19.154  0.00  0.00    +0.000 A 
ATOM      2  C   UNL     1       2.341   8.147  17.864  0.00  0.00    +0.000 A 
ATOM      3  C   UNL     1       1.812   9.455  17.866  0.00  0.00    +0.000 A 
ATOM      4  C   UNL     1       1.396   9.710  19.158  0.00  0.00    +0.000 A 
ATOM      5  O   UNL     1       1.660   8.634  19.954  0.00  0.00    +0.000 OA
ENDROOT
BRANCH   1   7
ATOM      6  N   UNL     1       1.610   5.698  20.315  0.00  0.00    +0.000 N 
ATOM      7  C   UNL     1       2.636   6.398  19.720  0.00  0.00    +0.000 C 
ATOM      8  O   UNL     1       3.787   5.974  19.680  0.00  0.00    +0.000 OA
ATOM      9  H   UNL     1       0.684   6.107  20.290  0.00  0.00    +0.000 HD
BRANCH   6  10
ATOM     10  C   UNL     1       1.811   4.407  20.939  0.00  0.00    +0.000 C 
BRANCH  10  11
ATOM     11  C   UNL     1       0.977   3.297  20.301  0.00  0.00    +0.000 C 
BRANCH  11  12
ATOM     12  C   UNL     1       1.799   2.049  19.972  0.00  0.00    +0.000 C 
BRANCH  12  13
ATOM     13  S   UNL     1       3.312   2.568  19.101  0.00  0.00    +0.000 S 
BRANCH  13  14
ATOM     14  C   UNL     1       2.607   3.078  17.500  0.00  0.00    +0.000 C 
BRANCH  14  15
ATOM     15  C   UNL     1       3.478   4.199  16.932  0.00  0.00    +0.000 C 
BRANCH  15  17
ATOM     16  C   UNL     1       5.919   4.790  17.001  0.00  0.00    +0.000 C 
ATOM     17  C   UNL     1       4.897   3.730  16.611  0.00  0.00    +0.000 C 
ENDBRANCH  15  17
ENDBRANCH  14  15
ENDBRANCH  13  14
ENDBRANCH  12  13
ENDBRANCH  11  12
ENDBRANCH  10  11
ENDBRANCH   6  10
ENDBRANCH   1   7
BRANCH   4  18
ATOM     18  C   UNL     1       0.891  10.943  19.797  0.00  0.00    +0.000 C 
BRANCH  18  19
ATOM     19  S   UNL     1      -0.801  11.316  19.432  0.00  0.00    +0.000 S 
ATOM     20  O   UNL     1      -0.810  12.439  18.510  0.00  0.00    +0.000 OA
ATOM     21  O   UNL     1      -1.413  10.068  18.995  0.00  0.00    +0.000 OA
BRANCH  19  22
ATOM     22  C   UNL     1      -1.675  11.853  20.898  0.00  0.00    +0.000 A 
ATOM     23  C   UNL     1      -2.731  12.766  20.665  0.00  0.00    +0.000 A 
ATOM     24  C   UNL     1      -3.366  13.441  21.710  0.00  0.00    +0.000 A 
ATOM     25  C   UNL     1      -2.979  13.198  23.017  0.00  0.00    +0.000 A 
ATOM     26  C   UNL     1      -1.933  12.308  23.262  0.00  0.00    +0.000 A 
ATOM     27  C   UNL     1      -1.251  11.647  22.219  0.00  0.00    +0.000 A 
BRANCH  27  28
ATOM     28  O   UNL     1      -0.143  11.012  22.704  0.00  0.00    +0.000 OA
ATOM     29  C   UNL     1      -0.260   9.684  23.166  0.00  0.00    +0.000 C 
ENDBRANCH  27  28
ENDBRANCH  19  22
ENDBRANCH  18  19
ENDBRANCH   4  18
TORSDOF 12
ENDMDL
MODEL 8
REMARK VINA RESULT:      -6.4      3.335      9.684
REMARK  Name = 
REMARK  14 active torsions:
REMARK  status: ('A' for Active; 'I' for Inactive)
REMARK    1  A    between atoms: C_1  and  C_2
REMARK    2  A    between atoms: C_2  and  C_3
REMARK    3  A    between atoms: C_3  and  C_4
REMARK    4  A    between atoms: C_4  and  S_5
REMARK    5  A    between atoms: S_5  and  C_6
REMARK    6  A    between atoms: C_6  and  C_7
REMARK    7  A    between atoms: C_7  and  C_8
REMARK    8  A    between atoms: C_8  and  N_9
REMARK    9  A    between atoms: C_10  and  C_12
REMARK   10  A    between atoms: C_15  and  C_16
REMARK   11  A    between atoms: C_16  and  S_17
REMARK   12  A    between atoms: S_17  and  C_20
REMARK   13  A    between atoms: C_25  and  O_26
REMARK   14  A    between atoms: O_26  and  C_27
REMARK                            x       y       z     vdW  Elec       q    Type
REMARK                         _______ _______ _______ _____ _____    ______ ____
ROOT
ATOM      1  C   UNL     1       1.898   8.242  19.263  0.00  0.00    +0.000 A 
ATOM      2  C   UNL     1       1.593   7.820  20.544  0.00  0.00    +0.000 A 
ATOM      3  C   UNL     1       0.696   8.763  21.088  0.00  0.00    +0.000 A 
ATOM      4  C   UNL     1       0.498   9.725  20.118  0.00  0.00    +0.000 A 
ATOM      5  O   UNL     1       1.211   9.411  18.997  0.00  0.00    +0.000 OA
ENDROOT
BRANCH   1   7
ATOM      6  N   UNL     1       3.311   6.453  18.633  0.00  0.00    +0.000 N 
ATOM      7  C   UNL     1       2.739   7.648  18.253  0.00  0.00    +0.000 C 
ATOM      8  O   UNL     1       2.934   8.150  17.151  0.00  0.00    +0.000 OA
ATOM      9  H   UNL     1       3.086   6.095  19.552  0.00  0.00    +0.000 HD
BRANCH   6  10
ATOM     10  C   UNL     1       4.186   5.699  17.760  0.00  0.00    +0.000 C 
BRANCH  10  11
ATOM     11  C   UNL     1       5.225   4.875  18.520  0.00  0.00    +0.000 C 
BRANCH  11  12
ATOM     12  C   UNL     1       4.642   3.596  19.126  0.00  0.00    +0.000 C 
BRANCH  12  13
ATOM     13  S   UNL     1       3.676   2.737  17.842  0.00  0.00    +0.000 S 
BRANCH  13  14
ATOM     14  C   UNL     1       2.165   2.344  18.781  0.00  0.00    +0.000 C 
BRANCH  14  15
ATOM     15  C   UNL     1       1.333   3.622  18.901  0.00  0.00    +0.000 C 
BRANCH  15  17
ATOM     16  C   UNL     1       1.769   3.139  21.328  0.00  0.00    +0.000 C 
ATOM     17  C   UNL     1       0.897   3.902  20.339  0.00  0.00    +0.000 C 
ENDBRANCH  15  17
ENDBRANCH  14  15
ENDBRANCH  13  14
ENDBRANCH  12  13
ENDBRANCH  11  12
ENDBRANCH  10  11
ENDBRANCH   6  10
ENDBRANCH   1   7
BRANCH   4  18
ATOM     18  C   UNL     1      -0.428  10.876  20.056  0.00  0.00    +0.000 C 
BRANCH  18  19
ATOM     19  S   UNL     1       0.171  12.340  20.852  0.00  0.00    +0.000 S 
ATOM     20  O   UNL     1       1.465  12.023  21.431  0.00  0.00    +0.000 OA
ATOM     21  O   UNL     1       0.106  13.404  19.860  0.00  0.00    +0.000 OA
BRANCH  19  22
ATOM     22  C   UNL     1      -0.891  12.815  22.212  0.00  0.00    +0.000 A 
ATOM     23  C   UNL     1      -2.100  12.086  22.310  0.00  0.00    +0.000 A 
ATOM     24  C   UNL     1      -3.126  12.474  23.176  0.00  0.00    +0.000 A 
ATOM     25  C   UNL     1      -2.956  13.584  23.986  0.00  0.00    +0.000 A 
ATOM     26  C   UNL     1      -1.773  14.317  23.894  0.00  0.00    +0.000 A 
ATOM     27  C   UNL     1      -0.741  13.968  22.997  0.00  0.00    +0.000 A 
BRANCH  27  28
ATOM     28  O   UNL     1       0.198  14.957  22.945  0.00  0.00    +0.000 OA
ATOM     29  C   UNL     1      -0.077  16.126  22.203  0.00  0.00    +0.000 C 
ENDBRANCH  27  28
ENDBRANCH  19  22
ENDBRANCH  18  19
ENDBRANCH   4  18
TORSDOF 12
ENDMDL
MODEL 9
REMARK VINA RESULT:      -6.4      1.545      2.014
REMARK  Name = 
REMARK  14 active torsions:
REMARK  status: ('A' for Active; 'I' for Inactive)
REMARK    1  A    between atoms: C_1  and  C_2
REMARK    2  A    between atoms: C_2  and  C_3
REMARK    3  A    between atoms: C_3  and  C_4
REMARK    4  A    between atoms: C_4  and  S_5
REMARK    5  A    between atoms: S_5  and  C_6
REMARK    6  A    between atoms: C_6  and  C_7
REMARK    7  A    between atoms: C_7  and  C_8
REMARK    8  A    between atoms: C_8  and  N_9
REMARK    9  A    between atoms: C_10  and  C_12
REMARK   10  A    between atoms: C_15  and  C_16
REMARK   11  A    between atoms: C_16  and  S_17
REMARK   12  A    between atoms: S_17  and  C_20
REMARK   13  A    between atoms: C_25  and  O_26
REMARK   14  A    between atoms: O_26  and  C_27
REMARK                            x       y       z     vdW  Elec       q    Type
REMARK                         _______ _______ _______ _____ _____    ______ ____
ROOT
ATOM      1  C   UNL     1       1.983   7.754  19.527  0.00  0.00    +0.000 A 
ATOM      2  C   UNL     1       2.191   7.419  18.202  0.00  0.00    +0.000 A 
ATOM      3  C   UNL     1       2.694   6.102  18.181  0.00  0.00    +0.000 A 
ATOM      4  C   UNL     1       2.779   5.691  19.497  0.00  0.00    +0.000 A 
ATOM      5  O   UNL     1       2.334   6.681  20.324  0.00  0.00    +0.000 OA
ENDROOT
BRANCH   1   7
ATOM      6  N   UNL     1       1.275   8.879  21.483  0.00  0.00    +0.000 N 
ATOM      7  C   UNL     1       1.461   8.961  20.121  0.00  0.00    +0.000 C 
ATOM      8  O   UNL     1       1.204   9.975  19.481  0.00  0.00    +0.000 OA
ATOM      9  H   UNL     1       1.529   8.013  21.942  0.00  0.00    +0.000 HD
BRANCH   6  10
ATOM     10  C   UNL     1       0.761   9.985  22.265  0.00  0.00    +0.000 C 
BRANCH  10  11
ATOM     11  C   UNL     1      -0.764   9.992  22.361  0.00  0.00    +0.000 C 
BRANCH  11  12
ATOM     12  C   UNL     1      -1.308  11.219  23.096  0.00  0.00    +0.000 C 
BRANCH  12  13
ATOM     13  S   UNL     1      -1.705  12.501  21.864  0.00  0.00    +0.000 S 
BRANCH  13  14
ATOM     14  C   UNL     1      -1.709  11.498  20.342  0.00  0.00    +0.000 C 
BRANCH  14  15
ATOM     15  C   UNL     1      -1.794  12.449  19.147  0.00  0.00    +0.000 C 
BRANCH  15  17
ATOM     16  C   UNL     1      -1.945  10.215  18.008  0.00  0.00    +0.000 C 
ATOM     17  C   UNL     1      -1.743  11.711  17.809  0.00  0.00    +0.000 C 
ENDBRANCH  15  17
ENDBRANCH  14  15
ENDBRANCH  13  14
ENDBRANCH  12  13
ENDBRANCH  11  12
ENDBRANCH  10  11
ENDBRANCH   6  10
ENDBRANCH   1   7
BRANCH   4  18
ATOM     18  C   UNL     1       3.104   4.378  20.093  0.00  0.00    +0.000 C 
BRANCH  18  19
ATOM     19  S   UNL     1       3.923   3.258  18.994  0.00  0.00    +0.000 S 
ATOM     20  O   UNL     1       4.720   2.355  19.806  0.00  0.00    +0.000 OA
ATOM     21  O   UNL     1       2.889   2.684  18.145  0.00  0.00    +0.000 OA
BRANCH  19  22
ATOM     22  C   UNL     1       5.068   4.125  17.925  0.00  0.00    +0.000 A 
ATOM     23  C   UNL     1       4.963   3.806  16.551  0.00  0.00    +0.000 A 
ATOM     24  C   UNL     1       5.917   4.228  15.621  0.00  0.00    +0.000 A 
ATOM     25  C   UNL     1       6.984   5.005  16.040  0.00  0.00    +0.000 A 
ATOM     26  C   UNL     1       7.106   5.319  17.393  0.00  0.00    +0.000 A 
ATOM     27  C   UNL     1       6.177   4.869  18.355  0.00  0.00    +0.000 A 
BRANCH  27  28
ATOM     28  O   UNL     1       6.637   5.123  19.616  0.00  0.00    +0.000 OA
ATOM     29  C   UNL     1       7.927   5.672  19.778  0.00  0.00    +0.000 C 
ENDBRANCH  27  28
ENDBRANCH  19  22
ENDBRANCH  18  19
ENDBRANCH   4  18
TORSDOF 12
ENDMDL
