MODEL 1
REMARK VINA RESULT:      -6.7      0.000      0.000
REMARK  Name = 
REMARK  6 active torsions:
REMARK  status: ('A' for Active; 'I' for Inactive)
REMARK    1  A    between atoms: C_1  and  C_2
REMARK    2  A    between atoms: C_5  and  C_6
REMARK    3  A    between atoms: C_9  and  S_10
REMARK    4  A    between atoms: N_11  and  N_12
REMARK    5  A    between atoms: C_13  and  C_14
REMARK    6  A    between atoms: C_18  and  C_19
REMARK                            x       y       z     vdW  Elec       q    Type
REMARK                         _______ _______ _______ _____ _____    ______ ____
ROOT
ATOM      1  N   UNL     1      -5.245  13.086  20.905  0.00  0.00    +0.000 NA
ATOM      2  C   UNL     1      -4.249  12.732  21.648  0.00  0.00    +0.000 C 
ENDROOT
BRANCH   2   3
ATOM      3  C   UNL     1      -3.114  13.597  21.872  0.00  0.00    +0.000 A 
ATOM      4  C   UNL     1      -3.125  14.950  22.127  0.00  0.00    +0.000 A 
ATOM      5  N   UNL     1      -1.825  15.306  22.320  0.00  0.00    +0.000 N 
ATOM      6  N   UNL     1      -0.961  14.297  22.142  0.00  0.00    +0.000 NA
ATOM      7  C   UNL     1      -1.725  13.221  21.898  0.00  0.00    +0.000 A 
ATOM      8  H   UNL     1      -1.452  16.217  22.572  0.00  0.00    +0.000 HD
BRANCH   7   9
ATOM      9  C   UNL     1      -1.147  11.883  21.664  0.00  0.00    +0.000 A 
ATOM     10  C   UNL     1      -0.798  11.097  22.784  0.00  0.00    +0.000 A 
ATOM     11  C   UNL     1      -0.118   9.885  22.648  0.00  0.00    +0.000 A 
ATOM     12  C   UNL     1       0.155   9.393  21.380  0.00  0.00    +0.000 A 
ATOM     13 CL   UNL     1       0.989   7.898  21.209  0.00  0.00    +0.000 Cl
ATOM     14  C   UNL     1      -0.241  10.105  20.253  0.00  0.00    +0.000 A 
ATOM     15  C   UNL     1      -0.875  11.352  20.387  0.00  0.00    +0.000 A 
ATOM     16 CL   UNL     1      -1.229  12.176  18.906  0.00  0.00    +0.000 Cl
ENDBRANCH   7   9
ENDBRANCH   2   3
BRANCH   1  21
ATOM     17  C   UNL     1      -6.336  11.187  19.741  0.00  0.00    +0.000 A 
ATOM     18  N   UNL     1      -7.313  10.337  20.030  0.00  0.00    +0.000 NA
ATOM     19  N   UNL     1      -7.909  10.718  21.198  0.00  0.00    +0.000 NA
ATOM     20  C   UNL     1      -7.293  11.794  21.619  0.00  0.00    +0.000 A 
ATOM     21  N   UNL     1      -6.227  12.113  20.785  0.00  0.00    +0.000 N 
BRANCH  17  26
ATOM     22  C   UNL     1      -2.889  10.745  15.168  0.00  0.00    +0.000 C 
ATOM     23  C   UNL     1      -3.786  10.818  16.367  0.00  0.00    +0.000 A 
ATOM     24  C   UNL     1      -3.621   9.950  17.439  0.00  0.00    +0.000 A 
ATOM     25  C   UNL     1      -4.466  10.074  18.542  0.00  0.00    +0.000 A 
ATOM     26  C   UNL     1      -5.466  11.058  18.567  0.00  0.00    +0.000 A 
ATOM     27  C   UNL     1      -5.570  11.849  17.430  0.00  0.00    +0.000 A 
ATOM     28  N   UNL     1      -4.756  11.761  16.344  0.00  0.00    +0.000 NA
ENDBRANCH  17  26
BRANCH  20  29
ATOM     29  S   UNL     1      -7.793  12.691  23.013  0.00  0.00    +0.000 S 
ATOM     30  H   UNL     1      -7.672  11.688  23.896  0.00  0.00    +0.000 HD
ENDBRANCH  20  29
ENDBRANCH   1  21
TORSDOF 5
ENDMDL
MODEL 2
REMARK VINA RESULT:      -6.6      3.425      6.965
REMARK  Name = 
REMARK  6 active torsions:
REMARK  status: ('A' for Active; 'I' for Inactive)
REMARK    1  A    between atoms: C_1  and  C_2
REMARK    2  A    between atoms: C_5  and  C_6
REMARK    3  A    between atoms: C_9  and  S_10
REMARK    4  A    between atoms: N_11  and  N_12
REMARK    5  A    between atoms: C_13  and  C_14
REMARK    6  A    between atoms: C_18  and  C_19
REMARK                            x       y       z     vdW  Elec       q    Type
REMARK                         _______ _______ _______ _____ _____    ______ ____
ROOT
ATOM      1  N   UNL     1      -1.569  11.791  19.970  0.00  0.00    +0.000 NA
ATOM      2  C   UNL     1      -2.331  10.934  19.374  0.00  0.00    +0.000 C 
ENDROOT
BRANCH   2   3
ATOM      3  C   UNL     1      -3.088  11.273  18.192  0.00  0.00    +0.000 A 
ATOM      4  C   UNL     1      -2.684  11.180  16.879  0.00  0.00    +0.000 A 
ATOM      5  N   UNL     1      -3.756  11.559  16.130  0.00  0.00    +0.000 N 
ATOM      6  N   UNL     1      -4.807  11.957  16.860  0.00  0.00    +0.000 NA
ATOM      7  C   UNL     1      -4.441  11.761  18.136  0.00  0.00    +0.000 A 
ATOM      8  H   UNL     1      -3.843  11.574  15.118  0.00  0.00    +0.000 HD
BRANCH   7   9
ATOM      9  C   UNL     1      -5.341  12.062  19.268  0.00  0.00    +0.000 A 
ATOM     10  C   UNL     1      -5.143  13.264  19.981  0.00  0.00    +0.000 A 
ATOM     11  C   UNL     1      -5.857  13.552  21.145  0.00  0.00    +0.000 A 
ATOM     12  C   UNL     1      -6.845  12.678  21.577  0.00  0.00    +0.000 A 
ATOM     13 CL   UNL     1      -7.729  13.032  23.008  0.00  0.00    +0.000 Cl
ATOM     14  C   UNL     1      -7.118  11.520  20.855  0.00  0.00    +0.000 A 
ATOM     15  C   UNL     1      -6.363  11.200  19.715  0.00  0.00    +0.000 A 
ATOM     16 CL   UNL     1      -6.741   9.685  18.967  0.00  0.00    +0.000 Cl
ENDBRANCH   7   9
ENDBRANCH   2   3
BRANCH   1  21
ATOM     17  C   UNL     1      -1.188  11.707  22.420  0.00  0.00    +0.000 A 
ATOM     18  N   UNL     1      -0.507  10.920  23.243  0.00  0.00    +0.000 NA
ATOM     19  N   UNL     1       0.243  10.045  22.511  0.00  0.00    +0.000 NA
ATOM     20  C   UNL     1       0.014  10.296  21.247  0.00  0.00    +0.000 A 
ATOM     21  N   UNL     1      -0.945  11.292  21.105  0.00  0.00    +0.000 N 
BRANCH  17  26
ATOM     22  C   UNL     1      -4.805  15.771  24.262  0.00  0.00    +0.000 C 
ATOM     23  C   UNL     1      -3.854  14.732  23.745  0.00  0.00    +0.000 A 
ATOM     24  C   UNL     1      -2.762  15.087  22.962  0.00  0.00    +0.000 A 
ATOM     25  C   UNL     1      -1.893  14.086  22.527  0.00  0.00    +0.000 A 
ATOM     26  C   UNL     1      -2.119  12.746  22.872  0.00  0.00    +0.000 A 
ATOM     27  C   UNL     1      -3.258  12.495  23.626  0.00  0.00    +0.000 A 
ATOM     28  N   UNL     1      -4.119  13.448  24.076  0.00  0.00    +0.000 NA
ENDBRANCH  17  26
BRANCH  20  29
ATOM     29  S   UNL     1       0.845   9.498  19.954  0.00  0.00    +0.000 S 
ATOM     30  H   UNL     1       1.224  10.608  19.303  0.00  0.00    +0.000 HD
ENDBRANCH  20  29
ENDBRANCH   1  21
TORSDOF 5
ENDMDL
MODEL 3
REMARK VINA RESULT:      -6.6      8.871     11.225
REMARK  Name = 
REMARK  6 active torsions:
REMARK  status: ('A' for Active; 'I' for Inactive)
REMARK    1  A    between atoms: C_1  and  C_2
REMARK    2  A    between atoms: C_5  and  C_6
REMARK    3  A    between atoms: C_9  and  S_10
REMARK    4  A    between atoms: N_11  and  N_12
REMARK    5  A    between atoms: C_13  and  C_14
REMARK    6  A    between atoms: C_18  and  C_19
REMARK                            x       y       z     vdW  Elec       q    Type
REMARK                         _______ _______ _______ _____ _____    ______ ____
ROOT
ATOM      1  N   UNL     1       3.783   4.497  18.050  0.00  0.00    +0.000 NA
ATOM      2  C   UNL     1       5.070   4.620  18.029  0.00  0.00    +0.000 C 
ENDROOT
BRANCH   2   3
ATOM      3  C   UNL     1       5.810   4.725  16.794  0.00  0.00    +0.000 A 
ATOM      4  C   UNL     1       5.687   3.939  15.670  0.00  0.00    +0.000 A 
ATOM      5  N   UNL     1       6.552   4.457  14.754  0.00  0.00    +0.000 N 
ATOM      6  N   UNL     1       7.278   5.481  15.222  0.00  0.00    +0.000 NA
ATOM      7  C   UNL     1       6.822   5.694  16.465  0.00  0.00    +0.000 A 
ATOM      8  H   UNL     1       6.702   4.163  13.794  0.00  0.00    +0.000 HD
BRANCH   7   9
ATOM      9  C   UNL     1       7.358   6.768  17.326  0.00  0.00    +0.000 A 
ATOM     10  C   UNL     1       7.198   8.107  16.907  0.00  0.00    +0.000 A 
ATOM     11  C   UNL     1       7.797   9.167  17.590  0.00  0.00    +0.000 A 
ATOM     12  C   UNL     1       8.505   8.916  18.758  0.00  0.00    +0.000 A 
ATOM     13 CL   UNL     1       9.241  10.220  19.603  0.00  0.00    +0.000 Cl
ATOM     14  C   UNL     1       8.619   7.616  19.240  0.00  0.00    +0.000 A 
ATOM     15  C   UNL     1       8.064   6.542  18.525  0.00  0.00    +0.000 A 
ATOM     16 CL   UNL     1       8.361   4.969  19.185  0.00  0.00    +0.000 Cl
ENDBRANCH   7   9
ENDBRANCH   2   3
BRANCH   1  21
ATOM     17  C   UNL     1       2.550   5.380  20.013  0.00  0.00    +0.000 A 
ATOM     18  N   UNL     1       2.086   4.867  21.145  0.00  0.00    +0.000 NA
ATOM     19  N   UNL     1       2.524   3.580  21.269  0.00  0.00    +0.000 NA
ATOM     20  C   UNL     1       3.249   3.310  20.213  0.00  0.00    +0.000 A 
ATOM     21  N   UNL     1       3.252   4.381  19.326  0.00  0.00    +0.000 N 
BRANCH  17  26
ATOM     22  C   UNL     1       1.425  10.724  18.235  0.00  0.00    +0.000 C 
ATOM     23  C   UNL     1       1.709   9.314  18.660  0.00  0.00    +0.000 A 
ATOM     24  C   UNL     1       2.242   8.391  17.769  0.00  0.00    +0.000 A 
ATOM     25  C   UNL     1       2.511   7.098  18.220  0.00  0.00    +0.000 A 
ATOM     26  C   UNL     1       2.247   6.738  19.549  0.00  0.00    +0.000 A 
ATOM     27  C   UNL     1       1.680   7.724  20.347  0.00  0.00    +0.000 A 
ATOM     28  N   UNL     1       1.416   8.995  19.942  0.00  0.00    +0.000 NA
ENDBRANCH  17  26
BRANCH  20  29
ATOM     29  S   UNL     1       4.105   1.819  20.004  0.00  0.00    +0.000 S 
ATOM     30  H   UNL     1       3.674   1.565  18.759  0.00  0.00    +0.000 HD
ENDBRANCH  20  29
ENDBRANCH   1  21
TORSDOF 5
ENDMDL
MODEL 4
REMARK VINA RESULT:      -6.4      3.615      6.770
REMARK  Name = 
REMARK  6 active torsions:
REMARK  status: ('A' for Active; 'I' for Inactive)
REMARK    1  A    between atoms: C_1  and  C_2
REMARK    2  A    between atoms: C_5  and  C_6
REMARK    3  A    between atoms: C_9  and  S_10
REMARK    4  A    between atoms: N_11  and  N_12
REMARK    5  A    between atoms: C_13  and  C_14
REMARK    6  A    between atoms: C_18  and  C_19
REMARK                            x       y       z     vdW  Elec       q    Type
REMARK                         _______ _______ _______ _____ _____    ______ ____
ROOT
ATOM      1  N   UNL     1      -0.948  11.127  19.939  0.00  0.00    +0.000 NA
ATOM      2  C   UNL     1      -2.104  10.662  19.596  0.00  0.00    +0.000 C 
ENDROOT
BRANCH   2   3
ATOM      3  C   UNL     1      -2.749  11.047  18.362  0.00  0.00    +0.000 A 
ATOM      4  C   UNL     1      -2.269  10.896  17.080  0.00  0.00    +0.000 A 
ATOM      5  N   UNL     1      -3.252  11.356  16.256  0.00  0.00    +0.000 N 
ATOM      6  N   UNL     1      -4.309  11.856  16.910  0.00  0.00    +0.000 NA
ATOM      7  C   UNL     1      -4.047  11.650  18.209  0.00  0.00    +0.000 A 
ATOM      8  H   UNL     1      -3.271  11.361  15.240  0.00  0.00    +0.000 HD
BRANCH   7   9
ATOM      9  C   UNL     1      -4.989  12.048  19.275  0.00  0.00    +0.000 A 
ATOM     10  C   UNL     1      -4.658  13.156  20.085  0.00  0.00    +0.000 A 
ATOM     11  C   UNL     1      -5.423  13.506  21.199  0.00  0.00    +0.000 A 
ATOM     12  C   UNL     1      -6.586  12.802  21.478  0.00  0.00    +0.000 A 
ATOM     13 CL   UNL     1      -7.534  13.233  22.847  0.00  0.00    +0.000 Cl
ATOM     14  C   UNL     1      -6.983  11.752  20.657  0.00  0.00    +0.000 A 
ATOM     15  C   UNL     1      -6.185  11.361  19.568  0.00  0.00    +0.000 A 
ATOM     16 CL   UNL     1      -6.744   9.981  18.686  0.00  0.00    +0.000 Cl
ENDBRANCH   7   9
ENDBRANCH   2   3
BRANCH   1  21
ATOM     17  C   UNL     1       0.472   9.681  21.370  0.00  0.00    +0.000 A 
ATOM     18  N   UNL     1       0.728   9.598  22.669  0.00  0.00    +0.000 NA
ATOM     19  N   UNL     1      -0.103  10.443  23.346  0.00  0.00    +0.000 NA
ATOM     20  C   UNL     1      -0.859  11.041  22.460  0.00  0.00    +0.000 A 
ATOM     21  N   UNL     1      -0.503  10.666  21.170  0.00  0.00    +0.000 N 
BRANCH  17  26
ATOM     22  C   UNL     1       3.277   6.685  17.351  0.00  0.00    +0.000 C 
ATOM     23  C   UNL     1       2.560   7.503  18.383  0.00  0.00    +0.000 A 
ATOM     24  C   UNL     1       2.045   8.756  18.073  0.00  0.00    +0.000 A 
ATOM     25  C   UNL     1       1.364   9.468  19.062  0.00  0.00    +0.000 A 
ATOM     26  C   UNL     1       1.204   8.928  20.346  0.00  0.00    +0.000 A 
ATOM     27  C   UNL     1       1.788   7.686  20.562  0.00  0.00    +0.000 A 
ATOM     28  N   UNL     1       2.448   6.962  19.618  0.00  0.00    +0.000 NA
ENDBRANCH  17  26
BRANCH  20  29
ATOM     29  S   UNL     1      -2.147  12.120  22.883  0.00  0.00    +0.000 S 
ATOM     30  H   UNL     1      -2.128  11.875  24.202  0.00  0.00    +0.000 HD
ENDBRANCH  20  29
ENDBRANCH   1  21
TORSDOF 5
ENDMDL
MODEL 5
REMARK VINA RESULT:      -6.3      3.610      6.762
REMARK  Name = 
REMARK  6 active torsions:
REMARK  status: ('A' for Active; 'I' for Inactive)
REMARK    1  A    between atoms: C_1  and  C_2
REMARK    2  A    between atoms: C_5  and  C_6
REMARK    3  A    between atoms: C_9  and  S_10
REMARK    4  A    between atoms: N_11  and  N_12
REMARK    5  A    between atoms: C_13  and  C_14
REMARK    6  A    between atoms: C_18  and  C_19
REMARK                            x       y       z     vdW  Elec       q    Type
REMARK                         _______ _______ _______ _____ _____    ______ ____
ROOT
ATOM      1  N   UNL     1      -0.825  10.939  20.022  0.00  0.00    +0.000 NA
ATOM      2  C   UNL     1      -1.819  10.280  19.523  0.00  0.00    +0.000 C 
ENDROOT
BRANCH   2   3
ATOM      3  C   UNL     1      -2.429  10.649  18.267  0.00  0.00    +0.000 A 
ATOM      4  C   UNL     1      -1.996  10.337  16.998  0.00  0.00    +0.000 A 
ATOM      5  N   UNL     1      -2.924  10.856  16.147  0.00  0.00    +0.000 N 
ATOM      6  N   UNL     1      -3.895  11.542  16.767  0.00  0.00    +0.000 NA
ATOM      7  C   UNL     1      -3.638  11.405  18.076  0.00  0.00    +0.000 A 
ATOM      8  H   UNL     1      -2.960  10.785  15.134  0.00  0.00    +0.000 HD
BRANCH   7   9
ATOM      9  C   UNL     1      -4.501  12.006  19.114  0.00  0.00    +0.000 A 
ATOM     10  C   UNL     1      -3.974  13.052  19.902  0.00  0.00    +0.000 A 
ATOM     11  C   UNL     1      -4.673  13.574  20.992  0.00  0.00    +0.000 A 
ATOM     12  C   UNL     1      -5.953  13.115  21.267  0.00  0.00    +0.000 A 
ATOM     13 CL   UNL     1      -6.818  13.758  22.607  0.00  0.00    +0.000 Cl
ATOM     14  C   UNL     1      -6.533  12.138  20.465  0.00  0.00    +0.000 A 
ATOM     15  C   UNL     1      -5.810  11.571  19.401  0.00  0.00    +0.000 A 
ATOM     16 CL   UNL     1      -6.613  10.300  18.543  0.00  0.00    +0.000 Cl
ENDBRANCH   7   9
ENDBRANCH   2   3
BRANCH   1  21
ATOM     17  C   UNL     1       0.570   9.454  21.437  0.00  0.00    +0.000 A 
ATOM     18  N   UNL     1       0.819   9.348  22.736  0.00  0.00    +0.000 NA
ATOM     19  N   UNL     1      -0.005  10.194  23.422  0.00  0.00    +0.000 NA
ATOM     20  C   UNL     1      -0.749  10.814  22.542  0.00  0.00    +0.000 A 
ATOM     21  N   UNL     1      -0.391  10.454  21.248  0.00  0.00    +0.000 N 
BRANCH  17  26
ATOM     22  C   UNL     1       3.482   6.569  17.414  0.00  0.00    +0.000 C 
ATOM     23  C   UNL     1       2.704   7.286  18.477  0.00  0.00    +0.000 A 
ATOM     24  C   UNL     1       2.418   6.672  19.691  0.00  0.00    +0.000 A 
ATOM     25  C   UNL     1       1.711   7.390  20.657  0.00  0.00    +0.000 A 
ATOM     26  C   UNL     1       1.297   8.706  20.406  0.00  0.00    +0.000 A 
ATOM     27  C   UNL     1       1.602   9.212  19.148  0.00  0.00    +0.000 A 
ATOM     28  N   UNL     1       2.297   8.543  18.189  0.00  0.00    +0.000 NA
ENDBRANCH  17  26
BRANCH  20  29
ATOM     29  S   UNL     1      -2.024  11.904  22.975  0.00  0.00    +0.000 S 
ATOM     30  H   UNL     1      -2.678  11.062  23.790  0.00  0.00    +0.000 HD
ENDBRANCH  20  29
ENDBRANCH   1  21
TORSDOF 5
ENDMDL
MODEL 6
REMARK VINA RESULT:      -6.3      3.669      6.890
REMARK  Name = 
REMARK  6 active torsions:
REMARK  status: ('A' for Active; 'I' for Inactive)
REMARK    1  A    between atoms: C_1  and  C_2
REMARK    2  A    between atoms: C_5  and  C_6
REMARK    3  A    between atoms: C_9  and  S_10
REMARK    4  A    between atoms: N_11  and  N_12
REMARK    5  A    between atoms: C_13  and  C_14
REMARK    6  A    between atoms: C_18  and  C_19
REMARK                            x       y       z     vdW  Elec       q    Type
REMARK                         _______ _______ _______ _____ _____    ______ ____
ROOT
ATOM      1  N   UNL     1      -0.486  10.754  19.964  0.00  0.00    +0.000 NA
ATOM      2  C   UNL     1      -1.605  10.292  19.511  0.00  0.00    +0.000 C 
ENDROOT
BRANCH   2   3
ATOM      3  C   UNL     1      -2.157  10.724  18.248  0.00  0.00    +0.000 A 
ATOM      4  C   UNL     1      -1.578  10.635  17.002  0.00  0.00    +0.000 A 
ATOM      5  N   UNL     1      -2.499  11.121  16.125  0.00  0.00    +0.000 N 
ATOM      6  N   UNL     1      -3.610  11.584  16.716  0.00  0.00    +0.000 NA
ATOM      7  C   UNL     1      -3.446  11.324  18.022  0.00  0.00    +0.000 A 
ATOM      8  H   UNL     1      -2.439  11.171  15.112  0.00  0.00    +0.000 HD
BRANCH   7   9
ATOM      9  C   UNL     1      -4.472  11.666  19.027  0.00  0.00    +0.000 A 
ATOM     10  C   UNL     1      -5.713  10.994  18.974  0.00  0.00    +0.000 A 
ATOM     11  C   UNL     1      -6.781  11.360  19.795  0.00  0.00    +0.000 A 
ATOM     12  C   UNL     1      -6.603  12.354  20.747  0.00  0.00    +0.000 A 
ATOM     13 CL   UNL     1      -7.916  12.804  21.763  0.00  0.00    +0.000 Cl
ATOM     14  C   UNL     1      -5.371  12.985  20.877  0.00  0.00    +0.000 A 
ATOM     15  C   UNL     1      -4.311  12.658  20.014  0.00  0.00    +0.000 A 
ATOM     16 CL   UNL     1      -2.863  13.585  20.221  0.00  0.00    +0.000 Cl
ENDBRANCH   7   9
ENDBRANCH   2   3
BRANCH   1  21
ATOM     17  C   UNL     1       0.735   9.166  21.428  0.00  0.00    +0.000 A 
ATOM     18  N   UNL     1       0.936   9.048  22.734  0.00  0.00    +0.000 NA
ATOM     19  N   UNL     1       0.167   9.965  23.391  0.00  0.00    +0.000 NA
ATOM     20  C   UNL     1      -0.496  10.640  22.486  0.00  0.00    +0.000 A 
ATOM     21  N   UNL     1      -0.132  10.243  21.205  0.00  0.00    +0.000 N 
BRANCH  17  26
ATOM     22  C   UNL     1       3.513   6.020  17.506  0.00  0.00    +0.000 C 
ATOM     23  C   UNL     1       2.767   6.806  18.542  0.00  0.00    +0.000 A 
ATOM     24  C   UNL     1       2.398   6.229  19.751  0.00  0.00    +0.000 A 
ATOM     25  C   UNL     1       1.726   7.010  20.692  0.00  0.00    +0.000 A 
ATOM     26  C   UNL     1       1.428   8.353  20.421  0.00  0.00    +0.000 A 
ATOM     27  C   UNL     1       1.807   8.822  19.170  0.00  0.00    +0.000 A 
ATOM     28  N   UNL     1       2.472   8.091  18.235  0.00  0.00    +0.000 NA
ENDBRANCH  17  26
BRANCH  20  29
ATOM     29  S   UNL     1      -1.686  11.836  22.876  0.00  0.00    +0.000 S 
ATOM     30  H   UNL     1      -0.848  12.882  22.923  0.00  0.00    +0.000 HD
ENDBRANCH  20  29
ENDBRANCH   1  21
TORSDOF 5
ENDMDL
MODEL 7
REMARK VINA RESULT:      -6.2      3.314      7.123
REMARK  Name = 
REMARK  6 active torsions:
REMARK  status: ('A' for Active; 'I' for Inactive)
REMARK    1  A    between atoms: C_1  and  C_2
REMARK    2  A    between atoms: C_5  and  C_6
REMARK    3  A    between atoms: C_9  and  S_10
REMARK    4  A    between atoms: N_11  and  N_12
REMARK    5  A    between atoms: C_13  and  C_14
REMARK    6  A    between atoms: C_18  and  C_19
REMARK                            x       y       z     vdW  Elec       q    Type
REMARK                         _______ _______ _______ _____ _____    ______ ____
ROOT
ATOM      1  N   UNL     1      -2.326  12.485  19.765  0.00  0.00    +0.000 NA
ATOM      2  C   UNL     1      -3.055  11.500  19.354  0.00  0.00    +0.000 C 
ENDROOT
BRANCH   2   3
ATOM      3  C   UNL     1      -4.100  11.676  18.373  0.00  0.00    +0.000 A 
ATOM      4  C   UNL     1      -4.014  11.494  17.011  0.00  0.00    +0.000 A 
ATOM      5  N   UNL     1      -5.264  11.727  16.522  0.00  0.00    +0.000 N 
ATOM      6  N   UNL     1      -6.142  12.113  17.458  0.00  0.00    +0.000 NA
ATOM      7  C   UNL     1      -5.466  12.060  18.615  0.00  0.00    +0.000 A 
ATOM      8  H   UNL     1      -5.591  11.644  15.564  0.00  0.00    +0.000 HD
BRANCH   7   9
ATOM      9  C   UNL     1      -6.094  12.397  19.909  0.00  0.00    +0.000 A 
ATOM     10  C   UNL     1      -5.850  13.673  20.461  0.00  0.00    +0.000 A 
ATOM     11  C   UNL     1      -6.289  14.015  21.741  0.00  0.00    +0.000 A 
ATOM     12  C   UNL     1      -7.054  13.113  22.467  0.00  0.00    +0.000 A 
ATOM     13 CL   UNL     1      -7.600  13.533  24.042  0.00  0.00    +0.000 Cl
ATOM     14  C   UNL     1      -7.376  11.874  21.922  0.00  0.00    +0.000 A 
ATOM     15  C   UNL     1      -6.889  11.505  20.657  0.00  0.00    +0.000 A 
ATOM     16 CL   UNL     1      -7.284   9.901  20.140  0.00  0.00    +0.000 Cl
ENDBRANCH   7   9
ENDBRANCH   2   3
BRANCH   1  21
ATOM     17  C   UNL     1      -1.363  12.599  22.048  0.00  0.00    +0.000 A 
ATOM     18  N   UNL     1      -0.418  11.943  22.708  0.00  0.00    +0.000 NA
ATOM     19  N   UNL     1       0.234  11.107  21.847  0.00  0.00    +0.000 NA
ATOM     20  C   UNL     1      -0.318  11.251  20.669  0.00  0.00    +0.000 A 
ATOM     21  N   UNL     1      -1.395  12.129  20.729  0.00  0.00    +0.000 N 
BRANCH  17  26
ATOM     22  C   UNL     1      -4.890  16.368  24.568  0.00  0.00    +0.000 C 
ATOM     23  C   UNL     1      -3.975  15.404  23.873  0.00  0.00    +0.000 A 
ATOM     24  C   UNL     1      -3.183  15.810  22.806  0.00  0.00    +0.000 A 
ATOM     25  C   UNL     1      -2.331  14.881  22.208  0.00  0.00    +0.000 A 
ATOM     26  C   UNL     1      -2.277  13.560  22.676  0.00  0.00    +0.000 A 
ATOM     27  C   UNL     1      -3.135  13.248  23.722  0.00  0.00    +0.000 A 
ATOM     28  N   UNL     1      -3.970  14.132  24.333  0.00  0.00    +0.000 NA
ENDBRANCH  17  26
BRANCH  20  29
ATOM     29  S   UNL     1       0.268  10.464  19.242  0.00  0.00    +0.000 S 
ATOM     30  H   UNL     1       0.055  11.487  18.401  0.00  0.00    +0.000 HD
ENDBRANCH  20  29
ENDBRANCH   1  21
TORSDOF 5
ENDMDL
MODEL 8
REMARK VINA RESULT:      -6.2      4.044      7.100
REMARK  Name = 
REMARK  6 active torsions:
REMARK  status: ('A' for Active; 'I' for Inactive)
REMARK    1  A    between atoms: C_1  and  C_2
REMARK    2  A    between atoms: C_5  and  C_6
REMARK    3  A    between atoms: C_9  and  S_10
REMARK    4  A    between atoms: N_11  and  N_12
REMARK    5  A    between atoms: C_13  and  C_14
REMARK    6  A    between atoms: C_18  and  C_19
REMARK                            x       y       z     vdW  Elec       q    Type
REMARK                         _______ _______ _______ _____ _____    ______ ____
ROOT
ATOM      1  N   UNL     1      -0.318  10.254  19.587  0.00  0.00    +0.000 NA
ATOM      2  C   UNL     1      -1.606  10.249  19.475  0.00  0.00    +0.000 C 
ENDROOT
BRANCH   2   3
ATOM      3  C   UNL     1      -2.268  10.583  18.236  0.00  0.00    +0.000 A 
ATOM      4  C   UNL     1      -1.879  10.249  16.958  0.00  0.00    +0.000 A 
ATOM      5  N   UNL     1      -2.846  10.737  16.133  0.00  0.00    +0.000 N 
ATOM      6  N   UNL     1      -3.802  11.423  16.774  0.00  0.00    +0.000 NA
ATOM      7  C   UNL     1      -3.494  11.319  18.075  0.00  0.00    +0.000 A 
ATOM      8  H   UNL     1      -2.919  10.643  15.124  0.00  0.00    +0.000 HD
BRANCH   7   9
ATOM      9  C   UNL     1      -4.326  11.931  19.132  0.00  0.00    +0.000 A 
ATOM     10  C   UNL     1      -3.735  12.894  19.977  0.00  0.00    +0.000 A 
ATOM     11  C   UNL     1      -4.409  13.412  21.084  0.00  0.00    +0.000 A 
ATOM     12  C   UNL     1      -5.724  13.037  21.322  0.00  0.00    +0.000 A 
ATOM     13 CL   UNL     1      -6.559  13.677  22.682  0.00  0.00    +0.000 Cl
ATOM     14  C   UNL     1      -6.362  12.146  20.465  0.00  0.00    +0.000 A 
ATOM     15  C   UNL     1      -5.668  11.580  19.383  0.00  0.00    +0.000 A 
ATOM     16 CL   UNL     1      -6.549  10.416  18.453  0.00  0.00    +0.000 Cl
ENDBRANCH   7   9
ENDBRANCH   2   3
BRANCH   1  21
ATOM     17  C   UNL     1       1.003   8.886  21.180  0.00  0.00    +0.000 A 
ATOM     18  N   UNL     1       1.313   8.970  22.467  0.00  0.00    +0.000 NA
ATOM     19  N   UNL     1       0.614   9.999  23.030  0.00  0.00    +0.000 NA
ATOM     20  C   UNL     1      -0.114  10.540  22.087  0.00  0.00    +0.000 A 
ATOM     21  N   UNL     1       0.134   9.936  20.860  0.00  0.00    +0.000 N 
BRANCH  17  26
ATOM     22  C   UNL     1       3.254   5.023  17.574  0.00  0.00    +0.000 C 
ATOM     23  C   UNL     1       2.692   6.061  18.499  0.00  0.00    +0.000 A 
ATOM     24  C   UNL     1       2.578   7.387  18.101  0.00  0.00    +0.000 A 
ATOM     25  C   UNL     1       2.026   8.311  18.990  0.00  0.00    +0.000 A 
ATOM     26  C   UNL     1       1.597   7.907  20.262  0.00  0.00    +0.000 A 
ATOM     27  C   UNL     1       1.790   6.567  20.574  0.00  0.00    +0.000 A 
ATOM     28  N   UNL     1       2.315   5.639  19.727  0.00  0.00    +0.000 NA
ENDBRANCH  17  26
BRANCH  20  29
ATOM     29  S   UNL     1      -1.252  11.813  22.378  0.00  0.00    +0.000 S 
ATOM     30  H   UNL     1      -0.393  12.659  22.966  0.00  0.00    +0.000 HD
ENDBRANCH  20  29
ENDBRANCH   1  21
TORSDOF 5
ENDMDL
MODEL 9
REMARK VINA RESULT:      -6.1      2.972      5.327
REMARK  Name = 
REMARK  6 active torsions:
REMARK  status: ('A' for Active; 'I' for Inactive)
REMARK    1  A    between atoms: C_1  and  C_2
REMARK    2  A    between atoms: C_5  and  C_6
REMARK    3  A    between atoms: C_9  and  S_10
REMARK    4  A    between atoms: N_11  and  N_12
REMARK    5  A    between atoms: C_13  and  C_14
REMARK    6  A    between atoms: C_18  and  C_19
REMARK                            x       y       z     vdW  Elec       q    Type
REMARK                         _______ _______ _______ _____ _____    ______ ____
ROOT
ATOM      1  N   UNL     1      -3.015  10.876  18.672  0.00  0.00    +0.000 NA
ATOM      2  C   UNL     1      -1.858  11.369  18.373  0.00  0.00    +0.000 C 
ENDROOT
BRANCH   2   3
ATOM      3  C   UNL     1      -0.645  10.924  19.016  0.00  0.00    +0.000 A 
ATOM      4  C   UNL     1       0.243   9.970  18.571  0.00  0.00    +0.000 A 
ATOM      5  N   UNL     1       1.250   9.939  19.486  0.00  0.00    +0.000 N 
ATOM      6  N   UNL     1       1.051  10.755  20.531  0.00  0.00    +0.000 NA
ATOM      7  C   UNL     1      -0.092  11.402  20.256  0.00  0.00    +0.000 A 
ATOM      8  H   UNL     1       2.103   9.386  19.466  0.00  0.00    +0.000 HD
BRANCH   7   9
ATOM      9  C   UNL     1      -0.656  12.421  21.165  0.00  0.00    +0.000 A 
ATOM     10  C   UNL     1      -0.717  13.758  20.717  0.00  0.00    +0.000 A 
ATOM     11  C   UNL     1      -1.103  14.799  21.564  0.00  0.00    +0.000 A 
ATOM     12  C   UNL     1      -1.517  14.511  22.857  0.00  0.00    +0.000 A 
ATOM     13 CL   UNL     1      -1.997  15.789  23.902  0.00  0.00    +0.000 Cl
ATOM     14  C   UNL     1      -1.541  13.194  23.307  0.00  0.00    +0.000 A 
ATOM     15  C   UNL     1      -1.100  12.152  22.475  0.00  0.00    +0.000 A 
ATOM     16 CL   UNL     1      -1.092  10.575  23.190  0.00  0.00    +0.000 Cl
ENDBRANCH   7   9
ENDBRANCH   2   3
BRANCH   1  21
ATOM     17  C   UNL     1      -5.155  12.123  18.537  0.00  0.00    +0.000 A 
ATOM     18  N   UNL     1      -5.885  12.643  17.559  0.00  0.00    +0.000 NA
ATOM     19  N   UNL     1      -5.358  12.268  16.357  0.00  0.00    +0.000 NA
ATOM     20  C   UNL     1      -4.308  11.526  16.604  0.00  0.00    +0.000 A 
ATOM     21  N   UNL     1      -4.066  11.448  17.971  0.00  0.00    +0.000 N 
BRANCH  17  26
ATOM     22  C   UNL     1      -6.169  12.944  24.131  0.00  0.00    +0.000 C 
ATOM     23  C   UNL     1      -5.891  12.770  22.667  0.00  0.00    +0.000 A 
ATOM     24  C   UNL     1      -4.844  13.446  22.052  0.00  0.00    +0.000 A 
ATOM     25  C   UNL     1      -4.612  13.231  20.692  0.00  0.00    +0.000 A 
ATOM     26  C   UNL     1      -5.422  12.351  19.961  0.00  0.00    +0.000 A 
ATOM     27  C   UNL     1      -6.463  11.755  20.663  0.00  0.00    +0.000 A 
ATOM     28  N   UNL     1      -6.710  11.934  21.989  0.00  0.00    +0.000 NA
ENDBRANCH  17  26
BRANCH  20  29
ATOM     29  S   UNL     1      -3.392  10.733  15.366  0.00  0.00    +0.000 S 
ATOM     30  H   UNL     1      -2.528  10.113  16.184  0.00  0.00    +0.000 HD
ENDBRANCH  20  29
ENDBRANCH   1  21
TORSDOF 5
ENDMDL
