MODEL 1
REMARK VINA RESULT:      -7.6      0.000      0.000
REMARK  Name = 
REMARK  5 active torsions:
REMARK  status: ('A' for Active; 'I' for Inactive)
REMARK    1  A    between atoms: N_1  and  C_2
REMARK    2  A    between atoms: C_2  and  C_3
REMARK    3  A    between atoms: C_3  and  N_4
REMARK    4  A    between atoms: N_4  and  C_5
REMARK    5  A    between atoms: C_6  and  C_7
REMARK                            x       y       z     vdW  Elec       q    Type
REMARK                         _______ _______ _______ _____ _____    ______ ____
ROOT
ATOM      1  C   UNL     1       2.730   6.126  19.587  0.00  0.00    +0.000 A 
ATOM      2  C   UNL     1       2.359   7.412  19.286  0.00  0.00    +0.000 A 
ATOM      3  C   UNL     1       2.880   8.077  18.017  0.00  0.00    +0.000 A 
ATOM      4  O   UNL     1       2.593   9.241  17.730  0.00  0.00    +0.000 OA
ATOM      5  N   UNL     1       3.659   7.343  17.167  0.00  0.00    +0.000 N 
ATOM      6  C   UNL     1       3.985   6.071  17.514  0.00  0.00    +0.000 A 
ATOM      7  S   UNL     1       4.948   5.169  16.476  0.00  0.00    +0.000 S 
ATOM      8  C   UNL     1       4.876   3.834  17.551  0.00  0.00    +0.000 A 
ATOM      9  C   UNL     1       4.115   4.103  18.676  0.00  0.00    +0.000 A 
ATOM     10  C   UNL     1       3.588   5.430  18.654  0.00  0.00    +0.000 A 
ATOM     11  H   UNL     1       3.995   7.758  16.310  0.00  0.00    +0.000 HD
ENDROOT
BRANCH   2  12
ATOM     12  C   UNL     1       1.523   8.176  20.155  0.00  0.00    +0.000 A 
ATOM     13  N   UNL     1       1.248   8.052  21.443  0.00  0.00    +0.000 NA
ATOM     14  C   UNL     1       0.440   9.116  21.767  0.00  0.00    +0.000 A 
ATOM     15  C   UNL     1      -0.093   9.491  23.005  0.00  0.00    +0.000 A 
ATOM     16  C   UNL     1      -0.900  10.632  23.067  0.00  0.00    +0.000 A 
ATOM     17  C   UNL     1      -1.167  11.388  21.920  0.00  0.00    +0.000 A 
ATOM     18  C   UNL     1      -0.632  11.034  20.677  0.00  0.00    +0.000 A 
ATOM     19  C   UNL     1       0.168   9.892  20.649  0.00  0.00    +0.000 A 
ATOM     20  N   UNL     1       0.862   9.277  19.644  0.00  0.00    +0.000 N 
ATOM     21  H   UNL     1       0.958   9.620  18.694  0.00  0.00    +0.000 HD
ENDBRANCH   2  12
BRANCH   1  22
ATOM     22  N   UNL     1       2.285   5.395  20.705  0.00  0.00    +0.000 N 
ATOM     23  H   UNL     1       3.045   4.786  21.029  0.00  0.00    +0.000 HD
BRANCH  22  24
ATOM     24  C   UNL     1       1.105   4.513  20.573  0.00  0.00    +0.000 C 
BRANCH  24  25
ATOM     25  C   UNL     1       1.403   3.072  21.061  0.00  0.00    +0.000 C 
BRANCH  25  26
ATOM     26  N   UNL     1       2.425   3.021  22.111  0.00  0.00    +0.000 NA
ATOM     27  H   UNL     1       2.258   2.221  22.716  0.00  0.00    +0.000 HD
ATOM     28  H   UNL     1       2.355   3.856  22.691  0.00  0.00    +0.000 HD
ENDBRANCH  25  26
ENDBRANCH  24  25
ENDBRANCH  22  24
ENDBRANCH   1  22
TORSDOF 5
ENDMDL
MODEL 2
REMARK VINA RESULT:      -7.4      2.236      6.256
REMARK  Name = 
REMARK  5 active torsions:
REMARK  status: ('A' for Active; 'I' for Inactive)
REMARK    1  A    between atoms: N_1  and  C_2
REMARK    2  A    between atoms: C_2  and  C_3
REMARK    3  A    between atoms: C_3  and  N_4
REMARK    4  A    between atoms: N_4  and  C_5
REMARK    5  A    between atoms: C_6  and  C_7
REMARK                            x       y       z     vdW  Elec       q    Type
REMARK                         _______ _______ _______ _____ _____    ______ ____
ROOT
ATOM      1  C   UNL     1       1.948   7.283  20.109  0.00  0.00    +0.000 A 
ATOM      2  C   UNL     1       2.425   7.578  18.858  0.00  0.00    +0.000 A 
ATOM      3  C   UNL     1       1.997   8.867  18.165  0.00  0.00    +0.000 A 
ATOM      4  O   UNL     1       2.380   9.151  17.029  0.00  0.00    +0.000 OA
ATOM      5  N   UNL     1       1.191   9.737  18.845  0.00  0.00    +0.000 N 
ATOM      6  C   UNL     1       0.760   9.394  20.086  0.00  0.00    +0.000 A 
ATOM      7  S   UNL     1      -0.235  10.458  20.921  0.00  0.00    +0.000 S 
ATOM      8  C   UNL     1      -0.299   9.373  22.249  0.00  0.00    +0.000 A 
ATOM      9  C   UNL     1       0.444   8.227  22.029  0.00  0.00    +0.000 A 
ATOM     10  C   UNL     1       1.070   8.239  20.746  0.00  0.00    +0.000 A 
ATOM     11  H   UNL     1       0.916  10.607  18.412  0.00  0.00    +0.000 HD
ENDROOT
BRANCH   2  12
ATOM     12  C   UNL     1       3.288   6.686  18.151  0.00  0.00    +0.000 A 
ATOM     13  N   UNL     1       3.149   5.417  17.806  0.00  0.00    +0.000 NA
ATOM     14  C   UNL     1       4.264   5.094  17.073  0.00  0.00    +0.000 A 
ATOM     15  C   UNL     1       4.595   3.898  16.426  0.00  0.00    +0.000 A 
ATOM     16  C   UNL     1       5.812   3.824  15.739  0.00  0.00    +0.000 A 
ATOM     17  C   UNL     1       6.680   4.921  15.692  0.00  0.00    +0.000 A 
ATOM     18  C   UNL     1       6.359   6.128  16.323  0.00  0.00    +0.000 A 
ATOM     19  C   UNL     1       5.140   6.169  16.999  0.00  0.00    +0.000 A 
ATOM     20  N   UNL     1       4.501   7.161  17.689  0.00  0.00    +0.000 N 
ATOM     21  H   UNL     1       4.816   8.122  17.773  0.00  0.00    +0.000 HD
ENDBRANCH   2  12
BRANCH   1  22
ATOM     22  N   UNL     1       2.301   6.147  20.862  0.00  0.00    +0.000 N 
ATOM     23  H   UNL     1       3.255   5.862  20.610  0.00  0.00    +0.000 HD
BRANCH  22  24
ATOM     24  C   UNL     1       1.484   4.919  20.752  0.00  0.00    +0.000 C 
BRANCH  24  25
ATOM     25  C   UNL     1       2.210   3.685  21.346  0.00  0.00    +0.000 C 
BRANCH  25  26
ATOM     26  N   UNL     1       1.289   2.698  21.919  0.00  0.00    +0.000 NA
ATOM     27  H   UNL     1       1.681   2.320  22.778  0.00  0.00    +0.000 HD
ATOM     28  H   UNL     1       1.182   1.920  21.270  0.00  0.00    +0.000 HD
ENDBRANCH  25  26
ENDBRANCH  24  25
ENDBRANCH  22  24
ENDBRANCH   1  22
TORSDOF 5
ENDMDL
MODEL 3
REMARK VINA RESULT:      -6.6      4.553      8.610
REMARK  Name = 
REMARK  5 active torsions:
REMARK  status: ('A' for Active; 'I' for Inactive)
REMARK    1  A    between atoms: N_1  and  C_2
REMARK    2  A    between atoms: C_2  and  C_3
REMARK    3  A    between atoms: C_3  and  N_4
REMARK    4  A    between atoms: N_4  and  C_5
REMARK    5  A    between atoms: C_6  and  C_7
REMARK                            x       y       z     vdW  Elec       q    Type
REMARK                         _______ _______ _______ _____ _____    ______ ____
ROOT
ATOM      1  C   UNL     1      -2.314  12.542  20.462  0.00  0.00    +0.000 A 
ATOM      2  C   UNL     1      -1.381  11.746  21.076  0.00  0.00    +0.000 A 
ATOM      3  C   UNL     1      -1.221  11.792  22.591  0.00  0.00    +0.000 A 
ATOM      4  O   UNL     1      -0.373  11.115  23.175  0.00  0.00    +0.000 OA
ATOM      5  N   UNL     1      -2.068  12.586  23.314  0.00  0.00    +0.000 N 
ATOM      6  C   UNL     1      -2.979  13.343  22.651  0.00  0.00    +0.000 A 
ATOM      7  S   UNL     1      -4.016  14.324  23.535  0.00  0.00    +0.000 S 
ATOM      8  C   UNL     1      -4.757  14.866  22.086  0.00  0.00    +0.000 A 
ATOM      9  C   UNL     1      -4.202  14.284  20.960  0.00  0.00    +0.000 A 
ATOM     10  C   UNL     1      -3.147  13.382  21.295  0.00  0.00    +0.000 A 
ATOM     11  H   UNL     1      -1.993  12.612  24.321  0.00  0.00    +0.000 HD
ENDROOT
BRANCH   2  12
ATOM     12  C   UNL     1      -0.511  10.895  20.330  0.00  0.00    +0.000 A 
ATOM     13  N   UNL     1      -0.024  10.993  19.104  0.00  0.00    +0.000 NA
ATOM     14  C   UNL     1       0.822   9.922  18.941  0.00  0.00    +0.000 A 
ATOM     15  C   UNL     1       1.632   9.580  17.853  0.00  0.00    +0.000 A 
ATOM     16  C   UNL     1       2.409   8.419  17.937  0.00  0.00    +0.000 A 
ATOM     17  C   UNL     1       2.383   7.618  19.085  0.00  0.00    +0.000 A 
ATOM     18  C   UNL     1       1.588   7.953  20.186  0.00  0.00    +0.000 A 
ATOM     19  C   UNL     1       0.827   9.115  20.070  0.00  0.00    +0.000 A 
ATOM     20  N   UNL     1      -0.024   9.750  20.932  0.00  0.00    +0.000 N 
ATOM     21  H   UNL     1      -0.202   9.482  21.894  0.00  0.00    +0.000 HD
ENDBRANCH   2  12
BRANCH   1  22
ATOM     22  N   UNL     1      -2.580  12.559  19.080  0.00  0.00    +0.000 N 
ATOM     23  H   UNL     1      -2.881  13.503  18.809  0.00  0.00    +0.000 HD
BRANCH  22  24
ATOM     24  C   UNL     1      -3.606  11.648  18.526  0.00  0.00    +0.000 C 
BRANCH  24  25
ATOM     25  C   UNL     1      -3.177  11.057  17.159  0.00  0.00    +0.000 C 
BRANCH  25  26
ATOM     26  N   UNL     1      -1.940  11.648  16.640  0.00  0.00    +0.000 NA
ATOM     27  H   UNL     1      -1.505  12.222  17.358  0.00  0.00    +0.000 HD
ATOM     28  H   UNL     1      -2.162  12.262  15.859  0.00  0.00    +0.000 HD
ENDBRANCH  25  26
ENDBRANCH  24  25
ENDBRANCH  22  24
ENDBRANCH   1  22
TORSDOF 5
ENDMDL
MODEL 4
REMARK VINA RESULT:      -6.6      0.365      1.258
REMARK  Name = 
REMARK  5 active torsions:
REMARK  status: ('A' for Active; 'I' for Inactive)
REMARK    1  A    between atoms: N_1  and  C_2
REMARK    2  A    between atoms: C_2  and  C_3
REMARK    3  A    between atoms: C_3  and  N_4
REMARK    4  A    between atoms: N_4  and  C_5
REMARK    5  A    between atoms: C_6  and  C_7
REMARK                            x       y       z     vdW  Elec       q    Type
REMARK                         _______ _______ _______ _____ _____    ______ ____
ROOT
ATOM      1  C   UNL     1       2.752   6.037  19.558  0.00  0.00    +0.000 A 
ATOM      2  C   UNL     1       2.501   7.316  19.132  0.00  0.00    +0.000 A 
ATOM      3  C   UNL     1       3.129   7.823  17.838  0.00  0.00    +0.000 A 
ATOM      4  O   UNL     1       2.952   8.976  17.439  0.00  0.00    +0.000 OA
ATOM      5  N   UNL     1       3.880   6.957  17.093  0.00  0.00    +0.000 N 
ATOM      6  C   UNL     1       4.084   5.700  17.562  0.00  0.00    +0.000 A 
ATOM      7  S   UNL     1       5.013   4.636  16.653  0.00  0.00    +0.000 S 
ATOM      8  C   UNL     1       4.785   3.412  17.833  0.00  0.00    +0.000 A 
ATOM      9  C   UNL     1       4.002   3.838  18.892  0.00  0.00    +0.000 A 
ATOM     10  C   UNL     1       3.588   5.195  18.732  0.00  0.00    +0.000 A 
ATOM     11  H   UNL     1       4.285   7.268  16.221  0.00  0.00    +0.000 HD
ENDROOT
BRANCH   2  12
ATOM     12  C   UNL     1       1.696   8.218  19.891  0.00  0.00    +0.000 A 
ATOM     13  N   UNL     1       0.920   9.224  19.524  0.00  0.00    +0.000 NA
ATOM     14  C   UNL     1       0.328   9.691  20.673  0.00  0.00    +0.000 A 
ATOM     15  C   UNL     1      -0.620  10.706  20.843  0.00  0.00    +0.000 A 
ATOM     16  C   UNL     1      -1.066  10.994  22.137  0.00  0.00    +0.000 A 
ATOM     17  C   UNL     1      -0.582  10.281  23.241  0.00  0.00    +0.000 A 
ATOM     18  C   UNL     1       0.356   9.255  23.087  0.00  0.00    +0.000 A 
ATOM     19  C   UNL     1       0.780   8.993  21.784  0.00  0.00    +0.000 A 
ATOM     20  N   UNL     1       1.644   8.070  21.264  0.00  0.00    +0.000 N 
ATOM     21  H   UNL     1       2.105   7.330  21.784  0.00  0.00    +0.000 HD
ENDBRANCH   2  12
BRANCH   1  22
ATOM     22  N   UNL     1       2.201   5.446  20.711  0.00  0.00    +0.000 N 
ATOM     23  H   UNL     1       2.924   4.882  21.175  0.00  0.00    +0.000 HD
BRANCH  22  24
ATOM     24  C   UNL     1       1.031   4.551  20.580  0.00  0.00    +0.000 C 
BRANCH  24  25
ATOM     25  C   UNL     1       1.327   3.128  21.117  0.00  0.00    +0.000 C 
BRANCH  25  26
ATOM     26  N   UNL     1       2.329   3.115  22.186  0.00  0.00    +0.000 NA
ATOM     27  H   UNL     1       2.991   3.875  22.047  0.00  0.00    +0.000 HD
ATOM     28  H   UNL     1       2.858   2.245  22.142  0.00  0.00    +0.000 HD
ENDBRANCH  25  26
ENDBRANCH  24  25
ENDBRANCH  22  24
ENDBRANCH   1  22
TORSDOF 5
ENDMDL
MODEL 5
REMARK VINA RESULT:      -6.6      3.403      5.885
REMARK  Name = 
REMARK  5 active torsions:
REMARK  status: ('A' for Active; 'I' for Inactive)
REMARK    1  A    between atoms: N_1  and  C_2
REMARK    2  A    between atoms: C_2  and  C_3
REMARK    3  A    between atoms: C_3  and  N_4
REMARK    4  A    between atoms: N_4  and  C_5
REMARK    5  A    between atoms: C_6  and  C_7
REMARK                            x       y       z     vdW  Elec       q    Type
REMARK                         _______ _______ _______ _____ _____    ______ ____
ROOT
ATOM      1  C   UNL     1       0.243  10.673  20.093  0.00  0.00    +0.000 A 
ATOM      2  C   UNL     1       0.160  10.669  21.462  0.00  0.00    +0.000 A 
ATOM      3  C   UNL     1       0.777   9.524  22.257  0.00  0.00    +0.000 A 
ATOM      4  O   UNL     1       0.696   9.470  23.486  0.00  0.00    +0.000 OA
ATOM      5  N   UNL     1       1.462   8.553  21.581  0.00  0.00    +0.000 N 
ATOM      6  C   UNL     1       1.518   8.617  20.226  0.00  0.00    +0.000 A 
ATOM      7  S   UNL     1       2.353   7.422  19.392  0.00  0.00    +0.000 S 
ATOM      8  C   UNL     1       1.975   8.183  17.902  0.00  0.00    +0.000 A 
ATOM      9  C   UNL     1       1.225   9.334  18.072  0.00  0.00    +0.000 A 
ATOM     10  C   UNL     1       0.953   9.590  19.450  0.00  0.00    +0.000 A 
ATOM     11  H   UNL     1       1.897   7.798  22.093  0.00  0.00    +0.000 HD
ENDROOT
BRANCH   2  12
ATOM     12  C   UNL     1      -0.530  11.693  22.177  0.00  0.00    +0.000 A 
ATOM     13  N   UNL     1      -0.241  12.966  22.389  0.00  0.00    +0.000 NA
ATOM     14  C   UNL     1      -1.304  13.492  23.081  0.00  0.00    +0.000 A 
ATOM     15  C   UNL     1      -1.533  14.805  23.509  0.00  0.00    +0.000 A 
ATOM     16  C   UNL     1      -2.712  15.083  24.210  0.00  0.00    +0.000 A 
ATOM     17  C   UNL     1      -3.647  14.076  24.475  0.00  0.00    +0.000 A 
ATOM     18  C   UNL     1      -3.439  12.761  24.044  0.00  0.00    +0.000 A 
ATOM     19  C   UNL     1      -2.255  12.517  23.349  0.00  0.00    +0.000 A 
ATOM     20  N   UNL     1      -1.742  11.390  22.768  0.00  0.00    +0.000 N 
ATOM     21  H   UNL     1      -2.213  10.493  22.697  0.00  0.00    +0.000 HD
ENDBRANCH   2  12
BRANCH   1  22
ATOM     22  N   UNL     1      -0.251  11.691  19.255  0.00  0.00    +0.000 N 
ATOM     23  H   UNL     1       0.070  12.600  19.610  0.00  0.00    +0.000 HD
BRANCH  22  24
ATOM     24  C   UNL     1      -1.711  11.837  19.072  0.00  0.00    +0.000 C 
BRANCH  24  25
ATOM     25  C   UNL     1      -2.226  11.024  17.857  0.00  0.00    +0.000 C 
BRANCH  25  26
ATOM     26  N   UNL     1      -1.958  11.680  16.573  0.00  0.00    +0.000 NA
ATOM     27  H   UNL     1      -1.142  12.280  16.657  0.00  0.00    +0.000 HD
ATOM     28  H   UNL     1      -2.746  12.278  16.329  0.00  0.00    +0.000 HD
ENDBRANCH  25  26
ENDBRANCH  24  25
ENDBRANCH  22  24
ENDBRANCH   1  22
TORSDOF 5
ENDMDL
MODEL 6
REMARK VINA RESULT:      -6.5      3.349      6.085
REMARK  Name = 
REMARK  5 active torsions:
REMARK  status: ('A' for Active; 'I' for Inactive)
REMARK    1  A    between atoms: N_1  and  C_2
REMARK    2  A    between atoms: C_2  and  C_3
REMARK    3  A    between atoms: C_3  and  N_4
REMARK    4  A    between atoms: N_4  and  C_5
REMARK    5  A    between atoms: C_6  and  C_7
REMARK                            x       y       z     vdW  Elec       q    Type
REMARK                         _______ _______ _______ _____ _____    ______ ____
ROOT
ATOM      1  C   UNL     1       0.312  10.602  20.082  0.00  0.00    +0.000 A 
ATOM      2  C   UNL     1       0.200  10.622  21.448  0.00  0.00    +0.000 A 
ATOM      3  C   UNL     1       0.784   9.483  22.276  0.00  0.00    +0.000 A 
ATOM      4  O   UNL     1       0.676   9.451  23.504  0.00  0.00    +0.000 OA
ATOM      5  N   UNL     1       1.473   8.493  21.632  0.00  0.00    +0.000 N 
ATOM      6  C   UNL     1       1.560   8.533  20.278  0.00  0.00    +0.000 A 
ATOM      7  S   UNL     1       2.398   7.315  19.483  0.00  0.00    +0.000 S 
ATOM      8  C   UNL     1       2.062   8.055  17.972  0.00  0.00    +0.000 A 
ATOM      9  C   UNL     1       1.323   9.216  18.106  0.00  0.00    +0.000 A 
ATOM     10  C   UNL     1       1.024   9.499  19.473  0.00  0.00    +0.000 A 
ATOM     11  H   UNL     1       1.887   7.742  22.166  0.00  0.00    +0.000 HD
ENDROOT
BRANCH   2  12
ATOM     12  C   UNL     1      -0.495  11.666  22.131  0.00  0.00    +0.000 A 
ATOM     13  N   UNL     1      -0.206  12.944  22.308  0.00  0.00    +0.000 NA
ATOM     14  C   UNL     1      -1.273  13.490  22.980  0.00  0.00    +0.000 A 
ATOM     15  C   UNL     1      -1.504  14.814  23.369  0.00  0.00    +0.000 A 
ATOM     16  C   UNL     1      -2.686  15.112  24.056  0.00  0.00    +0.000 A 
ATOM     17  C   UNL     1      -3.622  14.113  24.345  0.00  0.00    +0.000 A 
ATOM     18  C   UNL     1      -3.412  12.786  23.952  0.00  0.00    +0.000 A 
ATOM     19  C   UNL     1      -2.225  12.522  23.270  0.00  0.00    +0.000 A 
ATOM     20  N   UNL     1      -1.709  11.379  22.725  0.00  0.00    +0.000 N 
ATOM     21  H   UNL     1      -2.179  10.481  22.677  0.00  0.00    +0.000 HD
ENDBRANCH   2  12
BRANCH   1  22
ATOM     22  N   UNL     1      -0.151  11.611  19.217  0.00  0.00    +0.000 N 
ATOM     23  H   UNL     1      -0.431  11.184  18.326  0.00  0.00    +0.000 HD
BRANCH  22  24
ATOM     24  C   UNL     1       0.751  12.725  18.851  0.00  0.00    +0.000 C 
BRANCH  24  25
ATOM     25  C   UNL     1      -0.008  14.073  18.746  0.00  0.00    +0.000 C 
BRANCH  25  26
ATOM     26  N   UNL     1      -1.287  14.069  19.462  0.00  0.00    +0.000 NA
ATOM     27  H   UNL     1      -1.974  14.609  18.941  0.00  0.00    +0.000 HD
ATOM     28  H   UNL     1      -1.169  14.525  20.365  0.00  0.00    +0.000 HD
ENDBRANCH  25  26
ENDBRANCH  24  25
ENDBRANCH  22  24
ENDBRANCH   1  22
TORSDOF 5
ENDMDL
MODEL 7
REMARK VINA RESULT:      -6.5      2.232      6.245
REMARK  Name = 
REMARK  5 active torsions:
REMARK  status: ('A' for Active; 'I' for Inactive)
REMARK    1  A    between atoms: N_1  and  C_2
REMARK    2  A    between atoms: C_2  and  C_3
REMARK    3  A    between atoms: C_3  and  N_4
REMARK    4  A    between atoms: N_4  and  C_5
REMARK    5  A    between atoms: C_6  and  C_7
REMARK                            x       y       z     vdW  Elec       q    Type
REMARK                         _______ _______ _______ _____ _____    ______ ____
ROOT
ATOM      1  C   UNL     1       1.898   7.522  20.106  0.00  0.00    +0.000 A 
ATOM      2  C   UNL     1       2.334   7.890  18.859  0.00  0.00    +0.000 A 
ATOM      3  C   UNL     1       1.822   9.179  18.225  0.00  0.00    +0.000 A 
ATOM      4  O   UNL     1       2.167   9.527  17.094  0.00  0.00    +0.000 OA
ATOM      5  N   UNL     1       0.984   9.978  18.953  0.00  0.00    +0.000 N 
ATOM      6  C   UNL     1       0.597   9.565  20.186  0.00  0.00    +0.000 A 
ATOM      7  S   UNL     1      -0.438  10.539  21.080  0.00  0.00    +0.000 S 
ATOM      8  C   UNL     1      -0.416   9.403  22.365  0.00  0.00    +0.000 A 
ATOM      9  C   UNL     1       0.383   8.308  22.088  0.00  0.00    +0.000 A 
ATOM     10  C   UNL     1       0.983   8.403  20.796  0.00  0.00    +0.000 A 
ATOM     11  H   UNL     1       0.653  10.847  18.559  0.00  0.00    +0.000 HD
ENDROOT
BRANCH   2  12
ATOM     12  C   UNL     1       3.229   7.075  18.103  0.00  0.00    +0.000 A 
ATOM     13  N   UNL     1       4.394   7.341  17.536  0.00  0.00    +0.000 NA
ATOM     14  C   UNL     1       4.843   6.156  17.005  0.00  0.00    +0.000 A 
ATOM     15  C   UNL     1       6.043   5.868  16.346  0.00  0.00    +0.000 A 
ATOM     16  C   UNL     1       6.259   4.562  15.892  0.00  0.00    +0.000 A 
ATOM     17  C   UNL     1       5.301   3.562  16.096  0.00  0.00    +0.000 A 
ATOM     18  C   UNL     1       4.102   3.830  16.764  0.00  0.00    +0.000 A 
ATOM     19  C   UNL     1       3.917   5.141  17.203  0.00  0.00    +0.000 A 
ATOM     20  N   UNL     1       2.907   5.747  17.897  0.00  0.00    +0.000 N 
ATOM     21  H   UNL     1       2.092   5.282  18.285  0.00  0.00    +0.000 HD
ENDBRANCH   2  12
BRANCH   1  22
ATOM     22  N   UNL     1       2.327   6.379  20.808  0.00  0.00    +0.000 N 
ATOM     23  H   UNL     1       3.257   6.107  20.466  0.00  0.00    +0.000 HD
BRANCH  22  24
ATOM     24  C   UNL     1       1.514   5.146  20.754  0.00  0.00    +0.000 C 
BRANCH  24  25
ATOM     25  C   UNL     1       2.377   3.873  20.950  0.00  0.00    +0.000 C 
BRANCH  25  26
ATOM     26  N   UNL     1       1.884   3.004  22.022  0.00  0.00    +0.000 NA
ATOM     27  H   UNL     1       1.097   2.454  21.685  0.00  0.00    +0.000 HD
ATOM     28  H   UNL     1       1.541   3.579  22.791  0.00  0.00    +0.000 HD
ENDBRANCH  25  26
ENDBRANCH  24  25
ENDBRANCH  22  24
ENDBRANCH   1  22
TORSDOF 5
ENDMDL
MODEL 8
REMARK VINA RESULT:      -6.5      3.502      7.598
REMARK  Name = 
REMARK  5 active torsions:
REMARK  status: ('A' for Active; 'I' for Inactive)
REMARK    1  A    between atoms: N_1  and  C_2
REMARK    2  A    between atoms: C_2  and  C_3
REMARK    3  A    between atoms: C_3  and  N_4
REMARK    4  A    between atoms: N_4  and  C_5
REMARK    5  A    between atoms: C_6  and  C_7
REMARK                            x       y       z     vdW  Elec       q    Type
REMARK                         _______ _______ _______ _____ _____    ______ ____
ROOT
ATOM      1  C   UNL     1      -0.545  10.921  19.619  0.00  0.00    +0.000 A 
ATOM      2  C   UNL     1       0.300  10.108  20.329  0.00  0.00    +0.000 A 
ATOM      3  C   UNL     1       0.393  10.248  21.844  0.00  0.00    +0.000 A 
ATOM      4  O   UNL     1       1.164   9.556  22.514  0.00  0.00    +0.000 OA
ATOM      5  N   UNL     1      -0.427  11.144  22.470  0.00  0.00    +0.000 N 
ATOM      6  C   UNL     1      -1.251  11.914  21.714  0.00  0.00    +0.000 A 
ATOM      7  S   UNL     1      -2.254  13.022  22.479  0.00  0.00    +0.000 S 
ATOM      8  C   UNL     1      -2.888  13.511  20.961  0.00  0.00    +0.000 A 
ATOM      9  C   UNL     1      -2.325  12.817  19.905  0.00  0.00    +0.000 A 
ATOM     10  C   UNL     1      -1.353  11.871  20.351  0.00  0.00    +0.000 A 
ATOM     11  H   UNL     1      -0.396  11.235  23.476  0.00  0.00    +0.000 HD
ENDROOT
BRANCH   2  12
ATOM     12  C   UNL     1       1.141   9.151  19.686  0.00  0.00    +0.000 A 
ATOM     13  N   UNL     1       1.773   9.176  18.524  0.00  0.00    +0.000 NA
ATOM     14  C   UNL     1       2.497   8.010  18.456  0.00  0.00    +0.000 A 
ATOM     15  C   UNL     1       3.379   7.561  17.467  0.00  0.00    +0.000 A 
ATOM     16  C   UNL     1       3.995   6.316  17.636  0.00  0.00    +0.000 A 
ATOM     17  C   UNL     1       3.742   5.537  18.771  0.00  0.00    +0.000 A 
ATOM     18  C   UNL     1       2.873   5.976  19.775  0.00  0.00    +0.000 A 
ATOM     19  C   UNL     1       2.275   7.220  19.575  0.00  0.00    +0.000 A 
ATOM     20  N   UNL     1       1.414   7.962  20.336  0.00  0.00    +0.000 N 
ATOM     21  H   UNL     1       1.097   7.728  21.271  0.00  0.00    +0.000 HD
ENDBRANCH   2  12
BRANCH   1  22
ATOM     22  N   UNL     1      -0.746  10.861  18.226  0.00  0.00    +0.000 N 
ATOM     23  H   UNL     1      -0.978  11.800  17.882  0.00  0.00    +0.000 HD
BRANCH  22  24
ATOM     24  C   UNL     1      -1.796   9.973  17.682  0.00  0.00    +0.000 C 
BRANCH  24  25
ATOM     25  C   UNL     1      -2.940  10.774  17.008  0.00  0.00    +0.000 C 
BRANCH  25  26
ATOM     26  N   UNL     1      -2.576  11.291  15.686  0.00  0.00    +0.000 NA
ATOM     27  H   UNL     1      -3.035  10.741  14.963  0.00  0.00    +0.000 HD
ATOM     28  H   UNL     1      -1.572  11.189  15.548  0.00  0.00    +0.000 HD
ENDBRANCH  25  26
ENDBRANCH  24  25
ENDBRANCH  22  24
ENDBRANCH   1  22
TORSDOF 5
ENDMDL
MODEL 9
REMARK VINA RESULT:      -6.5      3.841      7.931
REMARK  Name = 
REMARK  5 active torsions:
REMARK  status: ('A' for Active; 'I' for Inactive)
REMARK    1  A    between atoms: N_1  and  C_2
REMARK    2  A    between atoms: C_2  and  C_3
REMARK    3  A    between atoms: C_3  and  N_4
REMARK    4  A    between atoms: N_4  and  C_5
REMARK    5  A    between atoms: C_6  and  C_7
REMARK                            x       y       z     vdW  Elec       q    Type
REMARK                         _______ _______ _______ _____ _____    ______ ____
ROOT
ATOM      1  C   UNL     1      -1.383  11.513  20.180  0.00  0.00    +0.000 A 
ATOM      2  C   UNL     1      -0.468  10.728  20.832  0.00  0.00    +0.000 A 
ATOM      3  C   UNL     1      -0.314  10.835  22.345  0.00  0.00    +0.000 A 
ATOM      4  O   UNL     1       0.519  10.169  22.962  0.00  0.00    +0.000 OA
ATOM      5  N   UNL     1      -1.150  11.673  23.029  0.00  0.00    +0.000 N 
ATOM      6  C   UNL     1      -2.045  12.418  22.329  0.00  0.00    +0.000 A 
ATOM      7  S   UNL     1      -3.068  13.453  23.165  0.00  0.00    +0.000 S 
ATOM      8  C   UNL     1      -3.792  13.946  21.690  0.00  0.00    +0.000 A 
ATOM      9  C   UNL     1      -3.242  13.307  20.592  0.00  0.00    +0.000 A 
ATOM     10  C   UNL     1      -2.205  12.402  20.971  0.00  0.00    +0.000 A 
ATOM     11  H   UNL     1      -1.080  11.741  24.034  0.00  0.00    +0.000 HD
ENDROOT
BRANCH   2  12
ATOM     12  C   UNL     1       0.391   9.831  20.128  0.00  0.00    +0.000 A 
ATOM     13  N   UNL     1       0.991   9.928  18.954  0.00  0.00    +0.000 NA
ATOM     14  C   UNL     1       1.756   8.795  18.818  0.00  0.00    +0.000 A 
ATOM     15  C   UNL     1       2.629   8.421  17.789  0.00  0.00    +0.000 A 
ATOM     16  C   UNL     1       3.295   7.195  17.891  0.00  0.00    +0.000 A 
ATOM     17  C   UNL     1       3.101   6.360  18.998  0.00  0.00    +0.000 A 
ATOM     18  C   UNL     1       2.243   6.725  20.040  0.00  0.00    +0.000 A 
ATOM     19  C   UNL     1       1.594   7.952  19.909  0.00  0.00    +0.000 A 
ATOM     20  N   UNL     1       0.726   8.628  20.721  0.00  0.00    +0.000 N 
ATOM     21  H   UNL     1       0.442   8.343  21.653  0.00  0.00    +0.000 HD
ENDBRANCH   2  12
BRANCH   1  22
ATOM     22  N   UNL     1      -1.642  11.476  18.797  0.00  0.00    +0.000 N 
ATOM     23  H   UNL     1      -2.033  12.380  18.506  0.00  0.00    +0.000 HD
BRANCH  22  24
ATOM     24  C   UNL     1      -2.569  10.457  18.258  0.00  0.00    +0.000 C 
BRANCH  24  25
ATOM     25  C   UNL     1      -2.380  10.249  16.734  0.00  0.00    +0.000 C 
BRANCH  25  26
ATOM     26  N   UNL     1      -2.448  11.500  15.972  0.00  0.00    +0.000 NA
ATOM     27  H   UNL     1      -1.522  11.917  15.911  0.00  0.00    +0.000 HD
ATOM     28  H   UNL     1      -3.045  12.163  16.464  0.00  0.00    +0.000 HD
ENDBRANCH  25  26
ENDBRANCH  24  25
ENDBRANCH  22  24
ENDBRANCH   1  22
TORSDOF 5
ENDMDL
