MODEL 1
REMARK VINA RESULT:      -6.8      0.000      0.000
REMARK  Name = 
REMARK  7 active torsions:
REMARK  status: ('A' for Active; 'I' for Inactive)
REMARK    1  A    between atoms: C_1  and  C_2
REMARK    2  A    between atoms: C_2  and  C_3
REMARK    3  A    between atoms: N_5  and  C_6
REMARK    4  A    between atoms: C_6  and  C_7
REMARK    5  A    between atoms: C_7  and  O_8
REMARK    6  A    between atoms: O_8  and  C_9
REMARK    7  A    between atoms: C_9  and  C_10
REMARK                            x       y       z     vdW  Elec       q    Type
REMARK                         _______ _______ _______ _____ _____    ______ ____
ROOT
ATOM      1  C   UNL     1      11.272  12.738  18.709  0.00  0.00    +0.000 A 
ATOM      2  N   UNL     1      10.791  11.508  18.492  0.00  0.00    +0.000 NA
ATOM      3  N   UNL     1      10.012  11.263  19.575  0.00  0.00    +0.000 N 
ATOM      4  C   UNL     1       9.986  12.302  20.474  0.00  0.00    +0.000 A 
ATOM      5  C   UNL     1       9.313  12.600  21.649  0.00  0.00    +0.000 A 
ATOM      6  N   UNL     1       8.343  11.768  22.224  0.00  0.00    +0.000 N 
ATOM      7  C   UNL     1       7.336  12.199  23.108  0.00  0.00    +0.000 A 
ATOM      8  C   UNL     1       6.693  13.412  22.915  0.00  0.00    +0.000 A 
ATOM      9  C   UNL     1       5.695  13.740  23.800  0.00  0.00    +0.000 A 
ATOM     10  N   UNL     1       5.330  12.948  24.818  0.00  0.00    +0.000 NA
ATOM     11  C   UNL     1       6.001  11.791  24.914  0.00  0.00    +0.000 A 
ATOM     12  N   UNL     1       6.982  11.364  24.099  0.00  0.00    +0.000 NA
ATOM     13  N   UNL     1       9.570  13.819  22.195  0.00  0.00    +0.000 NA
ATOM     14  C   UNL     1      10.422  14.696  21.636  0.00  0.00    +0.000 A 
ATOM     15  N   UNL     1      10.562  15.931  22.210  0.00  0.00    +0.000 N 
ATOM     16  C   UNL     1       9.991  16.246  23.516  0.00  0.00    +0.000 C 
ATOM     17  C   UNL     1       9.417  17.672  23.462  0.00  0.00    +0.000 C 
ATOM     18  O   UNL     1      10.407  18.630  23.041  0.00  0.00    +0.000 OA
ATOM     19  C   UNL     1      10.912  18.293  21.736  0.00  0.00    +0.000 C 
ATOM     20  C   UNL     1      11.547  16.893  21.719  0.00  0.00    +0.000 C 
ATOM     21  N   UNL     1      11.070  14.451  20.504  0.00  0.00    +0.000 NA
ATOM     22  C   UNL     1      10.822  13.260  19.936  0.00  0.00    +0.000 A 
ATOM     23  H   UNL     1       8.712  10.885  22.554  0.00  0.00    +0.000 HD
ENDROOT
BRANCH   1  25
ATOM     24  C   UNL     1      11.487  13.554  16.367  0.00  0.00    +0.000 C 
ATOM     25  C   UNL     1      12.156  13.417  17.724  0.00  0.00    +0.000 C 
ENDBRANCH   1  25
BRANCH   3  26
ATOM     26  C   UNL     1       9.307   9.992  19.659  0.00  0.00    +0.000 C 
BRANCH  26  27
ATOM     27  C   UNL     1       8.691   9.531  18.332  0.00  0.00    +0.000 C 
BRANCH  27  28
ATOM     28  O   UNL     1       8.297   8.155  18.415  0.00  0.00    +0.000 OA
BRANCH  28  29
ATOM     29  C   UNL     1       7.604   7.742  17.218  0.00  0.00    +0.000 C 
BRANCH  29  30
ATOM     30  C   UNL     1       7.021   6.328  17.293  0.00  0.00    +0.000 C 
ATOM     31  F   UNL     1       6.608   5.862  16.096  0.00  0.00    +0.000 F 
ATOM     32  F   UNL     1       7.939   5.455  17.775  0.00  0.00    +0.000 F 
ATOM     33  F   UNL     1       5.958   6.289  18.133  0.00  0.00    +0.000 F 
ENDBRANCH  29  30
ENDBRANCH  28  29
ENDBRANCH  27  28
ENDBRANCH  26  27
ENDBRANCH   3  26
TORSDOF 6
ENDMDL
MODEL 2
REMARK VINA RESULT:      -6.6     11.100     14.128
REMARK  Name = 
REMARK  7 active torsions:
REMARK  status: ('A' for Active; 'I' for Inactive)
REMARK    1  A    between atoms: C_1  and  C_2
REMARK    2  A    between atoms: C_2  and  C_3
REMARK    3  A    between atoms: N_5  and  C_6
REMARK    4  A    between atoms: C_6  and  C_7
REMARK    5  A    between atoms: C_7  and  O_8
REMARK    6  A    between atoms: O_8  and  C_9
REMARK    7  A    between atoms: C_9  and  C_10
REMARK                            x       y       z     vdW  Elec       q    Type
REMARK                         _______ _______ _______ _____ _____    ______ ____
ROOT
ATOM      1  C   UNL     1      -4.005  13.261  23.159  0.00  0.00    +0.000 A 
ATOM      2  N   UNL     1      -5.258  12.833  22.968  0.00  0.00    +0.000 NA
ATOM      3  N   UNL     1      -5.304  12.526  21.647  0.00  0.00    +0.000 N 
ATOM      4  C   UNL     1      -4.114  12.750  20.995  0.00  0.00    +0.000 A 
ATOM      5  C   UNL     1      -3.608  12.533  19.723  0.00  0.00    +0.000 A 
ATOM      6  N   UNL     1      -4.326  11.910  18.693  0.00  0.00    +0.000 N 
ATOM      7  C   UNL     1      -3.745  11.266  17.584  0.00  0.00    +0.000 A 
ATOM      8  C   UNL     1      -2.596  10.504  17.726  0.00  0.00    +0.000 A 
ATOM      9  C   UNL     1      -2.118   9.877  16.601  0.00  0.00    +0.000 A 
ATOM     10  N   UNL     1      -2.708   9.974  15.402  0.00  0.00    +0.000 NA
ATOM     11  C   UNL     1      -3.820  10.723  15.368  0.00  0.00    +0.000 A 
ATOM     12  N   UNL     1      -4.383  11.368  16.406  0.00  0.00    +0.000 NA
ATOM     13  N   UNL     1      -2.305  12.875  19.529  0.00  0.00    +0.000 NA
ATOM     14  C   UNL     1      -1.541  13.391  20.507  0.00  0.00    +0.000 A 
ATOM     15  N   UNL     1      -0.218  13.634  20.248  0.00  0.00    +0.000 N 
ATOM     16  C   UNL     1       0.330  13.558  18.897  0.00  0.00    +0.000 C 
ATOM     17  C   UNL     1       1.716  12.895  18.974  0.00  0.00    +0.000 C 
ATOM     18  O   UNL     1       2.587  13.582  19.892  0.00  0.00    +0.000 OA
ATOM     19  C   UNL     1       2.016  13.598  21.214  0.00  0.00    +0.000 C 
ATOM     20  C   UNL     1       0.643  14.292  21.228  0.00  0.00    +0.000 C 
ATOM     21  N   UNL     1      -1.987  13.596  21.740  0.00  0.00    +0.000 NA
ATOM     22  C   UNL     1      -3.267  13.253  21.962  0.00  0.00    +0.000 A 
ATOM     23  H   UNL     1      -5.127  12.442  18.380  0.00  0.00    +0.000 HD
ENDROOT
BRANCH   1  25
ATOM     24  C   UNL     1      -3.570  15.173  24.694  0.00  0.00    +0.000 C 
ATOM     25  C   UNL     1      -3.515  13.666  24.504  0.00  0.00    +0.000 C 
ENDBRANCH   1  25
BRANCH   3  26
ATOM     26  C   UNL     1      -6.542  12.004  21.089  0.00  0.00    +0.000 C 
BRANCH  26  27
ATOM     27  C   UNL     1      -7.771  12.877  21.370  0.00  0.00    +0.000 C 
BRANCH  27  28
ATOM     28  O   UNL     1      -7.527  14.230  20.962  0.00  0.00    +0.000 OA
BRANCH  28  29
ATOM     29  C   UNL     1      -7.916  14.435  19.588  0.00  0.00    +0.000 C 
BRANCH  29  30
ATOM     30  C   UNL     1      -6.777  14.915  18.683  0.00  0.00    +0.000 C 
ATOM     31  F   UNL     1      -6.426  14.008  17.748  0.00  0.00    +0.000 F 
ATOM     32  F   UNL     1      -7.125  16.053  18.036  0.00  0.00    +0.000 F 
ATOM     33  F   UNL     1      -5.669  15.196  19.412  0.00  0.00    +0.000 F 
ENDBRANCH  29  30
ENDBRANCH  28  29
ENDBRANCH  27  28
ENDBRANCH  26  27
ENDBRANCH   3  26
TORSDOF 6
ENDMDL
MODEL 3
REMARK VINA RESULT:      -6.5     10.970     13.344
REMARK  Name = 
REMARK  7 active torsions:
REMARK  status: ('A' for Active; 'I' for Inactive)
REMARK    1  A    between atoms: C_1  and  C_2
REMARK    2  A    between atoms: C_2  and  C_3
REMARK    3  A    between atoms: N_5  and  C_6
REMARK    4  A    between atoms: C_6  and  C_7
REMARK    5  A    between atoms: C_7  and  O_8
REMARK    6  A    between atoms: O_8  and  C_9
REMARK    7  A    between atoms: C_9  and  C_10
REMARK                            x       y       z     vdW  Elec       q    Type
REMARK                         _______ _______ _______ _____ _____    ______ ____
ROOT
ATOM      1  C   UNL     1      -5.298  12.205  17.646  0.00  0.00    +0.000 A 
ATOM      2  N   UNL     1      -5.007  11.335  16.672  0.00  0.00    +0.000 NA
ATOM      3  N   UNL     1      -3.774  10.873  16.999  0.00  0.00    +0.000 N 
ATOM      4  C   UNL     1      -3.274  11.427  18.154  0.00  0.00    +0.000 A 
ATOM      5  C   UNL     1      -2.154  11.252  18.951  0.00  0.00    +0.000 A 
ATOM      6  N   UNL     1      -1.164  10.292  18.704  0.00  0.00    +0.000 N 
ATOM      7  C   UNL     1      -0.291   9.769  19.677  0.00  0.00    +0.000 A 
ATOM      8  C   UNL     1      -0.740   9.494  20.959  0.00  0.00    +0.000 A 
ATOM      9  C   UNL     1       0.166   8.948  21.836  0.00  0.00    +0.000 A 
ATOM     10  N   UNL     1       1.436   8.678  21.504  0.00  0.00    +0.000 NA
ATOM     11  C   UNL     1       1.772   8.967  20.237  0.00  0.00    +0.000 A 
ATOM     12  N   UNL     1       0.966   9.489  19.294  0.00  0.00    +0.000 NA
ATOM     13  N   UNL     1      -2.094  12.013  20.077  0.00  0.00    +0.000 NA
ATOM     14  C   UNL     1      -3.060  12.885  20.412  0.00  0.00    +0.000 A 
ATOM     15  N   UNL     1      -2.958  13.553  21.603  0.00  0.00    +0.000 N 
ATOM     16  C   UNL     1      -1.741  13.514  22.408  0.00  0.00    +0.000 C 
ATOM     17  C   UNL     1      -2.143  13.407  23.889  0.00  0.00    +0.000 C 
ATOM     18  O   UNL     1      -3.035  14.468  24.277  0.00  0.00    +0.000 OA
ATOM     19  C   UNL     1      -4.232  14.441  23.478  0.00  0.00    +0.000 C 
ATOM     20  C   UNL     1      -3.915  14.591  21.980  0.00  0.00    +0.000 C 
ATOM     21  N   UNL     1      -4.154  13.066  19.683  0.00  0.00    +0.000 NA
ATOM     22  C   UNL     1      -4.246  12.315  18.572  0.00  0.00    +0.000 A 
ATOM     23  H   UNL     1      -0.643  10.458  17.852  0.00  0.00    +0.000 HD
ENDROOT
BRANCH   1  25
ATOM     24  C   UNL     1      -7.492  12.401  18.808  0.00  0.00    +0.000 C 
ATOM     25  C   UNL     1      -6.602  12.920  17.691  0.00  0.00    +0.000 C 
ENDBRANCH   1  25
BRANCH   3  26
ATOM     26  C   UNL     1      -3.148   9.876  16.144  0.00  0.00    +0.000 C 
BRANCH  26  27
ATOM     27  C   UNL     1      -3.089  10.272  14.663  0.00  0.00    +0.000 C 
BRANCH  27  28
ATOM     28  O   UNL     1      -4.287   9.863  13.988  0.00  0.00    +0.000 OA
BRANCH  28  29
ATOM     29  C   UNL     1      -4.118   9.916  12.556  0.00  0.00    +0.000 C 
BRANCH  29  30
ATOM     30  C   UNL     1      -5.359   9.488  11.767  0.00  0.00    +0.000 C 
ATOM     31  F   UNL     1      -6.182   8.683  12.471  0.00  0.00    +0.000 F 
ATOM     32  F   UNL     1      -6.079  10.569  11.381  0.00  0.00    +0.000 F 
ATOM     33  F   UNL     1      -5.007   8.823  10.640  0.00  0.00    +0.000 F 
ENDBRANCH  29  30
ENDBRANCH  28  29
ENDBRANCH  27  28
ENDBRANCH  26  27
ENDBRANCH   3  26
TORSDOF 6
ENDMDL
MODEL 4
REMARK VINA RESULT:      -6.5      7.003      9.255
REMARK  Name = 
REMARK  7 active torsions:
REMARK  status: ('A' for Active; 'I' for Inactive)
REMARK    1  A    between atoms: C_1  and  C_2
REMARK    2  A    between atoms: C_2  and  C_3
REMARK    3  A    between atoms: N_5  and  C_6
REMARK    4  A    between atoms: C_6  and  C_7
REMARK    5  A    between atoms: C_7  and  O_8
REMARK    6  A    between atoms: O_8  and  C_9
REMARK    7  A    between atoms: C_9  and  C_10
REMARK                            x       y       z     vdW  Elec       q    Type
REMARK                         _______ _______ _______ _____ _____    ______ ____
ROOT
ATOM      1  C   UNL     1       0.070  10.008  21.101  0.00  0.00    +0.000 A 
ATOM      2  N   UNL     1       0.740   9.437  20.093  0.00  0.00    +0.000 NA
ATOM      3  N   UNL     1       1.235  10.487  19.390  0.00  0.00    +0.000 N 
ATOM      4  C   UNL     1       0.896  11.708  19.923  0.00  0.00    +0.000 A 
ATOM      5  C   UNL     1       1.199  13.036  19.668  0.00  0.00    +0.000 A 
ATOM      6  N   UNL     1       2.082  13.455  18.664  0.00  0.00    +0.000 N 
ATOM      7  C   UNL     1       2.762  14.688  18.655  0.00  0.00    +0.000 A 
ATOM      8  C   UNL     1       3.277  15.223  19.826  0.00  0.00    +0.000 A 
ATOM      9  C   UNL     1       3.961  16.410  19.724  0.00  0.00    +0.000 A 
ATOM     10  N   UNL     1       4.145  17.052  18.562  0.00  0.00    +0.000 NA
ATOM     11  C   UNL     1       3.622  16.449  17.484  0.00  0.00    +0.000 A 
ATOM     12  N   UNL     1       2.947  15.285  17.466  0.00  0.00    +0.000 NA
ATOM     13  N   UNL     1       0.658  13.949  20.520  0.00  0.00    +0.000 NA
ATOM     14  C   UNL     1      -0.121  13.596  21.556  0.00  0.00    +0.000 A 
ATOM     15  N   UNL     1      -0.559  14.573  22.411  0.00  0.00    +0.000 N 
ATOM     16  C   UNL     1      -0.391  15.992  22.112  0.00  0.00    +0.000 C 
ATOM     17  C   UNL     1      -0.005  16.718  23.413  0.00  0.00    +0.000 C 
ATOM     18  O   UNL     1      -0.962  16.478  24.461  0.00  0.00    +0.000 OA
ATOM     19  C   UNL     1      -1.065  15.070  24.739  0.00  0.00    +0.000 C 
ATOM     20  C   UNL     1      -1.494  14.277  23.493  0.00  0.00    +0.000 C 
ATOM     21  N   UNL     1      -0.417  12.334  21.841  0.00  0.00    +0.000 NA
ATOM     22  C   UNL     1       0.116  11.411  21.023  0.00  0.00    +0.000 A 
ATOM     23  H   UNL     1       1.752  13.257  17.727  0.00  0.00    +0.000 HD
ENDROOT
BRANCH   1  25
ATOM     24  C   UNL     1       0.021   9.411  23.517  0.00  0.00    +0.000 C 
ATOM     25  C   UNL     1      -0.605   9.197  22.149  0.00  0.00    +0.000 C 
ENDBRANCH   1  25
BRANCH   3  26
ATOM     26  C   UNL     1       2.047  10.222  18.211  0.00  0.00    +0.000 C 
BRANCH  26  27
ATOM     27  C   UNL     1       1.922   8.790  17.676  0.00  0.00    +0.000 C 
BRANCH  27  28
ATOM     28  O   UNL     1       3.082   8.023  18.025  0.00  0.00    +0.000 OA
BRANCH  28  29
ATOM     29  C   UNL     1       2.720   6.866  18.810  0.00  0.00    +0.000 C 
BRANCH  29  30
ATOM     30  C   UNL     1       2.909   5.534  18.078  0.00  0.00    +0.000 C 
ATOM     31  F   UNL     1       3.421   4.566  18.867  0.00  0.00    +0.000 F 
ATOM     32  F   UNL     1       1.728   5.081  17.593  0.00  0.00    +0.000 F 
ATOM     33  F   UNL     1       3.743   5.680  17.020  0.00  0.00    +0.000 F 
ENDBRANCH  29  30
ENDBRANCH  28  29
ENDBRANCH  27  28
ENDBRANCH  26  27
ENDBRANCH   3  26
TORSDOF 6
ENDMDL
MODEL 5
REMARK VINA RESULT:      -6.5     11.091     13.675
REMARK  Name = 
REMARK  7 active torsions:
REMARK  status: ('A' for Active; 'I' for Inactive)
REMARK    1  A    between atoms: C_1  and  C_2
REMARK    2  A    between atoms: C_2  and  C_3
REMARK    3  A    between atoms: N_5  and  C_6
REMARK    4  A    between atoms: C_6  and  C_7
REMARK    5  A    between atoms: C_7  and  O_8
REMARK    6  A    between atoms: O_8  and  C_9
REMARK    7  A    between atoms: C_9  and  C_10
REMARK                            x       y       z     vdW  Elec       q    Type
REMARK                         _______ _______ _______ _____ _____    ______ ____
ROOT
ATOM      1  C   UNL     1      -5.613  12.125  17.625  0.00  0.00    +0.000 A 
ATOM      2  N   UNL     1      -4.888  11.689  16.587  0.00  0.00    +0.000 NA
ATOM      3  N   UNL     1      -3.639  11.543  17.096  0.00  0.00    +0.000 N 
ATOM      4  C   UNL     1      -3.550  11.875  18.427  0.00  0.00    +0.000 A 
ATOM      5  C   UNL     1      -2.578  11.826  19.413  0.00  0.00    +0.000 A 
ATOM      6  N   UNL     1      -1.290  11.312  19.213  0.00  0.00    +0.000 N 
ATOM      7  C   UNL     1      -0.453  10.823  20.234  0.00  0.00    +0.000 A 
ATOM      8  C   UNL     1      -0.971  10.080  21.283  0.00  0.00    +0.000 A 
ATOM      9  C   UNL     1      -0.081   9.607  22.216  0.00  0.00    +0.000 A 
ATOM     10  N   UNL     1       1.239   9.831  22.148  0.00  0.00    +0.000 NA
ATOM     11  C   UNL     1       1.646  10.548  21.090  0.00  0.00    +0.000 A 
ATOM     12  N   UNL     1       0.866  11.048  20.114  0.00  0.00    +0.000 NA
ATOM     13  N   UNL     1      -2.964  12.224  20.656  0.00  0.00    +0.000 NA
ATOM     14  C   UNL     1      -4.213  12.639  20.926  0.00  0.00    +0.000 A 
ATOM     15  N   UNL     1      -4.537  12.947  22.220  0.00  0.00    +0.000 N 
ATOM     16  C   UNL     1      -3.524  13.049  23.266  0.00  0.00    +0.000 C 
ATOM     17  C   UNL     1      -4.090  12.419  24.551  0.00  0.00    +0.000 C 
ATOM     18  O   UNL     1      -5.345  13.014  24.930  0.00  0.00    +0.000 OA
ATOM     19  C   UNL     1      -6.317  12.856  23.879  0.00  0.00    +0.000 C 
ATOM     20  C   UNL     1      -5.842  13.505  22.568  0.00  0.00    +0.000 C 
ATOM     21  N   UNL     1      -5.173  12.683  20.011  0.00  0.00    +0.000 NA
ATOM     22  C   UNL     1      -4.823  12.280  18.778  0.00  0.00    +0.000 A 
ATOM     23  H   UNL     1      -0.733  11.857  18.567  0.00  0.00    +0.000 HD
ENDROOT
BRANCH   1  25
ATOM     24  C   UNL     1      -7.367  13.814  17.107  0.00  0.00    +0.000 C 
ATOM     25  C   UNL     1      -7.074  12.378  17.506  0.00  0.00    +0.000 C 
ENDBRANCH   1  25
BRANCH   3  26
ATOM     26  C   UNL     1      -2.579  11.058  16.224  0.00  0.00    +0.000 C 
BRANCH  26  27
ATOM     27  C   UNL     1      -2.915   9.747  15.503  0.00  0.00    +0.000 C 
BRANCH  27  28
ATOM     28  O   UNL     1      -2.901   9.940  14.082  0.00  0.00    +0.000 OA
BRANCH  28  29
ATOM     29  C   UNL     1      -4.241  10.081  13.565  0.00  0.00    +0.000 C 
BRANCH  29  30
ATOM     30  C   UNL     1      -4.364   9.790  12.066  0.00  0.00    +0.000 C 
ATOM     31  F   UNL     1      -5.232   8.793  11.792  0.00  0.00    +0.000 F 
ATOM     32  F   UNL     1      -4.783  10.890  11.396  0.00  0.00    +0.000 F 
ATOM     33  F   UNL     1      -3.164   9.439  11.544  0.00  0.00    +0.000 F 
ENDBRANCH  29  30
ENDBRANCH  28  29
ENDBRANCH  27  28
ENDBRANCH  26  27
ENDBRANCH   3  26
TORSDOF 6
ENDMDL
MODEL 6
REMARK VINA RESULT:      -6.5      9.448     12.379
REMARK  Name = 
REMARK  7 active torsions:
REMARK  status: ('A' for Active; 'I' for Inactive)
REMARK    1  A    between atoms: C_1  and  C_2
REMARK    2  A    between atoms: C_2  and  C_3
REMARK    3  A    between atoms: N_5  and  C_6
REMARK    4  A    between atoms: C_6  and  C_7
REMARK    5  A    between atoms: C_7  and  O_8
REMARK    6  A    between atoms: O_8  and  C_9
REMARK    7  A    between atoms: C_9  and  C_10
REMARK                            x       y       z     vdW  Elec       q    Type
REMARK                         _______ _______ _______ _____ _____    ______ ____
ROOT
ATOM      1  C   UNL     1      -2.084  11.066  18.292  0.00  0.00    +0.000 A 
ATOM      2  N   UNL     1      -0.756  11.209  18.212  0.00  0.00    +0.000 NA
ATOM      3  N   UNL     1      -0.478  12.209  19.086  0.00  0.00    +0.000 N 
ATOM      4  C   UNL     1      -1.594  12.706  19.717  0.00  0.00    +0.000 A 
ATOM      5  C   UNL     1      -1.857  13.626  20.720  0.00  0.00    +0.000 A 
ATOM      6  N   UNL     1      -0.862  14.320  21.422  0.00  0.00    +0.000 N 
ATOM      7  C   UNL     1      -1.026  14.883  22.701  0.00  0.00    +0.000 A 
ATOM      8  C   UNL     1      -1.755  14.225  23.679  0.00  0.00    +0.000 A 
ATOM      9  C   UNL     1      -1.832  14.825  24.913  0.00  0.00    +0.000 A 
ATOM     10  N   UNL     1      -1.243  15.994  25.197  0.00  0.00    +0.000 NA
ATOM     11  C   UNL     1      -0.550  16.548  24.190  0.00  0.00    +0.000 A 
ATOM     12  N   UNL     1      -0.397  16.044  22.952  0.00  0.00    +0.000 NA
ATOM     13  N   UNL     1      -3.163  13.767  21.078  0.00  0.00    +0.000 NA
ATOM     14  C   UNL     1      -4.149  13.058  20.502  0.00  0.00    +0.000 A 
ATOM     15  N   UNL     1      -5.425  13.205  20.977  0.00  0.00    +0.000 N 
ATOM     16  C   UNL     1      -5.779  14.255  21.928  0.00  0.00    +0.000 C 
ATOM     17  C   UNL     1      -6.759  13.665  22.958  0.00  0.00    +0.000 C 
ATOM     18  O   UNL     1      -7.909  13.076  22.324  0.00  0.00    +0.000 OA
ATOM     19  C   UNL     1      -7.507  12.026  21.424  0.00  0.00    +0.000 C 
ATOM     20  C   UNL     1      -6.560  12.549  20.332  0.00  0.00    +0.000 C 
ATOM     21  N   UNL     1      -3.933  12.158  19.552  0.00  0.00    +0.000 NA
ATOM     22  C   UNL     1      -2.650  11.988  19.191  0.00  0.00    +0.000 A 
ATOM     23  H   UNL     1      -0.337  14.965  20.845  0.00  0.00    +0.000 HD
ENDROOT
BRANCH   1  25
ATOM     24  C   UNL     1      -2.528  10.147  16.021  0.00  0.00    +0.000 C 
ATOM     25  C   UNL     1      -2.806  10.028  17.510  0.00  0.00    +0.000 C 
ENDBRANCH   1  25
BRANCH   3  26
ATOM     26  C   UNL     1       0.906  12.621  19.266  0.00  0.00    +0.000 C 
BRANCH  26  27
ATOM     27  C   UNL     1       1.577  12.027  20.511  0.00  0.00    +0.000 C 
BRANCH  27  28
ATOM     28  O   UNL     1       0.606  11.370  21.337  0.00  0.00    +0.000 OA
BRANCH  28  29
ATOM     29  C   UNL     1       1.062  10.057  21.726  0.00  0.00    +0.000 C 
BRANCH  29  30
ATOM     30  C   UNL     1       0.013   8.955  21.546  0.00  0.00    +0.000 C 
ATOM     31  F   UNL     1      -0.854   9.210  20.542  0.00  0.00    +0.000 F 
ATOM     32  F   UNL     1       0.606   7.767  21.280  0.00  0.00    +0.000 F 
ATOM     33  F   UNL     1      -0.713   8.792  22.678  0.00  0.00    +0.000 F 
ENDBRANCH  29  30
ENDBRANCH  28  29
ENDBRANCH  27  28
ENDBRANCH  26  27
ENDBRANCH   3  26
TORSDOF 6
ENDMDL
MODEL 7
REMARK VINA RESULT:      -6.4      9.588     12.589
REMARK  Name = 
REMARK  7 active torsions:
REMARK  status: ('A' for Active; 'I' for Inactive)
REMARK    1  A    between atoms: C_1  and  C_2
REMARK    2  A    between atoms: C_2  and  C_3
REMARK    3  A    between atoms: N_5  and  C_6
REMARK    4  A    between atoms: C_6  and  C_7
REMARK    5  A    between atoms: C_7  and  O_8
REMARK    6  A    between atoms: O_8  and  C_9
REMARK    7  A    between atoms: C_9  and  C_10
REMARK                            x       y       z     vdW  Elec       q    Type
REMARK                         _______ _______ _______ _____ _____    ______ ____
ROOT
ATOM      1  C   UNL     1      -2.981  11.464  18.394  0.00  0.00    +0.000 A 
ATOM      2  N   UNL     1      -1.731  11.776  18.031  0.00  0.00    +0.000 NA
ATOM      3  N   UNL     1      -1.375  12.765  18.889  0.00  0.00    +0.000 N 
ATOM      4  C   UNL     1      -2.366  13.091  19.785  0.00  0.00    +0.000 A 
ATOM      5  C   UNL     1      -2.493  13.928  20.883  0.00  0.00    +0.000 A 
ATOM      6  N   UNL     1      -1.449  14.711  21.392  0.00  0.00    +0.000 N 
ATOM      7  C   UNL     1      -1.377  15.195  22.712  0.00  0.00    +0.000 A 
ATOM      8  C   UNL     1      -1.784  14.411  23.779  0.00  0.00    +0.000 A 
ATOM      9  C   UNL     1      -1.644  14.944  25.038  0.00  0.00    +0.000 A 
ATOM     10  N   UNL     1      -1.140  16.164  25.264  0.00  0.00    +0.000 NA
ATOM     11  C   UNL     1      -0.763  16.842  24.169  0.00  0.00    +0.000 A 
ATOM     12  N   UNL     1      -0.842  16.413  22.896  0.00  0.00    +0.000 NA
ATOM     13  N   UNL     1      -3.690  13.890  21.530  0.00  0.00    +0.000 NA
ATOM     14  C   UNL     1      -4.696  13.089  21.141  0.00  0.00    +0.000 A 
ATOM     15  N   UNL     1      -5.838  13.055  21.896  0.00  0.00    +0.000 N 
ATOM     16  C   UNL     1      -6.080  14.011  22.972  0.00  0.00    +0.000 C 
ATOM     17  C   UNL     1      -6.725  13.261  24.150  0.00  0.00    +0.000 C 
ATOM     18  O   UNL     1      -7.917  12.560  23.748  0.00  0.00    +0.000 OA
ATOM     19  C   UNL     1      -7.617  11.607  22.712  0.00  0.00    +0.000 C 
ATOM     20  C   UNL     1      -7.009  12.290  21.475  0.00  0.00    +0.000 C 
ATOM     21  N   UNL     1      -4.603  12.263  20.106  0.00  0.00    +0.000 NA
ATOM     22  C   UNL     1      -3.426  12.270  19.458  0.00  0.00    +0.000 A 
ATOM     23  H   UNL     1      -1.145  15.440  20.759  0.00  0.00    +0.000 HD
ENDROOT
BRANCH   1  25
ATOM     24  C   UNL     1      -3.053   9.909  16.451  0.00  0.00    +0.000 C 
ATOM     25  C   UNL     1      -3.742  10.378  17.723  0.00  0.00    +0.000 C 
ENDBRANCH   1  25
BRANCH   3  26
ATOM     26  C   UNL     1      -0.042  13.338  18.785  0.00  0.00    +0.000 C 
BRANCH  26  27
ATOM     27  C   UNL     1       0.962  12.771  19.796  0.00  0.00    +0.000 C 
BRANCH  27  28
ATOM     28  O   UNL     1       0.986  11.339  19.727  0.00  0.00    +0.000 OA
BRANCH  28  29
ATOM     29  C   UNL     1       1.732  10.887  18.578  0.00  0.00    +0.000 C 
BRANCH  29  30
ATOM     30  C   UNL     1       1.443   9.437  18.178  0.00  0.00    +0.000 C 
ATOM     31  F   UNL     1       2.272   8.979  17.216  0.00  0.00    +0.000 F 
ATOM     32  F   UNL     1       1.564   8.612  19.246  0.00  0.00    +0.000 F 
ATOM     33  F   UNL     1       0.176   9.308  17.718  0.00  0.00    +0.000 F 
ENDBRANCH  29  30
ENDBRANCH  28  29
ENDBRANCH  27  28
ENDBRANCH  26  27
ENDBRANCH   3  26
TORSDOF 6
ENDMDL
MODEL 8
REMARK VINA RESULT:      -6.4     11.602     13.990
REMARK  Name = 
REMARK  7 active torsions:
REMARK  status: ('A' for Active; 'I' for Inactive)
REMARK    1  A    between atoms: C_1  and  C_2
REMARK    2  A    between atoms: C_2  and  C_3
REMARK    3  A    between atoms: N_5  and  C_6
REMARK    4  A    between atoms: C_6  and  C_7
REMARK    5  A    between atoms: C_7  and  O_8
REMARK    6  A    between atoms: O_8  and  C_9
REMARK    7  A    between atoms: C_9  and  C_10
REMARK                            x       y       z     vdW  Elec       q    Type
REMARK                         _______ _______ _______ _____ _____    ______ ____
ROOT
ATOM      1  C   UNL     1      -3.350  10.929  17.144  0.00  0.00    +0.000 A 
ATOM      2  N   UNL     1      -4.672  10.969  16.943  0.00  0.00    +0.000 NA
ATOM      3  N   UNL     1      -5.156  11.585  18.051  0.00  0.00    +0.000 N 
ATOM      4  C   UNL     1      -4.176  11.936  18.950  0.00  0.00    +0.000 A 
ATOM      5  C   UNL     1      -4.111  12.635  20.145  0.00  0.00    +0.000 A 
ATOM      6  N   UNL     1      -5.217  13.247  20.752  0.00  0.00    +0.000 N 
ATOM      7  C   UNL     1      -5.143  14.313  21.668  0.00  0.00    +0.000 A 
ATOM      8  C   UNL     1      -4.223  15.336  21.495  0.00  0.00    +0.000 A 
ATOM      9  C   UNL     1      -4.244  16.359  22.411  0.00  0.00    +0.000 A 
ATOM     10  N   UNL     1      -5.100  16.402  23.441  0.00  0.00    +0.000 NA
ATOM     11  C   UNL     1      -5.959  15.374  23.517  0.00  0.00    +0.000 A 
ATOM     12  N   UNL     1      -6.036  14.331  22.671  0.00  0.00    +0.000 NA
ATOM     13  N   UNL     1      -2.870  12.792  20.681  0.00  0.00    +0.000 NA
ATOM     14  C   UNL     1      -1.763  12.306  20.095  0.00  0.00    +0.000 A 
ATOM     15  N   UNL     1      -0.547  12.578  20.662  0.00  0.00    +0.000 N 
ATOM     16  C   UNL     1      -0.430  13.183  21.985  0.00  0.00    +0.000 C 
ATOM     17  C   UNL     1       0.716  14.209  21.949  0.00  0.00    +0.000 C 
ATOM     18  O   UNL     1       1.948  13.618  21.495  0.00  0.00    +0.000 OA
ATOM     19  C   UNL     1       1.787  13.068  20.174  0.00  0.00    +0.000 C 
ATOM     20  C   UNL     1       0.686  11.994  20.139  0.00  0.00    +0.000 C 
ATOM     21  N   UNL     1      -1.786  11.648  18.943  0.00  0.00    +0.000 NA
ATOM     22  C   UNL     1      -2.998  11.492  18.384  0.00  0.00    +0.000 A 
ATOM     23  H   UNL     1      -5.917  12.589  21.071  0.00  0.00    +0.000 HD
ENDROOT
BRANCH   1  25
ATOM     24  C   UNL     1      -3.071  10.272  14.758  0.00  0.00    +0.000 C 
ATOM     25  C   UNL     1      -2.423  10.359  16.130  0.00  0.00    +0.000 C 
ENDBRANCH   1  25
BRANCH   3  26
ATOM     26  C   UNL     1      -6.589  11.813  18.159  0.00  0.00    +0.000 C 
BRANCH  26  27
ATOM     27  C   UNL     1      -7.141  12.814  17.138  0.00  0.00    +0.000 C 
BRANCH  27  28
ATOM     28  O   UNL     1      -7.752  13.926  17.806  0.00  0.00    +0.000 OA
BRANCH  28  29
ATOM     29  C   UNL     1      -7.121  15.168  17.429  0.00  0.00    +0.000 C 
BRANCH  29  30
ATOM     30  C   UNL     1      -6.969  16.164  18.583  0.00  0.00    +0.000 C 
ATOM     31  F   UNL     1      -7.400  15.674  19.765  0.00  0.00    +0.000 F 
ATOM     32  F   UNL     1      -5.672  16.521  18.741  0.00  0.00    +0.000 F 
ATOM     33  F   UNL     1      -7.666  17.299  18.335  0.00  0.00    +0.000 F 
ENDBRANCH  29  30
ENDBRANCH  28  29
ENDBRANCH  27  28
ENDBRANCH  26  27
ENDBRANCH   3  26
TORSDOF 6
ENDMDL
MODEL 9
REMARK VINA RESULT:      -6.4      9.851     12.904
REMARK  Name = 
REMARK  7 active torsions:
REMARK  status: ('A' for Active; 'I' for Inactive)
REMARK    1  A    between atoms: C_1  and  C_2
REMARK    2  A    between atoms: C_2  and  C_3
REMARK    3  A    between atoms: N_5  and  C_6
REMARK    4  A    between atoms: C_6  and  C_7
REMARK    5  A    between atoms: C_7  and  O_8
REMARK    6  A    between atoms: O_8  and  C_9
REMARK    7  A    between atoms: C_9  and  C_10
REMARK                            x       y       z     vdW  Elec       q    Type
REMARK                         _______ _______ _______ _____ _____    ______ ____
ROOT
ATOM      1  C   UNL     1      -3.103  11.372  18.232  0.00  0.00    +0.000 A 
ATOM      2  N   UNL     1      -1.838  11.608  17.865  0.00  0.00    +0.000 NA
ATOM      3  N   UNL     1      -1.411  12.553  18.739  0.00  0.00    +0.000 N 
ATOM      4  C   UNL     1      -2.370  12.925  19.651  0.00  0.00    +0.000 A 
ATOM      5  C   UNL     1      -2.434  13.744  20.767  0.00  0.00    +0.000 A 
ATOM      6  N   UNL     1      -1.336  14.446  21.283  0.00  0.00    +0.000 N 
ATOM      7  C   UNL     1      -1.223  14.896  22.612  0.00  0.00    +0.000 A 
ATOM      8  C   UNL     1      -1.673  14.117  23.667  0.00  0.00    +0.000 A 
ATOM      9  C   UNL     1      -1.488  14.612  24.935  0.00  0.00    +0.000 A 
ATOM     10  N   UNL     1      -0.903  15.792  25.182  0.00  0.00    +0.000 NA
ATOM     11  C   UNL     1      -0.489  16.467  24.098  0.00  0.00    +0.000 A 
ATOM     12  N   UNL     1      -0.606  16.072  22.817  0.00  0.00    +0.000 NA
ATOM     13  N   UNL     1      -3.626  13.771  21.424  0.00  0.00    +0.000 NA
ATOM     14  C   UNL     1      -4.685  13.047  21.027  0.00  0.00    +0.000 A 
ATOM     15  N   UNL     1      -5.821  13.072  21.793  0.00  0.00    +0.000 N 
ATOM     16  C   UNL     1      -5.992  14.019  22.890  0.00  0.00    +0.000 C 
ATOM     17  C   UNL     1      -6.676  13.288  24.058  0.00  0.00    +0.000 C 
ATOM     18  O   UNL     1      -7.914  12.676  23.653  0.00  0.00    +0.000 OA
ATOM     19  C   UNL     1      -7.686  11.727  22.594  0.00  0.00    +0.000 C 
ATOM     20  C   UNL     1      -7.044  12.395  21.366  0.00  0.00    +0.000 C 
ATOM     21  N   UNL     1      -4.655  12.239  19.975  0.00  0.00    +0.000 NA
ATOM     22  C   UNL     1      -3.485  12.182  19.317  0.00  0.00    +0.000 A 
ATOM     23  H   UNL     1      -0.990  15.167  20.663  0.00  0.00    +0.000 HD
ENDROOT
BRANCH   1  25
ATOM     24  C   UNL     1      -3.311   9.896  16.239  0.00  0.00    +0.000 C 
ATOM     25  C   UNL     1      -3.939  10.353  17.545  0.00  0.00    +0.000 C 
ENDBRANCH   1  25
BRANCH   3  26
ATOM     26  C   UNL     1      -0.043  13.039  18.636  0.00  0.00    +0.000 C 
BRANCH  26  27
ATOM     27  C   UNL     1       0.954  12.297  19.534  0.00  0.00    +0.000 C 
BRANCH  27  28
ATOM     28  O   UNL     1       0.323  11.168  20.155  0.00  0.00    +0.000 OA
BRANCH  28  29
ATOM     29  C   UNL     1       0.519  11.187  21.584  0.00  0.00    +0.000 C 
BRANCH  29  30
ATOM     30  C   UNL     1      -0.399  10.230  22.352  0.00  0.00    +0.000 C 
ATOM     31  F   UNL     1      -0.781   9.163  21.619  0.00  0.00    +0.000 F 
ATOM     32  F   UNL     1       0.218   9.761  23.463  0.00  0.00    +0.000 F 
ATOM     33  F   UNL     1      -1.523  10.867  22.761  0.00  0.00    +0.000 F 
ENDBRANCH  29  30
ENDBRANCH  28  29
ENDBRANCH  27  28
ENDBRANCH  26  27
ENDBRANCH   3  26
TORSDOF 6
ENDMDL
