MODEL 1
REMARK VINA RESULT:      -7.6      0.000      0.000
REMARK  Name = 
REMARK  5 active torsions:
REMARK  status: ('A' for Active; 'I' for Inactive)
REMARK    1  A    between atoms: C_2  and  C_3
REMARK    2  A    between atoms: C_9  and  N_10
REMARK    3  A    between atoms: N_13  and  C_14
REMARK    4  A    between atoms: C_17  and  O_18
REMARK    5  A    between atoms: O_18  and  C_19
REMARK                            x       y       z     vdW  Elec       q    Type
REMARK                         _______ _______ _______ _____ _____    ______ ____
ROOT
ATOM      1  N   UNL     1      -3.666  12.155  19.075  0.00  0.00    +0.000 N 
ATOM      2  C   UNL     1      -2.742  11.130  18.762  0.00  0.00    +0.000 A 
ATOM      3  O   UNL     1      -2.800  10.338  17.831  0.00  0.00    +0.000 OA
ATOM      4  N   UNL     1      -1.742  11.185  19.747  0.00  0.00    +0.000 N 
ATOM      5  C   UNL     1      -1.927  12.334  20.518  0.00  0.00    +0.000 A 
ATOM      6  C   UNL     1      -1.194  12.958  21.497  0.00  0.00    +0.000 A 
ATOM      7  N   UNL     1      -0.054  12.420  22.081  0.00  0.00    +0.000 N 
ATOM      8  N   UNL     1      -1.583  14.150  21.974  0.00  0.00    +0.000 NA
ATOM      9  C   UNL     1      -2.692  14.699  21.431  0.00  0.00    +0.000 A 
ATOM     10  N   UNL     1      -3.473  14.166  20.477  0.00  0.00    +0.000 NA
ATOM     11  C   UNL     1      -3.073  12.964  20.068  0.00  0.00    +0.000 A 
ATOM     12  H   UNL     1       0.627  12.100  21.400  0.00  0.00    +0.000 HD
ATOM     13  H   UNL     1       0.334  13.102  22.729  0.00  0.00    +0.000 HD
ENDROOT
BRANCH   1  20
ATOM     14  C   UNL     1      -6.581  12.517  21.647  0.00  0.00    +0.000 C 
ATOM     15  O   UNL     1      -6.867  11.680  22.503  0.00  0.00    +0.000 OA
ATOM     16  N   UNL     1      -6.558  12.234  20.291  0.00  0.00    +0.000 N 
ATOM     17  C   UNL     1      -7.066  10.934  19.854  0.00  0.00    +0.000 C 
ATOM     18  C   UNL     1      -6.039  10.195  19.006  0.00  0.00    +0.000 C 
ATOM     19  C   UNL     1      -5.573  11.084  17.850  0.00  0.00    +0.000 C 
ATOM     20  C   UNL     1      -4.931  12.398  18.377  0.00  0.00    +0.000 C 
ATOM     21  C   UNL     1      -6.037  13.102  19.216  0.00  0.00    +0.000 C 
BRANCH  14  23
ATOM     22  C   UNL     1      -6.228  14.221  23.367  0.00  0.00    +0.000 C 
ATOM     23  C   UNL     1      -6.275  13.908  22.065  0.00  0.00    +0.000 C 
ENDBRANCH  14  23
ENDBRANCH   1  20
BRANCH   4  24
ATOM     24  C   UNL     1      -0.661  10.318  19.841  0.00  0.00    +0.000 A 
ATOM     25  C   UNL     1       0.259  10.234  18.793  0.00  0.00    +0.000 A 
ATOM     26  C   UNL     1       1.312   9.324  18.870  0.00  0.00    +0.000 A 
ATOM     27  C   UNL     1       1.415   8.471  19.969  0.00  0.00    +0.000 A 
ATOM     28  C   UNL     1       0.445   8.501  20.975  0.00  0.00    +0.000 A 
ATOM     29  C   UNL     1      -0.569   9.452  20.931  0.00  0.00    +0.000 A 
BRANCH  27  30
ATOM     30  O   UNL     1       2.467   7.585  19.945  0.00  0.00    +0.000 OA
BRANCH  30  31
ATOM     31  C   UNL     1       2.254   6.296  19.513  0.00  0.00    +0.000 A 
ATOM     32  C   UNL     1       1.828   5.392  20.487  0.00  0.00    +0.000 A 
ATOM     33  C   UNL     1       1.575   4.064  20.144  0.00  0.00    +0.000 A 
ATOM     34  C   UNL     1       1.751   3.640  18.829  0.00  0.00    +0.000 A 
ATOM     35  C   UNL     1       2.155   4.544  17.848  0.00  0.00    +0.000 A 
ATOM     36  C   UNL     1       2.381   5.879  18.184  0.00  0.00    +0.000 A 
ENDBRANCH  30  31
ENDBRANCH  27  30
ENDBRANCH   4  24
TORSDOF 5
ENDMDL
MODEL 2
REMARK VINA RESULT:      -7.4      0.335      1.220
REMARK  Name = 
REMARK  5 active torsions:
REMARK  status: ('A' for Active; 'I' for Inactive)
REMARK    1  A    between atoms: C_2  and  C_3
REMARK    2  A    between atoms: C_9  and  N_10
REMARK    3  A    between atoms: N_13  and  C_14
REMARK    4  A    between atoms: C_17  and  O_18
REMARK    5  A    between atoms: O_18  and  C_19
REMARK                            x       y       z     vdW  Elec       q    Type
REMARK                         _______ _______ _______ _____ _____    ______ ____
ROOT
ATOM      1  N   UNL     1      -3.890  12.267  19.146  0.00  0.00    +0.000 N 
ATOM      2  C   UNL     1      -3.021  11.219  18.762  0.00  0.00    +0.000 A 
ATOM      3  O   UNL     1      -3.170  10.432  17.837  0.00  0.00    +0.000 OA
ATOM      4  N   UNL     1      -1.948  11.242  19.668  0.00  0.00    +0.000 N 
ATOM      5  C   UNL     1      -2.042  12.393  20.454  0.00  0.00    +0.000 A 
ATOM      6  C   UNL     1      -1.221  12.993  21.375  0.00  0.00    +0.000 A 
ATOM      7  N   UNL     1      -0.055  12.423  21.870  0.00  0.00    +0.000 N 
ATOM      8  N   UNL     1      -1.540  14.194  21.882  0.00  0.00    +0.000 NA
ATOM      9  C   UNL     1      -2.672  14.774  21.426  0.00  0.00    +0.000 A 
ATOM     10  N   UNL     1      -3.537  14.266  20.533  0.00  0.00    +0.000 NA
ATOM     11  C   UNL     1      -3.202  13.056  20.093  0.00  0.00    +0.000 A 
ATOM     12  H   UNL     1       0.563  12.087  21.139  0.00  0.00    +0.000 HD
ATOM     13  H   UNL     1       0.399  13.091  22.488  0.00  0.00    +0.000 HD
ENDROOT
BRANCH   1  20
ATOM     14  C   UNL     1      -6.609  12.604  21.928  0.00  0.00    +0.000 C 
ATOM     15  O   UNL     1      -6.847  11.750  22.781  0.00  0.00    +0.000 OA
ATOM     16  N   UNL     1      -6.687  12.356  20.567  0.00  0.00    +0.000 N 
ATOM     17  C   UNL     1      -7.246  11.076  20.135  0.00  0.00    +0.000 C 
ATOM     18  C   UNL     1      -6.294  10.345  19.198  0.00  0.00    +0.000 C 
ATOM     19  C   UNL     1      -5.897  11.256  18.034  0.00  0.00    +0.000 C 
ATOM     20  C   UNL     1      -5.197  12.546  18.546  0.00  0.00    +0.000 C 
ATOM     21  C   UNL     1      -6.230  13.245  19.479  0.00  0.00    +0.000 C 
BRANCH  14  23
ATOM     22  C   UNL     1      -7.188  14.784  22.878  0.00  0.00    +0.000 C 
ATOM     23  C   UNL     1      -6.251  13.980  22.357  0.00  0.00    +0.000 C 
ENDBRANCH  14  23
ENDBRANCH   1  20
BRANCH   4  24
ATOM     24  C   UNL     1      -0.887  10.346  19.678  0.00  0.00    +0.000 A 
ATOM     25  C   UNL     1      -0.695   9.504  20.776  0.00  0.00    +0.000 A 
ATOM     26  C   UNL     1       0.402   8.645  20.802  0.00  0.00    +0.000 A 
ATOM     27  C   UNL     1       1.325   8.662  19.757  0.00  0.00    +0.000 A 
ATOM     28  C   UNL     1       1.174   9.565  18.701  0.00  0.00    +0.000 A 
ATOM     29  C   UNL     1       0.047  10.378  18.641  0.00  0.00    +0.000 A 
BRANCH  27  30
ATOM     30  O   UNL     1       2.393   7.803  19.884  0.00  0.00    +0.000 OA
BRANCH  30  31
ATOM     31  C   UNL     1       2.224   6.468  19.599  0.00  0.00    +0.000 A 
ATOM     32  C   UNL     1       2.454   6.097  18.274  0.00  0.00    +0.000 A 
ATOM     33  C   UNL     1       2.318   4.763  17.889  0.00  0.00    +0.000 A 
ATOM     34  C   UNL     1       1.950   3.802  18.828  0.00  0.00    +0.000 A 
ATOM     35  C   UNL     1       1.742   4.164  20.157  0.00  0.00    +0.000 A 
ATOM     36  C   UNL     1       1.904   5.493  20.549  0.00  0.00    +0.000 A 
ENDBRANCH  30  31
ENDBRANCH  27  30
ENDBRANCH   4  24
TORSDOF 5
ENDMDL
MODEL 3
REMARK VINA RESULT:      -7.4      2.554      3.883
REMARK  Name = 
REMARK  5 active torsions:
REMARK  status: ('A' for Active; 'I' for Inactive)
REMARK    1  A    between atoms: C_2  and  C_3
REMARK    2  A    between atoms: C_9  and  N_10
REMARK    3  A    between atoms: N_13  and  C_14
REMARK    4  A    between atoms: C_17  and  O_18
REMARK    5  A    between atoms: O_18  and  C_19
REMARK                            x       y       z     vdW  Elec       q    Type
REMARK                         _______ _______ _______ _____ _____    ______ ____
ROOT
ATOM      1  N   UNL     1      -1.546  12.978  19.974  0.00  0.00    +0.000 N 
ATOM      2  C   UNL     1      -1.245  11.602  19.839  0.00  0.00    +0.000 A 
ATOM      3  O   UNL     1      -2.009  10.657  19.988  0.00  0.00    +0.000 OA
ATOM      4  N   UNL     1       0.119  11.526  19.512  0.00  0.00    +0.000 N 
ATOM      5  C   UNL     1       0.595  12.812  19.248  0.00  0.00    +0.000 A 
ATOM      6  C   UNL     1       1.774  13.313  18.756  0.00  0.00    +0.000 A 
ATOM      7  N   UNL     1       2.914  12.551  18.533  0.00  0.00    +0.000 N 
ATOM      8  N   UNL     1       1.890  14.623  18.488  0.00  0.00    +0.000 NA
ATOM      9  C   UNL     1       0.801  15.394  18.699  0.00  0.00    +0.000 A 
ATOM     10  N   UNL     1      -0.389  14.997  19.179  0.00  0.00    +0.000 NA
ATOM     11  C   UNL     1      -0.442  13.699  19.471  0.00  0.00    +0.000 A 
ATOM     12  H   UNL     1       2.732  11.714  17.989  0.00  0.00    +0.000 HD
ATOM     13  H   UNL     1       3.625  13.143  18.111  0.00  0.00    +0.000 HD
ENDROOT
BRANCH   1  20
ATOM     14  C   UNL     1      -1.009  15.468  22.933  0.00  0.00    +0.000 C 
ATOM     15  O   UNL     1      -0.423  15.195  23.980  0.00  0.00    +0.000 OA
ATOM     16  N   UNL     1      -2.120  14.773  22.484  0.00  0.00    +0.000 N 
ATOM     17  C   UNL     1      -2.722  13.788  23.383  0.00  0.00    +0.000 C 
ATOM     18  C   UNL     1      -2.842  12.427  22.712  0.00  0.00    +0.000 C 
ATOM     19  C   UNL     1      -3.581  12.561  21.378  0.00  0.00    +0.000 C 
ATOM     20  C   UNL     1      -2.831  13.525  20.416  0.00  0.00    +0.000 C 
ATOM     21  C   UNL     1      -2.761  14.892  21.159  0.00  0.00    +0.000 C 
BRANCH  14  23
ATOM     22  C   UNL     1       0.756  16.964  22.135  0.00  0.00    +0.000 C 
ATOM     23  C   UNL     1      -0.538  16.614  22.115  0.00  0.00    +0.000 C 
ENDBRANCH  14  23
ENDBRANCH   1  20
BRANCH   4  24
ATOM     24  C   UNL     1       0.836  10.350  19.334  0.00  0.00    +0.000 A 
ATOM     25  C   UNL     1       1.125   9.897  18.045  0.00  0.00    +0.000 A 
ATOM     26  C   UNL     1       1.799   8.689  17.873  0.00  0.00    +0.000 A 
ATOM     27  C   UNL     1       2.140   7.918  18.984  0.00  0.00    +0.000 A 
ATOM     28  C   UNL     1       1.774   8.334  20.267  0.00  0.00    +0.000 A 
ATOM     29  C   UNL     1       1.159   9.570  20.446  0.00  0.00    +0.000 A 
BRANCH  27  30
ATOM     30  O   UNL     1       2.774   6.726  18.717  0.00  0.00    +0.000 OA
BRANCH  30  31
ATOM     31  C   UNL     1       2.155   5.543  19.049  0.00  0.00    +0.000 A 
ATOM     32  C   UNL     1       1.868   4.689  17.983  0.00  0.00    +0.000 A 
ATOM     33  C   UNL     1       1.250   3.461  18.219  0.00  0.00    +0.000 A 
ATOM     34  C   UNL     1       0.920   3.088  19.520  0.00  0.00    +0.000 A 
ATOM     35  C   UNL     1       1.226   3.927  20.590  0.00  0.00    +0.000 A 
ATOM     36  C   UNL     1       1.868   5.143  20.358  0.00  0.00    +0.000 A 
ENDBRANCH  30  31
ENDBRANCH  27  30
ENDBRANCH   4  24
TORSDOF 5
ENDMDL
MODEL 4
REMARK VINA RESULT:      -7.2      2.511      3.799
REMARK  Name = 
REMARK  5 active torsions:
REMARK  status: ('A' for Active; 'I' for Inactive)
REMARK    1  A    between atoms: C_2  and  C_3
REMARK    2  A    between atoms: C_9  and  N_10
REMARK    3  A    between atoms: N_13  and  C_14
REMARK    4  A    between atoms: C_17  and  O_18
REMARK    5  A    between atoms: O_18  and  C_19
REMARK                            x       y       z     vdW  Elec       q    Type
REMARK                         _______ _______ _______ _____ _____    ______ ____
ROOT
ATOM      1  N   UNL     1      -1.624  13.013  19.981  0.00  0.00    +0.000 N 
ATOM      2  C   UNL     1      -1.381  11.628  19.824  0.00  0.00    +0.000 A 
ATOM      3  O   UNL     1      -2.184  10.714  19.955  0.00  0.00    +0.000 OA
ATOM      4  N   UNL     1      -0.019  11.499  19.504  0.00  0.00    +0.000 N 
ATOM      5  C   UNL     1       0.513  12.767  19.263  0.00  0.00    +0.000 A 
ATOM      6  C   UNL     1       1.715  13.226  18.785  0.00  0.00    +0.000 A 
ATOM      7  N   UNL     1       2.822  12.420  18.556  0.00  0.00    +0.000 N 
ATOM      8  N   UNL     1       1.888  14.534  18.539  0.00  0.00    +0.000 NA
ATOM      9  C   UNL     1       0.831  15.347  18.757  0.00  0.00    +0.000 A 
ATOM     10  N   UNL     1      -0.378  14.993  19.224  0.00  0.00    +0.000 NA
ATOM     11  C   UNL     1      -0.487  13.695  19.496  0.00  0.00    +0.000 A 
ATOM     12  H   UNL     1       2.608  11.600  17.998  0.00  0.00    +0.000 HD
ATOM     13  H   UNL     1       3.561  12.988  18.147  0.00  0.00    +0.000 HD
ENDROOT
BRANCH   1  20
ATOM     14  C   UNL     1      -1.007  15.389  23.017  0.00  0.00    +0.000 C 
ATOM     15  O   UNL     1      -0.447  15.058  24.062  0.00  0.00    +0.000 OA
ATOM     16  N   UNL     1      -2.143  14.759  22.536  0.00  0.00    +0.000 N 
ATOM     17  C   UNL     1      -2.801  13.779  23.399  0.00  0.00    +0.000 C 
ATOM     18  C   UNL     1      -2.977  12.444  22.687  0.00  0.00    +0.000 C 
ATOM     19  C   UNL     1      -3.693  12.652  21.350  0.00  0.00    +0.000 C 
ATOM     20  C   UNL     1      -2.887  13.606  20.425  0.00  0.00    +0.000 C 
ATOM     21  C   UNL     1      -2.762  14.947  21.208  0.00  0.00    +0.000 C 
BRANCH  14  23
ATOM     22  C   UNL     1      -0.711  17.789  22.643  0.00  0.00    +0.000 C 
ATOM     23  C   UNL     1      -0.473  16.534  22.238  0.00  0.00    +0.000 C 
ENDBRANCH  14  23
ENDBRANCH   1  20
BRANCH   4  24
ATOM     24  C   UNL     1       0.648  10.296  19.311  0.00  0.00    +0.000 A 
ATOM     25  C   UNL     1       1.109   9.570  20.411  0.00  0.00    +0.000 A 
ATOM     26  C   UNL     1       1.824   8.391  20.209  0.00  0.00    +0.000 A 
ATOM     27  C   UNL     1       2.116   7.967  18.913  0.00  0.00    +0.000 A 
ATOM     28  C   UNL     1       1.725   8.741  17.816  0.00  0.00    +0.000 A 
ATOM     29  C   UNL     1       0.955   9.883  18.014  0.00  0.00    +0.000 A 
BRANCH  27  30
ATOM     30  O   UNL     1       2.853   6.810  18.810  0.00  0.00    +0.000 OA
BRANCH  30  31
ATOM     31  C   UNL     1       2.236   5.596  19.000  0.00  0.00    +0.000 A 
ATOM     32  C   UNL     1       1.924   5.274  20.321  0.00  0.00    +0.000 A 
ATOM     33  C   UNL     1       1.287   4.068  20.614  0.00  0.00    +0.000 A 
ATOM     34  C   UNL     1       0.964   3.185  19.586  0.00  0.00    +0.000 A 
ATOM     35  C   UNL     1       1.253   3.512  18.263  0.00  0.00    +0.000 A 
ATOM     36  C   UNL     1       1.865   4.730  17.966  0.00  0.00    +0.000 A 
ENDBRANCH  30  31
ENDBRANCH  27  30
ENDBRANCH   4  24
TORSDOF 5
ENDMDL
MODEL 5
REMARK VINA RESULT:      -7.0      5.698      7.258
REMARK  Name = 
REMARK  5 active torsions:
REMARK  status: ('A' for Active; 'I' for Inactive)
REMARK    1  A    between atoms: C_2  and  C_3
REMARK    2  A    between atoms: C_9  and  N_10
REMARK    3  A    between atoms: N_13  and  C_14
REMARK    4  A    between atoms: C_17  and  O_18
REMARK    5  A    between atoms: O_18  and  C_19
REMARK                            x       y       z     vdW  Elec       q    Type
REMARK                         _______ _______ _______ _____ _____    ______ ____
ROOT
ATOM      1  N   UNL     1       0.540  12.718  19.015  0.00  0.00    +0.000 N 
ATOM      2  C   UNL     1       1.907  12.832  18.671  0.00  0.00    +0.000 A 
ATOM      3  O   UNL     1       2.576  12.046  18.013  0.00  0.00    +0.000 OA
ATOM      4  N   UNL     1       2.363  14.027  19.253  0.00  0.00    +0.000 N 
ATOM      5  C   UNL     1       1.269  14.731  19.759  0.00  0.00    +0.000 A 
ATOM      6  C   UNL     1       1.100  15.986  20.289  0.00  0.00    +0.000 A 
ATOM      7  N   UNL     1       2.143  16.852  20.592  0.00  0.00    +0.000 N 
ATOM      8  N   UNL     1      -0.130  16.437  20.577  0.00  0.00    +0.000 NA
ATOM      9  C   UNL     1      -1.168  15.616  20.300  0.00  0.00    +0.000 A 
ATOM     10  N   UNL     1      -1.102  14.377  19.787  0.00  0.00    +0.000 NA
ATOM     11  C   UNL     1       0.140  13.957  19.559  0.00  0.00    +0.000 A 
ATOM     12  H   UNL     1       2.796  16.971  19.825  0.00  0.00    +0.000 HD
ATOM     13  H   UNL     1       1.752  17.735  20.912  0.00  0.00    +0.000 HD
ENDROOT
BRANCH   1  20
ATOM     14  C   UNL     1      -1.037  11.307  22.296  0.00  0.00    +0.000 C 
ATOM     15  O   UNL     1      -0.395  10.951  23.285  0.00  0.00    +0.000 OA
ATOM     16  N   UNL     1      -0.850  10.761  21.037  0.00  0.00    +0.000 N 
ATOM     17  C   UNL     1       0.022   9.592  20.919  0.00  0.00    +0.000 C 
ATOM     18  C   UNL     1       1.116   9.821  19.884  0.00  0.00    +0.000 C 
ATOM     19  C   UNL     1       0.498  10.254  18.552  0.00  0.00    +0.000 C 
ATOM     20  C   UNL     1      -0.316  11.568  18.713  0.00  0.00    +0.000 C 
ATOM     21  C   UNL     1      -1.419  11.255  19.767  0.00  0.00    +0.000 C 
BRANCH  14  23
ATOM     22  C   UNL     1      -3.038  12.205  23.381  0.00  0.00    +0.000 C 
ATOM     23  C   UNL     1      -2.087  12.345  22.448  0.00  0.00    +0.000 C 
ENDBRANCH  14  23
ENDBRANCH   1  20
BRANCH   4  24
ATOM     24  C   UNL     1       3.668  14.498  19.199  0.00  0.00    +0.000 A 
ATOM     25  C   UNL     1       4.234  14.847  17.970  0.00  0.00    +0.000 A 
ATOM     26  C   UNL     1       5.561  15.269  17.916  0.00  0.00    +0.000 A 
ATOM     27  C   UNL     1       6.330  15.298  19.079  0.00  0.00    +0.000 A 
ATOM     28  C   UNL     1       5.784  14.868  20.293  0.00  0.00    +0.000 A 
ATOM     29  C   UNL     1       4.442  14.509  20.360  0.00  0.00    +0.000 A 
BRANCH  27  30
ATOM     30  O   UNL     1       7.638  15.696  18.925  0.00  0.00    +0.000 OA
BRANCH  30  31
ATOM     31  C   UNL     1       8.650  14.788  19.133  0.00  0.00    +0.000 A 
ATOM     32  C   UNL     1       8.832  13.843  18.123  0.00  0.00    +0.000 A 
ATOM     33  C   UNL     1       9.840  12.885  18.237  0.00  0.00    +0.000 A 
ATOM     34  C   UNL     1      10.664  12.873  19.360  0.00  0.00    +0.000 A 
ATOM     35  C   UNL     1      10.500  13.830  20.361  0.00  0.00    +0.000 A 
ATOM     36  C   UNL     1       9.510  14.804  20.235  0.00  0.00    +0.000 A 
ENDBRANCH  30  31
ENDBRANCH  27  30
ENDBRANCH   4  24
TORSDOF 5
ENDMDL
MODEL 6
REMARK VINA RESULT:      -7.0      6.011      7.382
REMARK  Name = 
REMARK  5 active torsions:
REMARK  status: ('A' for Active; 'I' for Inactive)
REMARK    1  A    between atoms: C_2  and  C_3
REMARK    2  A    between atoms: C_9  and  N_10
REMARK    3  A    between atoms: N_13  and  C_14
REMARK    4  A    between atoms: C_17  and  O_18
REMARK    5  A    between atoms: O_18  and  C_19
REMARK                            x       y       z     vdW  Elec       q    Type
REMARK                         _______ _______ _______ _____ _____    ______ ____
ROOT
ATOM      1  N   UNL     1       0.888  13.607  18.811  0.00  0.00    +0.000 N 
ATOM      2  C   UNL     1       2.270  13.386  18.605  0.00  0.00    +0.000 A 
ATOM      3  O   UNL     1       2.802  12.383  18.148  0.00  0.00    +0.000 OA
ATOM      4  N   UNL     1       2.927  14.547  19.046  0.00  0.00    +0.000 N 
ATOM      5  C   UNL     1       1.974  15.532  19.319  0.00  0.00    +0.000 A 
ATOM      6  C   UNL     1       2.040  16.866  19.632  0.00  0.00    +0.000 A 
ATOM      7  N   UNL     1       3.218  17.545  19.913  0.00  0.00    +0.000 N 
ATOM      8  N   UNL     1       0.917  17.596  19.714  0.00  0.00    +0.000 NA
ATOM      9  C   UNL     1      -0.249  16.964  19.451  0.00  0.00    +0.000 A 
ATOM     10  N   UNL     1      -0.413  15.668  19.141  0.00  0.00    +0.000 NA
ATOM     11  C   UNL     1       0.724  14.976  19.116  0.00  0.00    +0.000 A 
ATOM     12  H   UNL     1       3.937  17.399  19.212  0.00  0.00    +0.000 HD
ATOM     13  H   UNL     1       3.003  18.529  20.052  0.00  0.00    +0.000 HD
ENDROOT
BRANCH   1  20
ATOM     14  C   UNL     1      -1.164  13.081  22.090  0.00  0.00    +0.000 C 
ATOM     15  O   UNL     1      -0.679  12.767  23.177  0.00  0.00    +0.000 OA
ATOM     16  N   UNL     1      -1.014  12.315  20.946  0.00  0.00    +0.000 N 
ATOM     17  C   UNL     1      -0.403  10.993  21.081  0.00  0.00    +0.000 C 
ATOM     18  C   UNL     1       0.780  10.831  20.137  0.00  0.00    +0.000 C 
ATOM     19  C   UNL     1       0.357  11.159  18.703  0.00  0.00    +0.000 C 
ATOM     20  C   UNL     1      -0.169  12.618  18.593  0.00  0.00    +0.000 C 
ATOM     21  C   UNL     1      -1.380  12.702  19.569  0.00  0.00    +0.000 C 
BRANCH  14  23
ATOM     22  C   UNL     1      -1.582  15.434  22.615  0.00  0.00    +0.000 C 
ATOM     23  C   UNL     1      -1.978  14.318  21.989  0.00  0.00    +0.000 C 
ENDBRANCH  14  23
ENDBRANCH   1  20
BRANCH   4  24
ATOM     24  C   UNL     1       4.303  14.732  19.064  0.00  0.00    +0.000 A 
ATOM     25  C   UNL     1       5.016  14.777  17.864  0.00  0.00    +0.000 A 
ATOM     26  C   UNL     1       6.404  14.910  17.890  0.00  0.00    +0.000 A 
ATOM     27  C   UNL     1       7.075  14.952  19.112  0.00  0.00    +0.000 A 
ATOM     28  C   UNL     1       6.365  14.823  20.309  0.00  0.00    +0.000 A 
ATOM     29  C   UNL     1       4.976  14.755  20.286  0.00  0.00    +0.000 A 
BRANCH  27  30
ATOM     30  O   UNL     1       8.446  15.052  19.041  0.00  0.00    +0.000 OA
BRANCH  30  31
ATOM     31  C   UNL     1       9.183  13.962  18.639  0.00  0.00    +0.000 A 
ATOM     32  C   UNL     1      10.118  14.200  17.631  0.00  0.00    +0.000 A 
ATOM     33  C   UNL     1      10.920  13.160  17.163  0.00  0.00    +0.000 A 
ATOM     34  C   UNL     1      10.787  11.882  17.702  0.00  0.00    +0.000 A 
ATOM     35  C   UNL     1       9.870  11.644  18.725  0.00  0.00    +0.000 A 
ATOM     36  C   UNL     1       9.087  12.690  19.213  0.00  0.00    +0.000 A 
ENDBRANCH  30  31
ENDBRANCH  27  30
ENDBRANCH   4  24
TORSDOF 5
ENDMDL
MODEL 7
REMARK VINA RESULT:      -7.0      2.954      5.201
REMARK  Name = 
REMARK  5 active torsions:
REMARK  status: ('A' for Active; 'I' for Inactive)
REMARK    1  A    between atoms: C_2  and  C_3
REMARK    2  A    between atoms: C_9  and  N_10
REMARK    3  A    between atoms: N_13  and  C_14
REMARK    4  A    between atoms: C_17  and  O_18
REMARK    5  A    between atoms: O_18  and  C_19
REMARK                            x       y       z     vdW  Elec       q    Type
REMARK                         _______ _______ _______ _____ _____    ______ ____
ROOT
ATOM      1  N   UNL     1       0.390  13.769  21.109  0.00  0.00    +0.000 N 
ATOM      2  C   UNL     1       1.251  12.671  20.876  0.00  0.00    +0.000 A 
ATOM      3  O   UNL     1       2.399  12.529  21.277  0.00  0.00    +0.000 OA
ATOM      4  N   UNL     1       0.534  11.769  20.072  0.00  0.00    +0.000 N 
ATOM      5  C   UNL     1      -0.793  12.195  19.985  0.00  0.00    +0.000 A 
ATOM      6  C   UNL     1      -1.942  11.648  19.469  0.00  0.00    +0.000 A 
ATOM      7  N   UNL     1      -1.981  10.484  18.714  0.00  0.00    +0.000 N 
ATOM      8  N   UNL     1      -3.121  12.260  19.655  0.00  0.00    +0.000 NA
ATOM      9  C   UNL     1      -3.118  13.400  20.381  0.00  0.00    +0.000 A 
ATOM     10  N   UNL     1      -2.050  14.010  20.920  0.00  0.00    +0.000 NA
ATOM     11  C   UNL     1      -0.898  13.391  20.672  0.00  0.00    +0.000 A 
ATOM     12  H   UNL     1      -1.490   9.711  19.151  0.00  0.00    +0.000 HD
ATOM     13  H   UNL     1      -2.952  10.261  18.507  0.00  0.00    +0.000 HD
ENDROOT
BRANCH   1  20
ATOM     14  C   UNL     1      -0.656  16.889  19.007  0.00  0.00    +0.000 C 
ATOM     15  O   UNL     1      -0.315  17.095  17.843  0.00  0.00    +0.000 OA
ATOM     16  N   UNL     1       0.250  16.717  20.041  0.00  0.00    +0.000 N 
ATOM     17  C   UNL     1       1.664  16.967  19.762  0.00  0.00    +0.000 C 
ATOM     18  C   UNL     1       2.523  15.770  20.147  0.00  0.00    +0.000 C 
ATOM     19  C   UNL     1       2.253  15.373  21.601  0.00  0.00    +0.000 C 
ATOM     20  C   UNL     1       0.759  15.000  21.812  0.00  0.00    +0.000 C 
ATOM     21  C   UNL     1      -0.053  16.269  21.415  0.00  0.00    +0.000 C 
BRANCH  14  23
ATOM     22  C   UNL     1      -2.800  17.993  19.425  0.00  0.00    +0.000 C 
ATOM     23  C   UNL     1      -2.101  16.852  19.345  0.00  0.00    +0.000 C 
ENDBRANCH  14  23
ENDBRANCH   1  20
BRANCH   4  24
ATOM     24  C   UNL     1       1.030  10.573  19.571  0.00  0.00    +0.000 A 
ATOM     25  C   UNL     1       1.093   9.445  20.393  0.00  0.00    +0.000 A 
ATOM     26  C   UNL     1       1.640   8.262  19.901  0.00  0.00    +0.000 A 
ATOM     27  C   UNL     1       2.162   8.222  18.608  0.00  0.00    +0.000 A 
ATOM     28  C   UNL     1       2.173   9.375  17.819  0.00  0.00    +0.000 A 
ATOM     29  C   UNL     1       1.569  10.539  18.285  0.00  0.00    +0.000 A 
BRANCH  27  30
ATOM     30  O   UNL     1       2.711   7.021  18.219  0.00  0.00    +0.000 OA
BRANCH  30  31
ATOM     31  C   UNL     1       2.245   5.853  18.776  0.00  0.00    +0.000 A 
ATOM     32  C   UNL     1       1.817   4.879  17.872  0.00  0.00    +0.000 A 
ATOM     33  C   UNL     1       1.337   3.656  18.340  0.00  0.00    +0.000 A 
ATOM     34  C   UNL     1       1.283   3.408  19.709  0.00  0.00    +0.000 A 
ATOM     35  C   UNL     1       1.731   4.369  20.615  0.00  0.00    +0.000 A 
ATOM     36  C   UNL     1       2.237   5.581  20.147  0.00  0.00    +0.000 A 
ENDBRANCH  30  31
ENDBRANCH  27  30
ENDBRANCH   4  24
TORSDOF 5
ENDMDL
MODEL 8
REMARK VINA RESULT:      -7.0      3.151      5.386
REMARK  Name = 
REMARK  5 active torsions:
REMARK  status: ('A' for Active; 'I' for Inactive)
REMARK    1  A    between atoms: C_2  and  C_3
REMARK    2  A    between atoms: C_9  and  N_10
REMARK    3  A    between atoms: N_13  and  C_14
REMARK    4  A    between atoms: C_17  and  O_18
REMARK    5  A    between atoms: O_18  and  C_19
REMARK                            x       y       z     vdW  Elec       q    Type
REMARK                         _______ _______ _______ _____ _____    ______ ____
ROOT
ATOM      1  N   UNL     1       0.548  13.851  21.132  0.00  0.00    +0.000 N 
ATOM      2  C   UNL     1       1.385  12.737  20.889  0.00  0.00    +0.000 A 
ATOM      3  O   UNL     1       2.537  12.576  21.271  0.00  0.00    +0.000 OA
ATOM      4  N   UNL     1       0.639  11.846  20.100  0.00  0.00    +0.000 N 
ATOM      5  C   UNL     1      -0.681  12.295  20.033  0.00  0.00    +0.000 A 
ATOM      6  C   UNL     1      -1.848  11.767  19.538  0.00  0.00    +0.000 A 
ATOM      7  N   UNL     1      -1.921  10.602  18.788  0.00  0.00    +0.000 N 
ATOM      8  N   UNL     1      -3.014  12.401  19.742  0.00  0.00    +0.000 NA
ATOM      9  C   UNL     1      -2.978  13.543  20.464  0.00  0.00    +0.000 A 
ATOM     10  N   UNL     1      -1.890  14.135  20.983  0.00  0.00    +0.000 NA
ATOM     11  C   UNL     1      -0.754  13.495  20.718  0.00  0.00    +0.000 A 
ATOM     12  H   UNL     1      -1.436   9.821  19.219  0.00  0.00    +0.000 HD
ATOM     13  H   UNL     1      -2.899  10.396  18.598  0.00  0.00    +0.000 HD
ENDROOT
BRANCH   1  20
ATOM     14  C   UNL     1      -0.423  16.981  19.010  0.00  0.00    +0.000 C 
ATOM     15  O   UNL     1      -0.080  17.169  17.843  0.00  0.00    +0.000 OA
ATOM     16  N   UNL     1       0.481  16.793  20.043  0.00  0.00    +0.000 N 
ATOM     17  C   UNL     1       1.900  17.004  19.758  0.00  0.00    +0.000 C 
ATOM     18  C   UNL     1       2.729  15.789  20.150  0.00  0.00    +0.000 C 
ATOM     19  C   UNL     1       2.453  15.410  21.607  0.00  0.00    +0.000 C 
ATOM     20  C   UNL     1       0.950  15.077  21.825  0.00  0.00    +0.000 C 
ATOM     21  C   UNL     1       0.171  16.364  21.421  0.00  0.00    +0.000 C 
BRANCH  14  23
ATOM     22  C   UNL     1      -2.598  18.092  19.167  0.00  0.00    +0.000 C 
ATOM     23  C   UNL     1      -1.868  16.984  19.352  0.00  0.00    +0.000 C 
ENDBRANCH  14  23
ENDBRANCH   1  20
BRANCH   4  24
ATOM     24  C   UNL     1       1.105  10.639  19.595  0.00  0.00    +0.000 A 
ATOM     25  C   UNL     1       1.490  10.545  18.256  0.00  0.00    +0.000 A 
ATOM     26  C   UNL     1       1.906   9.318  17.742  0.00  0.00    +0.000 A 
ATOM     27  C   UNL     1       1.893   8.183  18.553  0.00  0.00    +0.000 A 
ATOM     28  C   UNL     1       1.427   8.265  19.869  0.00  0.00    +0.000 A 
ATOM     29  C   UNL     1       1.073   9.500  20.402  0.00  0.00    +0.000 A 
BRANCH  27  30
ATOM     30  O   UNL     1       2.289   7.010  17.953  0.00  0.00    +0.000 OA
BRANCH  30  31
ATOM     31  C   UNL     1       3.595   6.596  18.076  0.00  0.00    +0.000 A 
ATOM     32  C   UNL     1       3.850   5.694  19.110  0.00  0.00    +0.000 A 
ATOM     33  C   UNL     1       5.143   5.208  19.309  0.00  0.00    +0.000 A 
ATOM     34  C   UNL     1       6.178   5.625  18.476  0.00  0.00    +0.000 A 
ATOM     35  C   UNL     1       5.924   6.508  17.428  0.00  0.00    +0.000 A 
ATOM     36  C   UNL     1       4.627   6.973  17.211  0.00  0.00    +0.000 A 
ENDBRANCH  30  31
ENDBRANCH  27  30
ENDBRANCH   4  24
TORSDOF 5
ENDMDL
MODEL 9
REMARK VINA RESULT:      -6.9      0.903      1.478
REMARK  Name = 
REMARK  5 active torsions:
REMARK  status: ('A' for Active; 'I' for Inactive)
REMARK    1  A    between atoms: C_2  and  C_3
REMARK    2  A    between atoms: C_9  and  N_10
REMARK    3  A    between atoms: N_13  and  C_14
REMARK    4  A    between atoms: C_17  and  O_18
REMARK    5  A    between atoms: O_18  and  C_19
REMARK                            x       y       z     vdW  Elec       q    Type
REMARK                         _______ _______ _______ _____ _____    ______ ____
ROOT
ATOM      1  N   UNL     1      -3.239  11.900  18.787  0.00  0.00    +0.000 N 
ATOM      2  C   UNL     1      -2.420  10.799  18.440  0.00  0.00    +0.000 A 
ATOM      3  O   UNL     1      -2.617   9.977  17.555  0.00  0.00    +0.000 OA
ATOM      4  N   UNL     1      -1.332  10.820  19.329  0.00  0.00    +0.000 N 
ATOM      5  C   UNL     1      -1.367  12.009  20.061  0.00  0.00    +0.000 A 
ATOM      6  C   UNL     1      -0.506  12.616  20.941  0.00  0.00    +0.000 A 
ATOM      7  N   UNL     1       0.643  12.022  21.445  0.00  0.00    +0.000 N 
ATOM      8  N   UNL     1      -0.768  13.851  21.395  0.00  0.00    +0.000 NA
ATOM      9  C   UNL     1      -1.882  14.457  20.929  0.00  0.00    +0.000 A 
ATOM     10  N   UNL     1      -2.782  13.945  20.073  0.00  0.00    +0.000 NA
ATOM     11  C   UNL     1      -2.504  12.702  19.686  0.00  0.00    +0.000 A 
ATOM     12  H   UNL     1       1.235  11.626  20.722  0.00  0.00    +0.000 HD
ATOM     13  H   UNL     1       1.134  12.698  22.024  0.00  0.00    +0.000 HD
ENDROOT
BRANCH   1  20
ATOM     14  C   UNL     1      -5.823  12.773  21.580  0.00  0.00    +0.000 C 
ATOM     15  O   UNL     1      -6.093  12.047  22.537  0.00  0.00    +0.000 OA
ATOM     16  N   UNL     1      -5.969  12.372  20.262  0.00  0.00    +0.000 N 
ATOM     17  C   UNL     1      -6.635  11.096  20.004  0.00  0.00    +0.000 C 
ATOM     18  C   UNL     1      -5.774  10.187  19.136  0.00  0.00    +0.000 C 
ATOM     19  C   UNL     1      -5.354  10.921  17.861  0.00  0.00    +0.000 C 
ATOM     20  C   UNL     1      -4.543  12.205  18.193  0.00  0.00    +0.000 C 
ATOM     21  C   UNL     1      -5.488  13.087  19.063  0.00  0.00    +0.000 C 
BRANCH  14  23
ATOM     22  C   UNL     1      -5.950  14.912  22.762  0.00  0.00    +0.000 C 
ATOM     23  C   UNL     1      -5.351  14.158  21.830  0.00  0.00    +0.000 C 
ENDBRANCH  14  23
ENDBRANCH   1  20
BRANCH   4  24
ATOM     24  C   UNL     1      -0.310   9.882  19.366  0.00  0.00    +0.000 A 
ATOM     25  C   UNL     1      -0.115   9.105  20.510  0.00  0.00    +0.000 A 
ATOM     26  C   UNL     1       0.946   8.203  20.561  0.00  0.00    +0.000 A 
ATOM     27  C   UNL     1       1.834   8.113  19.489  0.00  0.00    +0.000 A 
ATOM     28  C   UNL     1       1.684   8.951  18.380  0.00  0.00    +0.000 A 
ATOM     29  C   UNL     1       0.589   9.806  18.301  0.00  0.00    +0.000 A 
BRANCH  27  30
ATOM     30  O   UNL     1       2.869   7.219  19.639  0.00  0.00    +0.000 OA
BRANCH  30  31
ATOM     31  C   UNL     1       2.942   6.124  18.811  0.00  0.00    +0.000 A 
ATOM     32  C   UNL     1       4.137   5.975  18.105  0.00  0.00    +0.000 A 
ATOM     33  C   UNL     1       4.311   4.890  17.247  0.00  0.00    +0.000 A 
ATOM     34  C   UNL     1       3.290   3.954  17.093  0.00  0.00    +0.000 A 
ATOM     35  C   UNL     1       2.103   4.086  17.813  0.00  0.00    +0.000 A 
ATOM     36  C   UNL     1       1.939   5.156  18.692  0.00  0.00    +0.000 A 
ENDBRANCH  30  31
ENDBRANCH  27  30
ENDBRANCH   4  24
TORSDOF 5
ENDMDL
