MODEL 1
REMARK VINA RESULT:      -8.5      0.000      0.000
REMARK  Name = 
REMARK  6 active torsions:
REMARK  status: ('A' for Active; 'I' for Inactive)
REMARK    1  A    between atoms: C_2  and  C_3
REMARK    2  A    between atoms: C_3  and  C_4
REMARK    3  A    between atoms: C_9  and  C_10
REMARK    4  A    between atoms: C_10  and  C_11
REMARK    5  A    between atoms: C_13  and  C_14
REMARK    6  A    between atoms: C_14  and  C_15
REMARK                            x       y       z     vdW  Elec       q    Type
REMARK                         _______ _______ _______ _____ _____    ______ ____
ROOT
ATOM      1  C   UNL     1       4.673   4.916  16.091  0.00  0.00    +0.000 C 
ATOM      2  C   UNL     1       5.701   4.667  14.963  0.00  0.00    +0.000 C 
ATOM      3  C   UNL     1       7.163   4.843  15.385  0.00  0.00    +0.000 C 
ATOM      4  N   UNL     1       7.385   6.159  15.974  0.00  0.00    +0.000 NA
ATOM      5  C   UNL     1       6.624   6.284  17.209  0.00  0.00    +0.000 C 
ATOM      6  C   UNL     1       5.109   6.163  16.961  0.00  0.00    +0.000 C 
ATOM      7  H   UNL     1       7.109   6.886  15.311  0.00  0.00    +0.000 HD
ENDROOT
BRANCH   1   8
ATOM      8  C   UNL     1       4.347   3.609  16.836  0.00  0.00    +0.000 C 
BRANCH   8  10
ATOM      9  O   UNL     1       2.020   3.145  16.729  0.00  0.00    +0.000 OA
ATOM     10  C   UNL     1       2.976   3.264  17.514  0.00  0.00    +0.000 C 
ATOM     11  N   UNL     1       2.789   2.930  18.831  0.00  0.00    +0.000 N 
ATOM     12  C   UNL     1       1.587   2.150  19.213  0.00  0.00    +0.000 C 
ATOM     13  C   UNL     1       0.724   2.853  20.270  0.00  0.00    +0.000 C 
ATOM     14  O   UNL     1       1.514   3.230  21.410  0.00  0.00    +0.000 OA
ATOM     15  C   UNL     1       2.601   4.078  21.013  0.00  0.00    +0.000 C 
ATOM     16  C   UNL     1       3.540   3.361  20.019  0.00  0.00    +0.000 C 
ENDBRANCH   8  10
ENDBRANCH   1   8
BRANCH   6  17
ATOM     17  C   UNL     1       4.372   6.365  18.309  0.00  0.00    +0.000 C 
BRANCH  17  18
ATOM     18  C   UNL     1       3.306   7.416  18.241  0.00  0.00    +0.000 A 
ATOM     19  C   UNL     1       2.312   7.685  19.211  0.00  0.00    +0.000 A 
ATOM     20  C   UNL     1       1.642   8.782  18.720  0.00  0.00    +0.000 A 
ATOM     21  O   UNL     1       2.160   9.103  17.506  0.00  0.00    +0.000 OA
ATOM     22  N   UNL     1       3.200   8.239  17.202  0.00  0.00    +0.000 NA
BRANCH  20  23
ATOM     23  C   UNL     1       0.479   9.577  19.228  0.00  0.00    +0.000 C 
BRANCH  23  24
ATOM     24  C   UNL     1       0.760  10.386  20.530  0.00  0.00    +0.000 C 
ATOM     25  C   UNL     1      -0.132  11.639  20.717  0.00  0.00    +0.000 C 
ATOM     26  C   UNL     1      -1.224  11.628  21.798  0.00  0.00    +0.000 C 
ATOM     27  C   UNL     1      -0.960  10.746  23.009  0.00  0.00    +0.000 C 
ATOM     28  C   UNL     1      -0.461   9.375  22.598  0.00  0.00    +0.000 C 
ATOM     29  C   UNL     1       0.808   9.458  21.763  0.00  0.00    +0.000 C 
ENDBRANCH  23  24
ENDBRANCH  20  23
ENDBRANCH  17  18
ENDBRANCH   6  17
TORSDOF 6
ENDMDL
MODEL 2
REMARK VINA RESULT:      -8.5      1.400      2.070
REMARK  Name = 
REMARK  6 active torsions:
REMARK  status: ('A' for Active; 'I' for Inactive)
REMARK    1  A    between atoms: C_2  and  C_3
REMARK    2  A    between atoms: C_3  and  C_4
REMARK    3  A    between atoms: C_9  and  C_10
REMARK    4  A    between atoms: C_10  and  C_11
REMARK    5  A    between atoms: C_13  and  C_14
REMARK    6  A    between atoms: C_14  and  C_15
REMARK                            x       y       z     vdW  Elec       q    Type
REMARK                         _______ _______ _______ _____ _____    ______ ____
ROOT
ATOM      1  C   UNL     1       4.656   4.988  16.170  0.00  0.00    +0.000 C 
ATOM      2  C   UNL     1       5.724   4.748  15.077  0.00  0.00    +0.000 C 
ATOM      3  C   UNL     1       7.169   4.948  15.546  0.00  0.00    +0.000 C 
ATOM      4  N   UNL     1       7.352   6.270  16.134  0.00  0.00    +0.000 NA
ATOM      5  C   UNL     1       6.549   6.391  17.342  0.00  0.00    +0.000 C 
ATOM      6  C   UNL     1       5.045   6.247  17.046  0.00  0.00    +0.000 C 
ATOM      7  H   UNL     1       7.087   6.989  15.457  0.00  0.00    +0.000 HD
ENDROOT
BRANCH   1   8
ATOM      8  C   UNL     1       4.325   3.681  16.912  0.00  0.00    +0.000 C 
BRANCH   8  10
ATOM      9  O   UNL     1       2.010   3.189  16.725  0.00  0.00    +0.000 OA
ATOM     10  C   UNL     1       2.937   3.317  17.542  0.00  0.00    +0.000 C 
ATOM     11  N   UNL     1       2.711   2.976  18.851  0.00  0.00    +0.000 N 
ATOM     12  C   UNL     1       1.506   2.181  19.190  0.00  0.00    +0.000 C 
ATOM     13  C   UNL     1       0.600   2.870  20.221  0.00  0.00    +0.000 C 
ATOM     14  O   UNL     1       1.347   3.252  21.388  0.00  0.00    +0.000 OA
ATOM     15  C   UNL     1       2.437   4.114  21.030  0.00  0.00    +0.000 C 
ATOM     16  C   UNL     1       3.416   3.412  20.065  0.00  0.00    +0.000 C 
ENDBRANCH   8  10
ENDBRANCH   1   8
BRANCH   6  17
ATOM     17  C   UNL     1       4.261   6.445  18.368  0.00  0.00    +0.000 C 
BRANCH  17  18
ATOM     18  C   UNL     1       3.192   7.489  18.262  0.00  0.00    +0.000 A 
ATOM     19  C   UNL     1       2.225   7.820  19.240  0.00  0.00    +0.000 A 
ATOM     20  C   UNL     1       1.539   8.883  18.699  0.00  0.00    +0.000 A 
ATOM     21  O   UNL     1       2.022   9.125  17.452  0.00  0.00    +0.000 OA
ATOM     22  N   UNL     1       3.056   8.243  17.176  0.00  0.00    +0.000 NA
BRANCH  20  23
ATOM     23  C   UNL     1       0.390   9.708  19.187  0.00  0.00    +0.000 C 
BRANCH  23  24
ATOM     24  C   UNL     1      -0.362  10.502  18.076  0.00  0.00    +0.000 C 
ATOM     25  C   UNL     1      -1.462   9.698  17.341  0.00  0.00    +0.000 C 
ATOM     26  C   UNL     1      -2.939  10.037  17.599  0.00  0.00    +0.000 C 
ATOM     27  C   UNL     1      -3.239  11.477  17.986  0.00  0.00    +0.000 C 
ATOM     28  C   UNL     1      -2.278  11.977  19.047  0.00  0.00    +0.000 C 
ATOM     29  C   UNL     1      -0.829  11.879  18.595  0.00  0.00    +0.000 C 
ENDBRANCH  23  24
ENDBRANCH  20  23
ENDBRANCH  17  18
ENDBRANCH   6  17
TORSDOF 6
ENDMDL
MODEL 3
REMARK VINA RESULT:      -8.3      1.632      1.890
REMARK  Name = 
REMARK  6 active torsions:
REMARK  status: ('A' for Active; 'I' for Inactive)
REMARK    1  A    between atoms: C_2  and  C_3
REMARK    2  A    between atoms: C_3  and  C_4
REMARK    3  A    between atoms: C_9  and  C_10
REMARK    4  A    between atoms: C_10  and  C_11
REMARK    5  A    between atoms: C_13  and  C_14
REMARK    6  A    between atoms: C_14  and  C_15
REMARK                            x       y       z     vdW  Elec       q    Type
REMARK                         _______ _______ _______ _____ _____    ______ ____
ROOT
ATOM      1  C   UNL     1       4.657   4.848  16.054  0.00  0.00    +0.000 C 
ATOM      2  C   UNL     1       5.495   4.633  14.772  0.00  0.00    +0.000 C 
ATOM      3  C   UNL     1       6.997   4.460  15.016  0.00  0.00    +0.000 C 
ATOM      4  N   UNL     1       7.539   5.578  15.779  0.00  0.00    +0.000 NA
ATOM      5  C   UNL     1       6.947   5.604  17.108  0.00  0.00    +0.000 C 
ATOM      6  C   UNL     1       5.422   5.809  17.051  0.00  0.00    +0.000 C 
ATOM      7  H   UNL     1       7.350   6.455  15.288  0.00  0.00    +0.000 HD
ENDROOT
BRANCH   1   8
ATOM      8  C   UNL     1       4.151   3.505  16.610  0.00  0.00    +0.000 C 
BRANCH   8  10
ATOM      9  O   UNL     1       1.802   3.647  16.926  0.00  0.00    +0.000 OA
ATOM     10  C   UNL     1       2.861   3.306  17.479  0.00  0.00    +0.000 C 
ATOM     11  N   UNL     1       2.793   2.657  18.685  0.00  0.00    +0.000 N 
ATOM     12  C   UNL     1       1.493   2.102  19.132  0.00  0.00    +0.000 C 
ATOM     13  C   UNL     1       1.042   2.647  20.495  0.00  0.00    +0.000 C 
ATOM     14  O   UNL     1       2.073   2.480  21.481  0.00  0.00    +0.000 OA
ATOM     15  C   UNL     1       3.282   3.130  21.062  0.00  0.00    +0.000 C 
ATOM     16  C   UNL     1       3.810   2.536  19.739  0.00  0.00    +0.000 C 
ENDBRANCH   8  10
ENDBRANCH   1   8
BRANCH   6  17
ATOM     17  C   UNL     1       4.880   5.883  18.501  0.00  0.00    +0.000 C 
BRANCH  17  18
ATOM     18  C   UNL     1       3.692   6.786  18.636  0.00  0.00    +0.000 A 
ATOM     19  C   UNL     1       3.316   7.834  17.765  0.00  0.00    +0.000 A 
ATOM     20  C   UNL     1       2.125   8.295  18.276  0.00  0.00    +0.000 A 
ATOM     21  O   UNL     1       1.845   7.611  19.416  0.00  0.00    +0.000 OA
ATOM     22  N   UNL     1       2.836   6.668  19.646  0.00  0.00    +0.000 NA
BRANCH  20  23
ATOM     23  C   UNL     1       1.193   9.390  17.860  0.00  0.00    +0.000 C 
BRANCH  23  24
ATOM     24  C   UNL     1       0.710  10.313  19.020  0.00  0.00    +0.000 C 
ATOM     25  C   UNL     1       1.233  11.769  18.946  0.00  0.00    +0.000 C 
ATOM     26  C   UNL     1       0.257  12.899  18.583  0.00  0.00    +0.000 C 
ATOM     27  C   UNL     1      -1.199  12.677  18.963  0.00  0.00    +0.000 C 
ATOM     28  C   UNL     1      -1.666  11.287  18.577  0.00  0.00    +0.000 C 
ATOM     29  C   UNL     1      -0.817  10.201  19.221  0.00  0.00    +0.000 C 
ENDBRANCH  23  24
ENDBRANCH  20  23
ENDBRANCH  17  18
ENDBRANCH   6  17
TORSDOF 6
ENDMDL
MODEL 4
REMARK VINA RESULT:      -8.2      4.205      6.255
REMARK  Name = 
REMARK  6 active torsions:
REMARK  status: ('A' for Active; 'I' for Inactive)
REMARK    1  A    between atoms: C_2  and  C_3
REMARK    2  A    between atoms: C_3  and  C_4
REMARK    3  A    between atoms: C_9  and  C_10
REMARK    4  A    between atoms: C_10  and  C_11
REMARK    5  A    between atoms: C_13  and  C_14
REMARK    6  A    between atoms: C_14  and  C_15
REMARK                            x       y       z     vdW  Elec       q    Type
REMARK                         _______ _______ _______ _____ _____    ______ ____
ROOT
ATOM      1  C   UNL     1       5.271   4.913  16.358  0.00  0.00    +0.000 C 
ATOM      2  C   UNL     1       4.829   4.491  14.938  0.00  0.00    +0.000 C 
ATOM      3  C   UNL     1       5.964   3.979  14.045  0.00  0.00    +0.000 C 
ATOM      4  N   UNL     1       7.045   4.954  13.957  0.00  0.00    +0.000 NA
ATOM      5  C   UNL     1       7.655   5.137  15.266  0.00  0.00    +0.000 C 
ATOM      6  C   UNL     1       6.649   5.688  16.293  0.00  0.00    +0.000 C 
ATOM      7  H   UNL     1       6.680   5.843  13.607  0.00  0.00    +0.000 HD
ENDROOT
BRANCH   1   8
ATOM      8  C   UNL     1       5.165   3.733  17.341  0.00  0.00    +0.000 C 
BRANCH   8  10
ATOM      9  O   UNL     1       3.319   2.265  17.618  0.00  0.00    +0.000 OA
ATOM     10  C   UNL     1       3.862   3.281  18.085  0.00  0.00    +0.000 C 
ATOM     11  N   UNL     1       3.386   3.796  19.263  0.00  0.00    +0.000 N 
ATOM     12  C   UNL     1       2.479   2.970  20.096  0.00  0.00    +0.000 C 
ATOM     13  C   UNL     1       1.131   3.650  20.375  0.00  0.00    +0.000 C 
ATOM     14  O   UNL     1       1.322   4.966  20.918  0.00  0.00    +0.000 OA
ATOM     15  C   UNL     1       2.109   5.771  20.028  0.00  0.00    +0.000 C 
ATOM     16  C   UNL     1       3.508   5.157  19.804  0.00  0.00    +0.000 C 
ENDBRANCH   8  10
ENDBRANCH   1   8
BRANCH   6  17
ATOM     17  C   UNL     1       7.389   5.908  17.637  0.00  0.00    +0.000 C 
BRANCH  17  18
ATOM     18  C   UNL     1       7.731   7.345  17.888  0.00  0.00    +0.000 A 
ATOM     19  C   UNL     1       8.570   7.856  18.904  0.00  0.00    +0.000 A 
ATOM     20  C   UNL     1       8.625   9.209  18.658  0.00  0.00    +0.000 A 
ATOM     21  O   UNL     1       7.815   9.493  17.604  0.00  0.00    +0.000 OA
ATOM     22  N   UNL     1       7.248   8.322  17.126  0.00  0.00    +0.000 NA
BRANCH  20  23
ATOM     23  C   UNL     1       9.316  10.343  19.348  0.00  0.00    +0.000 C 
BRANCH  23  24
ATOM     24  C   UNL     1      10.176  11.249  18.414  0.00  0.00    +0.000 C 
ATOM     25  C   UNL     1       9.460  12.530  17.920  0.00  0.00    +0.000 C 
ATOM     26  C   UNL     1       9.896  13.895  18.475  0.00  0.00    +0.000 C 
ATOM     27  C   UNL     1      11.348  14.007  18.915  0.00  0.00    +0.000 C 
ATOM     28  C   UNL     1      11.764  12.817  19.757  0.00  0.00    +0.000 C 
ATOM     29  C   UNL     1      11.574  11.502  19.018  0.00  0.00    +0.000 C 
ENDBRANCH  23  24
ENDBRANCH  20  23
ENDBRANCH  17  18
ENDBRANCH   6  17
TORSDOF 6
ENDMDL
MODEL 5
REMARK VINA RESULT:      -8.1      4.652      6.527
REMARK  Name = 
REMARK  6 active torsions:
REMARK  status: ('A' for Active; 'I' for Inactive)
REMARK    1  A    between atoms: C_2  and  C_3
REMARK    2  A    between atoms: C_3  and  C_4
REMARK    3  A    between atoms: C_9  and  C_10
REMARK    4  A    between atoms: C_10  and  C_11
REMARK    5  A    between atoms: C_13  and  C_14
REMARK    6  A    between atoms: C_14  and  C_15
REMARK                            x       y       z     vdW  Elec       q    Type
REMARK                         _______ _______ _______ _____ _____    ______ ____
ROOT
ATOM      1  C   UNL     1       5.622   6.362  16.921  0.00  0.00    +0.000 C 
ATOM      2  C   UNL     1       5.060   5.434  15.818  0.00  0.00    +0.000 C 
ATOM      3  C   UNL     1       5.551   3.985  15.896  0.00  0.00    +0.000 C 
ATOM      4  N   UNL     1       7.008   3.923  15.900  0.00  0.00    +0.000 NA
ATOM      5  C   UNL     1       7.528   4.557  17.102  0.00  0.00    +0.000 C 
ATOM      6  C   UNL     1       7.152   6.048  17.171  0.00  0.00    +0.000 C 
ATOM      7  H   UNL     1       7.376   4.386  15.066  0.00  0.00    +0.000 HD
ENDROOT
BRANCH   1   8
ATOM      8  C   UNL     1       4.691   6.384  18.147  0.00  0.00    +0.000 C 
BRANCH   8  10
ATOM      9  O   UNL     1       2.325   6.390  17.952  0.00  0.00    +0.000 OA
ATOM     10  C   UNL     1       3.298   5.674  18.246  0.00  0.00    +0.000 C 
ATOM     11  N   UNL     1       3.087   4.336  18.458  0.00  0.00    +0.000 N 
ATOM     12  C   UNL     1       1.805   3.731  18.027  0.00  0.00    +0.000 C 
ATOM     13  C   UNL     1       1.046   3.045  19.173  0.00  0.00    +0.000 C 
ATOM     14  O   UNL     1       1.890   2.105  19.857  0.00  0.00    +0.000 OA
ATOM     15  C   UNL     1       3.067   2.754  20.359  0.00  0.00    +0.000 C 
ATOM     16  C   UNL     1       3.900   3.372  19.215  0.00  0.00    +0.000 C 
ENDBRANCH   8  10
ENDBRANCH   1   8
BRANCH   6  17
ATOM     17  C   UNL     1       7.790   6.660  18.444  0.00  0.00    +0.000 C 
BRANCH  17  18
ATOM     18  C   UNL     1       8.098   8.119  18.301  0.00  0.00    +0.000 A 
ATOM     19  C   UNL     1       8.936   8.898  19.132  0.00  0.00    +0.000 A 
ATOM     20  C   UNL     1       8.953  10.138  18.537  0.00  0.00    +0.000 A 
ATOM     21  O   UNL     1       8.124  10.117  17.460  0.00  0.00    +0.000 OA
ATOM     22  N   UNL     1       7.581   8.849  17.318  0.00  0.00    +0.000 NA
BRANCH  20  23
ATOM     23  C   UNL     1       9.622  11.430  18.891  0.00  0.00    +0.000 C 
BRANCH  23  24
ATOM     24  C   UNL     1       9.606  12.505  17.762  0.00  0.00    +0.000 C 
ATOM     25  C   UNL     1       8.871  13.817  18.131  0.00  0.00    +0.000 C 
ATOM     26  C   UNL     1       9.692  15.095  18.368  0.00  0.00    +0.000 C 
ATOM     27  C   UNL     1      11.009  15.196  17.614  0.00  0.00    +0.000 C 
ATOM     28  C   UNL     1      11.801  13.907  17.707  0.00  0.00    +0.000 C 
ATOM     29  C   UNL     1      11.018  12.717  17.174  0.00  0.00    +0.000 C 
ENDBRANCH  23  24
ENDBRANCH  20  23
ENDBRANCH  17  18
ENDBRANCH   6  17
TORSDOF 6
ENDMDL
MODEL 6
REMARK VINA RESULT:      -8.0      0.691      1.188
REMARK  Name = 
REMARK  6 active torsions:
REMARK  status: ('A' for Active; 'I' for Inactive)
REMARK    1  A    between atoms: C_2  and  C_3
REMARK    2  A    between atoms: C_3  and  C_4
REMARK    3  A    between atoms: C_9  and  C_10
REMARK    4  A    between atoms: C_10  and  C_11
REMARK    5  A    between atoms: C_13  and  C_14
REMARK    6  A    between atoms: C_14  and  C_15
REMARK                            x       y       z     vdW  Elec       q    Type
REMARK                         _______ _______ _______ _____ _____    ______ ____
ROOT
ATOM      1  C   UNL     1       4.596   4.922  16.235  0.00  0.00    +0.000 C 
ATOM      2  C   UNL     1       5.929   4.888  15.452  0.00  0.00    +0.000 C 
ATOM      3  C   UNL     1       7.131   5.452  16.218  0.00  0.00    +0.000 C 
ATOM      4  N   UNL     1       6.867   6.808  16.686  0.00  0.00    +0.000 NA
ATOM      5  C   UNL     1       5.781   6.794  17.655  0.00  0.00    +0.000 C 
ATOM      6  C   UNL     1       4.468   6.280  17.037  0.00  0.00    +0.000 C 
ATOM      7  H   UNL     1       6.629   7.407  15.893  0.00  0.00    +0.000 HD
ENDROOT
BRANCH   1   8
ATOM      8  C   UNL     1       4.385   3.613  17.017  0.00  0.00    +0.000 C 
BRANCH   8  10
ATOM      9  O   UNL     1       2.128   2.888  16.873  0.00  0.00    +0.000 OA
ATOM     10  C   UNL     1       3.039   3.152  17.676  0.00  0.00    +0.000 C 
ATOM     11  N   UNL     1       2.847   2.866  19.003  0.00  0.00    +0.000 N 
ATOM     12  C   UNL     1       1.727   1.978  19.394  0.00  0.00    +0.000 C 
ATOM     13  C   UNL     1       0.758   2.632  20.390  0.00  0.00    +0.000 C 
ATOM     14  O   UNL     1       1.465   3.151  21.528  0.00  0.00    +0.000 OA
ATOM     15  C   UNL     1       2.465   4.094  21.115  0.00  0.00    +0.000 C 
ATOM     16  C   UNL     1       3.508   3.437  20.186  0.00  0.00    +0.000 C 
ENDBRANCH   8  10
ENDBRANCH   1   8
BRANCH   6  17
ATOM     17  C   UNL     1       3.355   6.353  18.112  0.00  0.00    +0.000 C 
BRANCH  17  18
ATOM     18  C   UNL     1       2.681   7.690  18.167  0.00  0.00    +0.000 A 
ATOM     19  C   UNL     1       2.040   8.275  19.283  0.00  0.00    +0.000 A 
ATOM     20  C   UNL     1       1.662   9.524  18.847  0.00  0.00    +0.000 A 
ATOM     21  O   UNL     1       1.997   9.648  17.536  0.00  0.00    +0.000 OA
ATOM     22  N   UNL     1       2.630   8.491  17.108  0.00  0.00    +0.000 NA
BRANCH  20  23
ATOM     23  C   UNL     1       0.935  10.656  19.503  0.00  0.00    +0.000 C 
BRANCH  23  24
ATOM     24  C   UNL     1      -0.360  10.244  20.268  0.00  0.00    +0.000 C 
ATOM     25  C   UNL     1      -0.130   9.261  21.442  0.00  0.00    +0.000 C 
ATOM     26  C   UNL     1      -0.283   9.766  22.885  0.00  0.00    +0.000 C 
ATOM     27  C   UNL     1      -1.251  10.920  23.093  0.00  0.00    +0.000 C 
ATOM     28  C   UNL     1      -1.047  12.009  22.058  0.00  0.00    +0.000 C 
ATOM     29  C   UNL     1      -1.204  11.483  20.640  0.00  0.00    +0.000 C 
ENDBRANCH  23  24
ENDBRANCH  20  23
ENDBRANCH  17  18
ENDBRANCH   6  17
TORSDOF 6
ENDMDL
MODEL 7
REMARK VINA RESULT:      -8.0      1.924      4.467
REMARK  Name = 
REMARK  6 active torsions:
REMARK  status: ('A' for Active; 'I' for Inactive)
REMARK    1  A    between atoms: C_2  and  C_3
REMARK    2  A    between atoms: C_3  and  C_4
REMARK    3  A    between atoms: C_9  and  C_10
REMARK    4  A    between atoms: C_10  and  C_11
REMARK    5  A    between atoms: C_13  and  C_14
REMARK    6  A    between atoms: C_14  and  C_15
REMARK                            x       y       z     vdW  Elec       q    Type
REMARK                         _______ _______ _______ _____ _____    ______ ____
ROOT
ATOM      1  C   UNL     1       2.964   3.885  19.847  0.00  0.00    +0.000 C 
ATOM      2  C   UNL     1       2.046   2.660  20.067  0.00  0.00    +0.000 C 
ATOM      3  C   UNL     1       1.318   2.177  18.809  0.00  0.00    +0.000 C 
ATOM      4  N   UNL     1       0.558   3.260  18.193  0.00  0.00    +0.000 NA
ATOM      5  C   UNL     1       1.466   4.297  17.723  0.00  0.00    +0.000 C 
ATOM      6  C   UNL     1       2.265   4.924  18.880  0.00  0.00    +0.000 C 
ATOM      7  H   UNL     1      -0.104   3.646  18.869  0.00  0.00    +0.000 HD
ENDROOT
BRANCH   1   8
ATOM      8  C   UNL     1       4.397   3.443  19.500  0.00  0.00    +0.000 C 
BRANCH   8  10
ATOM      9  O   UNL     1       6.097   5.075  19.782  0.00  0.00    +0.000 OA
ATOM     10  C   UNL     1       5.525   4.371  18.933  0.00  0.00    +0.000 C 
ATOM     11  N   UNL     1       6.025   4.346  17.656  0.00  0.00    +0.000 N 
ATOM     12  C   UNL     1       7.383   4.884  17.404  0.00  0.00    +0.000 C 
ATOM     13  C   UNL     1       7.402   6.005  16.355  0.00  0.00    +0.000 C 
ATOM     14  O   UNL     1       6.747   5.588  15.146  0.00  0.00    +0.000 OA
ATOM     15  C   UNL     1       5.397   5.184  15.416  0.00  0.00    +0.000 C 
ATOM     16  C   UNL     1       5.352   3.993  16.398  0.00  0.00    +0.000 C 
ENDBRANCH   8  10
ENDBRANCH   1   8
BRANCH   6  17
ATOM     17  C   UNL     1       3.159   6.052  18.306  0.00  0.00    +0.000 C 
BRANCH  17  18
ATOM     18  C   UNL     1       2.515   7.403  18.381  0.00  0.00    +0.000 A 
ATOM     19  C   UNL     1       2.023   8.049  19.538  0.00  0.00    +0.000 A 
ATOM     20  C   UNL     1       1.612   9.284  19.094  0.00  0.00    +0.000 A 
ATOM     21  O   UNL     1       1.785   9.344  17.747  0.00  0.00    +0.000 OA
ATOM     22  N   UNL     1       2.346   8.157  17.299  0.00  0.00    +0.000 NA
BRANCH  20  23
ATOM     23  C   UNL     1       0.985  10.458  19.780  0.00  0.00    +0.000 C 
BRANCH  23  24
ATOM     24  C   UNL     1      -0.374  10.155  20.481  0.00  0.00    +0.000 C 
ATOM     25  C   UNL     1      -0.261   9.289  21.760  0.00  0.00    +0.000 C 
ATOM     26  C   UNL     1      -0.504   9.939  23.131  0.00  0.00    +0.000 C 
ATOM     27  C   UNL     1      -1.449  11.131  23.151  0.00  0.00    +0.000 C 
ATOM     28  C   UNL     1      -1.136  12.105  22.033  0.00  0.00    +0.000 C 
ATOM     29  C   UNL     1      -1.205  11.444  20.665  0.00  0.00    +0.000 C 
ENDBRANCH  23  24
ENDBRANCH  20  23
ENDBRANCH  17  18
ENDBRANCH   6  17
TORSDOF 6
ENDMDL
MODEL 8
REMARK VINA RESULT:      -8.0      1.786      2.500
REMARK  Name = 
REMARK  6 active torsions:
REMARK  status: ('A' for Active; 'I' for Inactive)
REMARK    1  A    between atoms: C_2  and  C_3
REMARK    2  A    between atoms: C_3  and  C_4
REMARK    3  A    between atoms: C_9  and  C_10
REMARK    4  A    between atoms: C_10  and  C_11
REMARK    5  A    between atoms: C_13  and  C_14
REMARK    6  A    between atoms: C_14  and  C_15
REMARK                            x       y       z     vdW  Elec       q    Type
REMARK                         _______ _______ _______ _____ _____    ______ ____
ROOT
ATOM      1  C   UNL     1       4.552   5.273  16.202  0.00  0.00    +0.000 C 
ATOM      2  C   UNL     1       5.710   5.082  15.195  0.00  0.00    +0.000 C 
ATOM      3  C   UNL     1       7.109   5.244  15.799  0.00  0.00    +0.000 C 
ATOM      4  N   UNL     1       7.246   6.532  16.471  0.00  0.00    +0.000 NA
ATOM      5  C   UNL     1       6.340   6.594  17.609  0.00  0.00    +0.000 C 
ATOM      6  C   UNL     1       4.868   6.480  17.175  0.00  0.00    +0.000 C 
ATOM      7  H   UNL     1       7.044   7.288  15.813  0.00  0.00    +0.000 HD
ENDROOT
BRANCH   1   8
ATOM      8  C   UNL     1       4.152   3.931  16.840  0.00  0.00    +0.000 C 
BRANCH   8  10
ATOM      9  O   UNL     1       5.147   3.448  18.941  0.00  0.00    +0.000 OA
ATOM     10  C   UNL     1       4.057   3.646  18.379  0.00  0.00    +0.000 C 
ATOM     11  N   UNL     1       2.931   3.761  19.153  0.00  0.00    +0.000 N 
ATOM     12  C   UNL     1       3.078   3.966  20.614  0.00  0.00    +0.000 C 
ATOM     13  C   UNL     1       2.370   2.889  21.448  0.00  0.00    +0.000 C 
ATOM     14  O   UNL     1       0.995   2.755  21.053  0.00  0.00    +0.000 OA
ATOM     15  C   UNL     1       0.900   2.443  19.655  0.00  0.00    +0.000 C 
ATOM     16  C   UNL     1       1.522   3.557  18.786  0.00  0.00    +0.000 C 
ENDBRANCH   8  10
ENDBRANCH   1   8
BRANCH   6  17
ATOM     17  C   UNL     1       3.971   6.614  18.432  0.00  0.00    +0.000 C 
BRANCH  17  18
ATOM     18  C   UNL     1       2.956   7.709  18.312  0.00  0.00    +0.000 A 
ATOM     19  C   UNL     1       1.988   8.082  19.273  0.00  0.00    +0.000 A 
ATOM     20  C   UNL     1       1.365   9.180  18.725  0.00  0.00    +0.000 A 
ATOM     21  O   UNL     1       1.883   9.403  17.489  0.00  0.00    +0.000 OA
ATOM     22  N   UNL     1       2.877   8.473  17.227  0.00  0.00    +0.000 NA
BRANCH  20  23
ATOM     23  C   UNL     1       0.248  10.058  19.196  0.00  0.00    +0.000 C 
BRANCH  23  24
ATOM     24  C   UNL     1      -0.590  10.715  18.057  0.00  0.00    +0.000 C 
ATOM     25  C   UNL     1      -1.551   9.746  17.323  0.00  0.00    +0.000 C 
ATOM     26  C   UNL     1      -3.065   9.874  17.552  0.00  0.00    +0.000 C 
ATOM     27  C   UNL     1      -3.575  11.263  17.905  0.00  0.00    +0.000 C 
ATOM     28  C   UNL     1      -2.715  11.916  18.969  0.00  0.00    +0.000 C 
ATOM     29  C   UNL     1      -1.260  12.020  18.540  0.00  0.00    +0.000 C 
ENDBRANCH  23  24
ENDBRANCH  20  23
ENDBRANCH  17  18
ENDBRANCH   6  17
TORSDOF 6
ENDMDL
MODEL 9
REMARK VINA RESULT:      -8.0      1.190      1.417
REMARK  Name = 
REMARK  6 active torsions:
REMARK  status: ('A' for Active; 'I' for Inactive)
REMARK    1  A    between atoms: C_2  and  C_3
REMARK    2  A    between atoms: C_3  and  C_4
REMARK    3  A    between atoms: C_9  and  C_10
REMARK    4  A    between atoms: C_10  and  C_11
REMARK    5  A    between atoms: C_13  and  C_14
REMARK    6  A    between atoms: C_14  and  C_15
REMARK                            x       y       z     vdW  Elec       q    Type
REMARK                         _______ _______ _______ _____ _____    ______ ____
ROOT
ATOM      1  C   UNL     1       4.697   4.737  15.890  0.00  0.00    +0.000 C 
ATOM      2  C   UNL     1       5.303   4.361  14.517  0.00  0.00    +0.000 C 
ATOM      3  C   UNL     1       6.825   4.192  14.519  0.00  0.00    +0.000 C 
ATOM      4  N   UNL     1       7.486   5.383  15.041  0.00  0.00    +0.000 NA
ATOM      5  C   UNL     1       7.131   5.573  16.440  0.00  0.00    +0.000 C 
ATOM      6  C   UNL     1       5.618   5.795  16.621  0.00  0.00    +0.000 C 
ATOM      7  H   UNL     1       7.212   6.200  14.491  0.00  0.00    +0.000 HD
ENDROOT
BRANCH   1   8
ATOM      8  C   UNL     1       4.298   3.476  16.678  0.00  0.00    +0.000 C 
BRANCH   8  10
ATOM      9  O   UNL     1       1.934   3.630  16.841  0.00  0.00    +0.000 OA
ATOM     10  C   UNL     1       2.954   3.276  17.458  0.00  0.00    +0.000 C 
ATOM     11  N   UNL     1       2.803   2.613  18.649  0.00  0.00    +0.000 N 
ATOM     12  C   UNL     1       1.473   2.062  19.003  0.00  0.00    +0.000 C 
ATOM     13  C   UNL     1       0.937   2.594  20.340  0.00  0.00    +0.000 C 
ATOM     14  O   UNL     1       1.900   2.408  21.389  0.00  0.00    +0.000 OA
ATOM     15  C   UNL     1       3.138   3.055  21.058  0.00  0.00    +0.000 C 
ATOM     16  C   UNL     1       3.748   2.472  19.765  0.00  0.00    +0.000 C 
ENDBRANCH   8  10
ENDBRANCH   1   8
BRANCH   6  17
ATOM     17  C   UNL     1       5.333   6.046  18.124  0.00  0.00    +0.000 C 
BRANCH  17  18
ATOM     18  C   UNL     1       4.016   6.720  18.364  0.00  0.00    +0.000 A 
ATOM     19  C   UNL     1       3.516   7.870  17.712  0.00  0.00    +0.000 A 
ATOM     20  C   UNL     1       2.251   8.034  18.225  0.00  0.00    +0.000 A 
ATOM     21  O   UNL     1       2.037   7.083  19.172  0.00  0.00    +0.000 OA
ATOM     22  N   UNL     1       3.151   6.262  19.264  0.00  0.00    +0.000 NA
BRANCH  20  23
ATOM     23  C   UNL     1       1.177   9.050  17.987  0.00  0.00    +0.000 C 
BRANCH  23  24
ATOM     24  C   UNL     1       1.198  10.263  18.966  0.00  0.00    +0.000 C 
ATOM     25  C   UNL     1       0.267  11.433  18.564  0.00  0.00    +0.000 C 
ATOM     26  C   UNL     1      -1.006  11.695  19.383  0.00  0.00    +0.000 C 
ATOM     27  C   UNL     1      -0.959  11.286  20.847  0.00  0.00    +0.000 C 
ATOM     28  C   UNL     1      -0.369   9.899  21.016  0.00  0.00    +0.000 C 
ATOM     29  C   UNL     1       1.031   9.800  20.430  0.00  0.00    +0.000 C 
ENDBRANCH  23  24
ENDBRANCH  20  23
ENDBRANCH  17  18
ENDBRANCH   6  17
TORSDOF 6
ENDMDL
