MODEL 1
REMARK VINA RESULT:      -7.1      0.000      0.000
REMARK  Name = 
REMARK  5 active torsions:
REMARK  status: ('A' for Active; 'I' for Inactive)
REMARK    1  A    between atoms: C_1  and  O_2
REMARK    2  A    between atoms: O_2  and  C_3
REMARK    3  A    between atoms: C_4  and  S_5
REMARK    4  A    between atoms: S_5  and  C_6
REMARK    5  A    between atoms: C_16  and  C_17
REMARK                            x       y       z     vdW  Elec       q    Type
REMARK                         _______ _______ _______ _____ _____    ______ ____
ROOT
ATOM      1  C   UNL     1       6.175   4.501  18.577  0.00  0.00    +0.000 C 
ATOM      2  C   UNL     1       4.875   4.194  18.286  0.00  0.00    +0.000 C 
ATOM      3  C   UNL     1       4.502   3.891  16.864  0.00  0.00    +0.000 C 
ATOM      4  O   UNL     1       3.340   3.655  16.556  0.00  0.00    +0.000 OA
ATOM      5  C   UNL     1       5.535   4.084  15.813  0.00  0.00    +0.000 A 
ATOM      6 SE   UNL     1       5.286   4.289  14.020  0.00  0.00    +0.000 Se
ATOM      7  C   UNL     1       7.070   4.740  14.023  0.00  0.00    +0.000 A 
ATOM      8  C   UNL     1       7.795   5.395  12.900  0.00  0.00    +0.000 C 
ATOM      9  N   UNL     1       7.689   4.612  15.200  0.00  0.00    +0.000 NA
ATOM     10  C   UNL     1       6.835   4.280  16.170  0.00  0.00    +0.000 A 
ATOM     11  C   UNL     1       7.239   4.332  17.549  0.00  0.00    +0.000 C 
ATOM     12  O   UNL     1       8.421   4.404  17.847  0.00  0.00    +0.000 OA
ENDROOT
BRANCH   1  14
ATOM     13  C   UNL     1       7.632   5.944  19.751  0.00  0.00    +0.000 C 
ATOM     14  O   UNL     1       6.530   5.081  19.749  0.00  0.00    +0.000 OA
ENDBRANCH   1  14
BRANCH   2  15
ATOM     15  S   UNL     1       3.579   4.390  19.544  0.00  0.00    +0.000 S 
BRANCH  15  16
ATOM     16  C   UNL     1       3.056   6.084  19.150  0.00  0.00    +0.000 A 
ATOM     17  C   UNL     1       3.445   6.703  17.952  0.00  0.00    +0.000 A 
ATOM     18  C   UNL     1       3.003   7.992  17.642  0.00  0.00    +0.000 A 
ATOM     19  C   UNL     1       2.153   8.678  18.524  0.00  0.00    +0.000 A 
ATOM     20  C   UNL     1       1.753   8.063  19.717  0.00  0.00    +0.000 A 
ATOM     21  C   UNL     1       2.200   6.774  20.028  0.00  0.00    +0.000 A 
ENDBRANCH  15  16
ENDBRANCH   2  15
TORSDOF 3
ENDMDL
MODEL 2
REMARK VINA RESULT:      -7.0      4.251      6.312
REMARK  Name = 
REMARK  5 active torsions:
REMARK  status: ('A' for Active; 'I' for Inactive)
REMARK    1  A    between atoms: C_1  and  O_2
REMARK    2  A    between atoms: O_2  and  C_3
REMARK    3  A    between atoms: C_4  and  S_5
REMARK    4  A    between atoms: S_5  and  C_6
REMARK    5  A    between atoms: C_16  and  C_17
REMARK                            x       y       z     vdW  Elec       q    Type
REMARK                         _______ _______ _______ _____ _____    ______ ____
ROOT
ATOM      1  C   UNL     1       1.266   8.477  20.418  0.00  0.00    +0.000 C 
ATOM      2  C   UNL     1       1.418   9.295  19.332  0.00  0.00    +0.000 C 
ATOM      3  C   UNL     1       2.186   8.789  18.146  0.00  0.00    +0.000 C 
ATOM      4  O   UNL     1       2.384   9.506  17.173  0.00  0.00    +0.000 OA
ATOM      5  C   UNL     1       2.874   7.476  18.265  0.00  0.00    +0.000 A 
ATOM      6 SE   UNL     1       4.244   6.832  17.251  0.00  0.00    +0.000 Se
ATOM      7  C   UNL     1       4.318   5.520  18.539  0.00  0.00    +0.000 A 
ATOM      8  C   UNL     1       5.438   4.556  18.724  0.00  0.00    +0.000 C 
ATOM      9  N   UNL     1       3.357   5.575  19.466  0.00  0.00    +0.000 NA
ATOM     10  C   UNL     1       2.596   6.660  19.320  0.00  0.00    +0.000 A 
ATOM     11  C   UNL     1       1.666   7.045  20.346  0.00  0.00    +0.000 C 
ATOM     12  O   UNL     1       1.352   6.259  21.226  0.00  0.00    +0.000 OA
ENDROOT
BRANCH   1  14
ATOM     13  C   UNL     1      -0.491   8.871  21.948  0.00  0.00    +0.000 C 
ATOM     14  O   UNL     1       0.868   8.952  21.623  0.00  0.00    +0.000 OA
ENDBRANCH   1  14
BRANCH   2  15
ATOM     15  S   UNL     1       0.919  11.040  19.416  0.00  0.00    +0.000 S 
BRANCH  15  16
ATOM     16  C   UNL     1      -0.744  10.892  18.703  0.00  0.00    +0.000 A 
ATOM     17  C   UNL     1      -1.028   9.937  17.713  0.00  0.00    +0.000 A 
ATOM     18  C   UNL     1      -2.321   9.806  17.201  0.00  0.00    +0.000 A 
ATOM     19  C   UNL     1      -3.356  10.625  17.680  0.00  0.00    +0.000 A 
ATOM     20  C   UNL     1      -3.083  11.573  18.674  0.00  0.00    +0.000 A 
ATOM     21  C   UNL     1      -1.787  11.706  19.183  0.00  0.00    +0.000 A 
ENDBRANCH  15  16
ENDBRANCH   2  15
TORSDOF 3
ENDMDL
MODEL 3
REMARK VINA RESULT:      -7.0      0.056      1.058
REMARK  Name = 
REMARK  5 active torsions:
REMARK  status: ('A' for Active; 'I' for Inactive)
REMARK    1  A    between atoms: C_1  and  O_2
REMARK    2  A    between atoms: O_2  and  C_3
REMARK    3  A    between atoms: C_4  and  S_5
REMARK    4  A    between atoms: S_5  and  C_6
REMARK    5  A    between atoms: C_16  and  C_17
REMARK                            x       y       z     vdW  Elec       q    Type
REMARK                         _______ _______ _______ _____ _____    ______ ____
ROOT
ATOM      1  C   UNL     1       6.202   4.532  18.583  0.00  0.00    +0.000 C 
ATOM      2  C   UNL     1       4.905   4.204  18.300  0.00  0.00    +0.000 C 
ATOM      3  C   UNL     1       4.533   3.878  16.883  0.00  0.00    +0.000 C 
ATOM      4  O   UNL     1       3.373   3.623  16.581  0.00  0.00    +0.000 OA
ATOM      5  C   UNL     1       5.560   4.074  15.827  0.00  0.00    +0.000 A 
ATOM      6 SE   UNL     1       5.303   4.253  14.032  0.00  0.00    +0.000 Se
ATOM      7  C   UNL     1       7.080   4.729  14.024  0.00  0.00    +0.000 A 
ATOM      8  C   UNL     1       7.792   5.380  12.890  0.00  0.00    +0.000 C 
ATOM      9  N   UNL     1       7.704   4.623  15.201  0.00  0.00    +0.000 NA
ATOM     10  C   UNL     1       6.858   4.291  16.177  0.00  0.00    +0.000 A 
ATOM     11  C   UNL     1       7.265   4.365  17.554  0.00  0.00    +0.000 C 
ATOM     12  O   UNL     1       8.447   4.457  17.847  0.00  0.00    +0.000 OA
ENDROOT
BRANCH   1  14
ATOM     13  C   UNL     1       7.705   5.925  19.759  0.00  0.00    +0.000 C 
ATOM     14  O   UNL     1       6.553   5.131  19.747  0.00  0.00    +0.000 OA
ENDBRANCH   1  14
BRANCH   2  15
ATOM     15  S   UNL     1       3.611   4.397  19.560  0.00  0.00    +0.000 S 
BRANCH  15  16
ATOM     16  C   UNL     1       3.035   6.062  19.121  0.00  0.00    +0.000 A 
ATOM     17  C   UNL     1       2.173   6.779  19.967  0.00  0.00    +0.000 A 
ATOM     18  C   UNL     1       1.769   8.075  19.636  0.00  0.00    +0.000 A 
ATOM     19  C   UNL     1       2.232   8.680  18.456  0.00  0.00    +0.000 A 
ATOM     20  C   UNL     1       3.099   7.974  17.613  0.00  0.00    +0.000 A 
ATOM     21  C   UNL     1       3.499   6.675  17.942  0.00  0.00    +0.000 A 
ENDBRANCH  15  16
ENDBRANCH   2  15
TORSDOF 3
ENDMDL
MODEL 4
REMARK VINA RESULT:      -6.9      3.871      7.012
REMARK  Name = 
REMARK  5 active torsions:
REMARK  status: ('A' for Active; 'I' for Inactive)
REMARK    1  A    between atoms: C_1  and  O_2
REMARK    2  A    between atoms: O_2  and  C_3
REMARK    3  A    between atoms: C_4  and  S_5
REMARK    4  A    between atoms: S_5  and  C_6
REMARK    5  A    between atoms: C_16  and  C_17
REMARK                            x       y       z     vdW  Elec       q    Type
REMARK                         _______ _______ _______ _____ _____    ______ ____
ROOT
ATOM      1  C   UNL     1       2.188   6.805  20.058  0.00  0.00    +0.000 C 
ATOM      2  C   UNL     1       2.643   6.976  18.780  0.00  0.00    +0.000 C 
ATOM      3  C   UNL     1       2.348   8.267  18.073  0.00  0.00    +0.000 C 
ATOM      4  O   UNL     1       2.699   8.442  16.913  0.00  0.00    +0.000 OA
ATOM      5  C   UNL     1       1.446   9.241  18.742  0.00  0.00    +0.000 A 
ATOM      6 SE   UNL     1       0.517  10.613  17.983  0.00  0.00    +0.000 Se
ATOM      7  C   UNL     1      -0.313  10.697  19.623  0.00  0.00    +0.000 A 
ATOM      8  C   UNL     1      -1.565  11.446  19.918  0.00  0.00    +0.000 C 
ATOM      9  N   UNL     1       0.179   9.873  20.554  0.00  0.00    +0.000 NA
ATOM     10  C   UNL     1       1.117   9.069  20.052  0.00  0.00    +0.000 A 
ATOM     11  C   UNL     1       1.600   7.947  20.810  0.00  0.00    +0.000 C 
ATOM     12  O   UNL     1       1.379   7.866  22.008  0.00  0.00    +0.000 OA
ENDROOT
BRANCH   1  14
ATOM     13  C   UNL     1       1.024   4.775  20.390  0.00  0.00    +0.000 C 
ATOM     14  O   UNL     1       2.139   5.583  20.644  0.00  0.00    +0.000 OA
ENDBRANCH   1  14
BRANCH   2  15
ATOM     15  S   UNL     1       3.372   5.585  17.867  0.00  0.00    +0.000 S 
BRANCH  15  16
ATOM     16  C   UNL     1       5.128   5.952  18.148  0.00  0.00    +0.000 A 
ATOM     17  C   UNL     1       5.838   5.343  19.195  0.00  0.00    +0.000 A 
ATOM     18  C   UNL     1       7.199   5.603  19.377  0.00  0.00    +0.000 A 
ATOM     19  C   UNL     1       7.875   6.471  18.503  0.00  0.00    +0.000 A 
ATOM     20  C   UNL     1       7.175   7.074  17.451  0.00  0.00    +0.000 A 
ATOM     21  C   UNL     1       5.812   6.816  17.273  0.00  0.00    +0.000 A 
ENDBRANCH  15  16
ENDBRANCH   2  15
TORSDOF 3
ENDMDL
MODEL 5
REMARK VINA RESULT:      -6.9      4.347      6.423
REMARK  Name = 
REMARK  5 active torsions:
REMARK  status: ('A' for Active; 'I' for Inactive)
REMARK    1  A    between atoms: C_1  and  O_2
REMARK    2  A    between atoms: O_2  and  C_3
REMARK    3  A    between atoms: C_4  and  S_5
REMARK    4  A    between atoms: S_5  and  C_6
REMARK    5  A    between atoms: C_16  and  C_17
REMARK                            x       y       z     vdW  Elec       q    Type
REMARK                         _______ _______ _______ _____ _____    ______ ____
ROOT
ATOM      1  C   UNL     1       1.069   8.544  20.353  0.00  0.00    +0.000 C 
ATOM      2  C   UNL     1       1.265   9.338  19.258  0.00  0.00    +0.000 C 
ATOM      3  C   UNL     1       2.111   8.822  18.131  0.00  0.00    +0.000 C 
ATOM      4  O   UNL     1       2.348   9.520  17.152  0.00  0.00    +0.000 OA
ATOM      5  C   UNL     1       2.821   7.530  18.323  0.00  0.00    +0.000 A 
ATOM      6 SE   UNL     1       4.261   6.894  17.406  0.00  0.00    +0.000 Se
ATOM      7  C   UNL     1       4.291   5.616  18.728  0.00  0.00    +0.000 A 
ATOM      8  C   UNL     1       5.421   4.685  19.002  0.00  0.00    +0.000 C 
ATOM      9  N   UNL     1       3.278   5.671  19.598  0.00  0.00    +0.000 NA
ATOM     10  C   UNL     1       2.501   6.734  19.380  0.00  0.00    +0.000 A 
ATOM     11  C   UNL     1       1.506   7.120  20.342  0.00  0.00    +0.000 C 
ATOM     12  O   UNL     1       1.160   6.348  21.222  0.00  0.00    +0.000 OA
ENDROOT
BRANCH   1  14
ATOM     13  C   UNL     1       1.510   9.330  22.538  0.00  0.00    +0.000 C 
ATOM     14  O   UNL     1       0.592   9.039  21.522  0.00  0.00    +0.000 OA
ENDBRANCH   1  14
BRANCH   2  15
ATOM     15  S   UNL     1       0.722  11.072  19.268  0.00  0.00    +0.000 S 
BRANCH  15  16
ATOM     16  C   UNL     1      -0.947  10.849  18.587  0.00  0.00    +0.000 A 
ATOM     17  C   UNL     1      -2.029  11.614  19.052  0.00  0.00    +0.000 A 
ATOM     18  C   UNL     1      -3.300  11.461  18.492  0.00  0.00    +0.000 A 
ATOM     19  C   UNL     1      -3.506  10.545  17.448  0.00  0.00    +0.000 A 
ATOM     20  C   UNL     1      -2.430   9.785  16.974  0.00  0.00    +0.000 A 
ATOM     21  C   UNL     1      -1.159   9.936  17.537  0.00  0.00    +0.000 A 
ENDBRANCH  15  16
ENDBRANCH   2  15
TORSDOF 3
ENDMDL
MODEL 6
REMARK VINA RESULT:      -6.9      3.812      6.883
REMARK  Name = 
REMARK  5 active torsions:
REMARK  status: ('A' for Active; 'I' for Inactive)
REMARK    1  A    between atoms: C_1  and  O_2
REMARK    2  A    between atoms: O_2  and  C_3
REMARK    3  A    between atoms: C_4  and  S_5
REMARK    4  A    between atoms: S_5  and  C_6
REMARK    5  A    between atoms: C_16  and  C_17
REMARK                            x       y       z     vdW  Elec       q    Type
REMARK                         _______ _______ _______ _____ _____    ______ ____
ROOT
ATOM      1  C   UNL     1       2.224   6.686  20.024  0.00  0.00    +0.000 C 
ATOM      2  C   UNL     1       2.705   6.857  18.756  0.00  0.00    +0.000 C 
ATOM      3  C   UNL     1       2.436   8.153  18.048  0.00  0.00    +0.000 C 
ATOM      4  O   UNL     1       2.810   8.329  16.895  0.00  0.00    +0.000 OA
ATOM      5  C   UNL     1       1.531   9.134  18.703  0.00  0.00    +0.000 A 
ATOM      6 SE   UNL     1       0.630  10.517  17.932  0.00  0.00    +0.000 Se
ATOM      7  C   UNL     1      -0.229  10.604  19.556  0.00  0.00    +0.000 A 
ATOM      8  C   UNL     1      -1.479  11.365  19.830  0.00  0.00    +0.000 C 
ATOM      9  N   UNL     1       0.237   9.773  20.493  0.00  0.00    +0.000 NA
ATOM     10  C   UNL     1       1.176   8.961  20.006  0.00  0.00    +0.000 A 
ATOM     11  C   UNL     1       1.633   7.832  20.769  0.00  0.00    +0.000 C 
ATOM     12  O   UNL     1       1.389   7.749  21.962  0.00  0.00    +0.000 OA
ENDROOT
BRANCH   1  14
ATOM     13  C   UNL     1       1.021   4.679  20.350  0.00  0.00    +0.000 C 
ATOM     14  O   UNL     1       2.152   5.463  20.605  0.00  0.00    +0.000 OA
ENDBRANCH   1  14
BRANCH   2  15
ATOM     15  S   UNL     1       3.437   5.462  17.852  0.00  0.00    +0.000 S 
BRANCH  15  16
ATOM     16  C   UNL     1       5.193   5.858  18.094  0.00  0.00    +0.000 A 
ATOM     17  C   UNL     1       5.858   6.756  17.244  0.00  0.00    +0.000 A 
ATOM     18  C   UNL     1       7.198   7.084  17.465  0.00  0.00    +0.000 A 
ATOM     19  C   UNL     1       7.892   6.524  18.550  0.00  0.00    +0.000 A 
ATOM     20  C   UNL     1       7.232   5.635  19.407  0.00  0.00    +0.000 A 
ATOM     21  C   UNL     1       5.892   5.304  19.183  0.00  0.00    +0.000 A 
ENDBRANCH  15  16
ENDBRANCH   2  15
TORSDOF 3
ENDMDL
MODEL 7
REMARK VINA RESULT:      -6.9      2.354      3.378
REMARK  Name = 
REMARK  5 active torsions:
REMARK  status: ('A' for Active; 'I' for Inactive)
REMARK    1  A    between atoms: C_1  and  O_2
REMARK    2  A    between atoms: O_2  and  C_3
REMARK    3  A    between atoms: C_4  and  S_5
REMARK    4  A    between atoms: S_5  and  C_6
REMARK    5  A    between atoms: C_16  and  C_17
REMARK                            x       y       z     vdW  Elec       q    Type
REMARK                         _______ _______ _______ _____ _____    ______ ____
ROOT
ATOM      1  C   UNL     1       4.318   6.250  17.750  0.00  0.00    +0.000 C 
ATOM      2  C   UNL     1       3.567   5.137  17.494  0.00  0.00    +0.000 C 
ATOM      3  C   UNL     1       4.100   4.105  16.544  0.00  0.00    +0.000 C 
ATOM      4  O   UNL     1       3.438   3.116  16.253  0.00  0.00    +0.000 OA
ATOM      5  C   UNL     1       5.355   4.413  15.809  0.00  0.00    +0.000 A 
ATOM      6 SE   UNL     1       5.978   3.641  14.280  0.00  0.00    +0.000 Se
ATOM      7  C   UNL     1       7.194   5.021  14.313  0.00  0.00    +0.000 A 
ATOM      8  C   UNL     1       8.070   5.425  13.179  0.00  0.00    +0.000 C 
ATOM      9  N   UNL     1       7.138   5.805  15.394  0.00  0.00    +0.000 NA
ATOM     10  C   UNL     1       6.116   5.478  16.186  0.00  0.00    +0.000 A 
ATOM     11  C   UNL     1       5.724   6.340  17.267  0.00  0.00    +0.000 C 
ATOM     12  O   UNL     1       6.469   7.226  17.656  0.00  0.00    +0.000 OA
ENDROOT
BRANCH   1  14
ATOM     13  C   UNL     1       3.046   8.230  17.538  0.00  0.00    +0.000 C 
ATOM     14  O   UNL     1       3.791   7.353  18.335  0.00  0.00    +0.000 OA
ENDBRANCH   1  14
BRANCH   2  15
ATOM     15  S   UNL     1       1.856   5.023  18.094  0.00  0.00    +0.000 S 
BRANCH  15  16
ATOM     16  C   UNL     1       2.126   3.920  19.511  0.00  0.00    +0.000 A 
ATOM     17  C   UNL     1       3.378   3.329  19.742  0.00  0.00    +0.000 A 
ATOM     18  C   UNL     1       3.584   2.514  20.858  0.00  0.00    +0.000 A 
ATOM     19  C   UNL     1       2.539   2.287  21.769  0.00  0.00    +0.000 A 
ATOM     20  C   UNL     1       1.291   2.881  21.549  0.00  0.00    +0.000 A 
ATOM     21  C   UNL     1       1.084   3.693  20.429  0.00  0.00    +0.000 A 
ENDBRANCH  15  16
ENDBRANCH   2  15
TORSDOF 3
ENDMDL
MODEL 8
REMARK VINA RESULT:      -6.9      2.347      3.498
REMARK  Name = 
REMARK  5 active torsions:
REMARK  status: ('A' for Active; 'I' for Inactive)
REMARK    1  A    between atoms: C_1  and  O_2
REMARK    2  A    between atoms: O_2  and  C_3
REMARK    3  A    between atoms: C_4  and  S_5
REMARK    4  A    between atoms: S_5  and  C_6
REMARK    5  A    between atoms: C_16  and  C_17
REMARK                            x       y       z     vdW  Elec       q    Type
REMARK                         _______ _______ _______ _____ _____    ______ ____
ROOT
ATOM      1  C   UNL     1       4.316   6.286  17.752  0.00  0.00    +0.000 C 
ATOM      2  C   UNL     1       3.559   5.173  17.510  0.00  0.00    +0.000 C 
ATOM      3  C   UNL     1       4.087   4.129  16.569  0.00  0.00    +0.000 C 
ATOM      4  O   UNL     1       3.421   3.140  16.290  0.00  0.00    +0.000 OA
ATOM      5  C   UNL     1       5.342   4.425  15.828  0.00  0.00    +0.000 A 
ATOM      6 SE   UNL     1       5.957   3.636  14.305  0.00  0.00    +0.000 Se
ATOM      7  C   UNL     1       7.178   5.012  14.321  0.00  0.00    +0.000 A 
ATOM      8  C   UNL     1       8.053   5.402  13.180  0.00  0.00    +0.000 C 
ATOM      9  N   UNL     1       7.128   5.807  15.394  0.00  0.00    +0.000 NA
ATOM     10  C   UNL     1       6.107   5.491  16.191  0.00  0.00    +0.000 A 
ATOM     11  C   UNL     1       5.720   6.366  17.265  0.00  0.00    +0.000 C 
ATOM     12  O   UNL     1       6.469   7.253  17.643  0.00  0.00    +0.000 OA
ENDROOT
BRANCH   1  14
ATOM     13  C   UNL     1       2.986   8.228  17.542  0.00  0.00    +0.000 C 
ATOM     14  O   UNL     1       3.793   7.396  18.328  0.00  0.00    +0.000 OA
ENDBRANCH   1  14
BRANCH   2  15
ATOM     15  S   UNL     1       1.850   5.071  18.115  0.00  0.00    +0.000 S 
BRANCH  15  16
ATOM     16  C   UNL     1       2.124   4.005  19.559  0.00  0.00    +0.000 A 
ATOM     17  C   UNL     1       1.087   3.728  20.464  0.00  0.00    +0.000 A 
ATOM     18  C   UNL     1       1.300   2.875  21.550  0.00  0.00    +0.000 A 
ATOM     19  C   UNL     1       2.556   2.275  21.741  0.00  0.00    +0.000 A 
ATOM     20  C   UNL     1       3.592   2.539  20.836  0.00  0.00    +0.000 A 
ATOM     21  C   UNL     1       3.378   3.397  19.752  0.00  0.00    +0.000 A 
ENDBRANCH  15  16
ENDBRANCH   2  15
TORSDOF 3
ENDMDL
MODEL 9
REMARK VINA RESULT:      -6.9      2.605      6.091
REMARK  Name = 
REMARK  5 active torsions:
REMARK  status: ('A' for Active; 'I' for Inactive)
REMARK    1  A    between atoms: C_1  and  O_2
REMARK    2  A    between atoms: O_2  and  C_3
REMARK    3  A    between atoms: C_4  and  S_5
REMARK    4  A    between atoms: S_5  and  C_6
REMARK    5  A    between atoms: C_16  and  C_17
REMARK                            x       y       z     vdW  Elec       q    Type
REMARK                         _______ _______ _______ _____ _____    ______ ____
ROOT
ATOM      1  C   UNL     1       5.266   6.581  17.088  0.00  0.00    +0.000 C 
ATOM      2  C   UNL     1       5.508   5.281  17.436  0.00  0.00    +0.000 C 
ATOM      3  C   UNL     1       4.539   4.583  18.345  0.00  0.00    +0.000 C 
ATOM      4  O   UNL     1       4.743   3.433  18.717  0.00  0.00    +0.000 OA
ATOM      5  C   UNL     1       3.441   5.384  18.947  0.00  0.00    +0.000 A 
ATOM      6 SE   UNL     1       2.443   4.991  20.420  0.00  0.00    +0.000 Se
ATOM      7  C   UNL     1       1.858   6.727  20.243  0.00  0.00    +0.000 A 
ATOM      8  C   UNL     1       1.112   7.494  21.278  0.00  0.00    +0.000 C 
ATOM      9  N   UNL     1       2.303   7.371  19.160  0.00  0.00    +0.000 NA
ATOM     10  C   UNL     1       3.184   6.637  18.479  0.00  0.00    +0.000 A 
ATOM     11  C   UNL     1       3.968   7.225  17.428  0.00  0.00    +0.000 C 
ATOM     12  O   UNL     1       3.657   8.306  16.952  0.00  0.00    +0.000 OA
ENDROOT
BRANCH   1  14
ATOM     13  C   UNL     1       7.178   7.937  17.393  0.00  0.00    +0.000 C 
ATOM     14  O   UNL     1       6.225   7.366  16.540  0.00  0.00    +0.000 OA
ENDBRANCH   1  14
BRANCH   2  15
ATOM     15  S   UNL     1       7.088   4.491  17.011  0.00  0.00    +0.000 S 
BRANCH  15  16
ATOM     16  C   UNL     1       6.903   4.445  15.204  0.00  0.00    +0.000 A 
ATOM     17  C   UNL     1       7.789   5.142  14.367  0.00  0.00    +0.000 A 
ATOM     18  C   UNL     1       7.661   5.066  12.977  0.00  0.00    +0.000 A 
ATOM     19  C   UNL     1       6.648   4.281  12.403  0.00  0.00    +0.000 A 
ATOM     20  C   UNL     1       5.767   3.576  13.233  0.00  0.00    +0.000 A 
ATOM     21  C   UNL     1       5.893   3.656  14.624  0.00  0.00    +0.000 A 
ENDBRANCH  15  16
ENDBRANCH   2  15
TORSDOF 3
ENDMDL
