MODEL 1
REMARK VINA RESULT:      -5.3      0.000      0.000
REMARK  Name = 
REMARK  1 active torsions:
REMARK  status: ('A' for Active; 'I' for Inactive)
REMARK    1  A    between atoms: N_3  and  C_4
REMARK                            x       y       z     vdW  Elec       q    Type
REMARK                         _______ _______ _______ _____ _____    ______ ____
ROOT
ATOM      1  C   UNL     1       6.211   6.143  17.531  0.00  0.00    +0.000 C 
ATOM      2  C   UNL     1       7.483   6.773  18.101  0.00  0.00    +0.000 C 
ATOM      3  C   UNL     1       7.935   5.796  19.170  0.00  0.00    +0.000 C 
ATOM      4  N   UNL     1       6.689   5.279  19.741  0.00  0.00    +0.000 NA
ATOM      5  C   UNL     1       5.758   5.149  18.606  0.00  0.00    +0.000 C 
ATOM      6  H   UNL     1       6.317   5.967  20.399  0.00  0.00    +0.000 HD
ENDROOT
BRANCH   1   9
ATOM      7  C   UNL     1       6.364   4.261  14.491  0.00  0.00    +0.000 A 
ATOM      8  C   UNL     1       5.656   4.566  15.623  0.00  0.00    +0.000 A 
ATOM      9  N   UNL     1       6.410   5.523  16.238  0.00  0.00    +0.000 N 
ATOM     10  N   UNL     1       7.489   5.833  15.497  0.00  0.00    +0.000 NA
ATOM     11  N   UNL     1       7.475   5.053  14.423  0.00  0.00    +0.000 NA
ENDBRANCH   1   9
TORSDOF 1
ENDMDL
MODEL 2
REMARK VINA RESULT:      -5.0      3.528      4.944
REMARK  Name = 
REMARK  1 active torsions:
REMARK  status: ('A' for Active; 'I' for Inactive)
REMARK    1  A    between atoms: N_3  and  C_4
REMARK                            x       y       z     vdW  Elec       q    Type
REMARK                         _______ _______ _______ _____ _____    ______ ____
ROOT
ATOM      1  C   UNL     1       3.319   3.331  17.474  0.00  0.00    +0.000 C 
ATOM      2  C   UNL     1       1.934   3.943  17.681  0.00  0.00    +0.000 C 
ATOM      3  C   UNL     1       1.310   3.092  18.771  0.00  0.00    +0.000 C 
ATOM      4  N   UNL     1       1.819   1.743  18.515  0.00  0.00    +0.000 NA
ATOM      5  C   UNL     1       3.212   1.924  18.070  0.00  0.00    +0.000 C 
ATOM      6  H   UNL     1       1.278   1.325  17.755  0.00  0.00    +0.000 HD
ENDROOT
BRANCH   1   9
ATOM      7  C   UNL     1       5.927   5.553  18.509  0.00  0.00    +0.000 A 
ATOM      8  C   UNL     1       4.837   5.351  17.704  0.00  0.00    +0.000 A 
ATOM      9  N   UNL     1       4.384   4.114  18.064  0.00  0.00    +0.000 N 
ATOM     10  N   UNL     1       5.117   3.612  19.074  0.00  0.00    +0.000 NA
ATOM     11  N   UNL     1       6.076   4.486  19.348  0.00  0.00    +0.000 NA
ENDBRANCH   1   9
TORSDOF 1
ENDMDL
MODEL 3
REMARK VINA RESULT:      -5.0      3.962      5.653
REMARK  Name = 
REMARK  1 active torsions:
REMARK  status: ('A' for Active; 'I' for Inactive)
REMARK    1  A    between atoms: N_3  and  C_4
REMARK                            x       y       z     vdW  Elec       q    Type
REMARK                         _______ _______ _______ _____ _____    ______ ____
ROOT
ATOM      1  C   UNL     1       3.069   2.672  20.216  0.00  0.00    +0.000 C 
ATOM      2  C   UNL     1       2.083   2.254  19.125  0.00  0.00    +0.000 C 
ATOM      3  C   UNL     1       0.798   2.972  19.490  0.00  0.00    +0.000 C 
ATOM      4  N   UNL     1       0.784   2.972  20.955  0.00  0.00    +0.000 NA
ATOM      5  C   UNL     1       2.185   3.174  21.363  0.00  0.00    +0.000 C 
ATOM      6  H   UNL     1       0.471   2.056  21.282  0.00  0.00    +0.000 HD
ENDROOT
BRANCH   1   9
ATOM      7  C   UNL     1       5.036   5.404  19.001  0.00  0.00    +0.000 A 
ATOM      8  C   UNL     1       3.832   4.984  19.502  0.00  0.00    +0.000 A 
ATOM      9  N   UNL     1       4.029   3.660  19.770  0.00  0.00    +0.000 N 
ATOM     10  N   UNL     1       5.298   3.301  19.506  0.00  0.00    +0.000 NA
ATOM     11  N   UNL     1       5.924   4.367  19.022  0.00  0.00    +0.000 NA
ENDBRANCH   1   9
TORSDOF 1
ENDMDL
MODEL 4
REMARK VINA RESULT:      -4.9      2.892      4.066
REMARK  Name = 
REMARK  1 active torsions:
REMARK  status: ('A' for Active; 'I' for Inactive)
REMARK    1  A    between atoms: N_3  and  C_4
REMARK                            x       y       z     vdW  Elec       q    Type
REMARK                         _______ _______ _______ _____ _____    ______ ____
ROOT
ATOM      1  C   UNL     1       4.084   3.995  18.521  0.00  0.00    +0.000 C 
ATOM      2  C   UNL     1       3.954   2.618  19.173  0.00  0.00    +0.000 C 
ATOM      3  C   UNL     1       3.273   1.769  18.116  0.00  0.00    +0.000 C 
ATOM      4  N   UNL     1       2.350   2.689  17.448  0.00  0.00    +0.000 NA
ATOM      5  C   UNL     1       3.060   3.979  17.380  0.00  0.00    +0.000 C 
ATOM      6  H   UNL     1       1.516   2.799  18.027  0.00  0.00    +0.000 HD
ENDROOT
BRANCH   1   9
ATOM      7  C   UNL     1       7.245   4.566  16.943  0.00  0.00    +0.000 A 
ATOM      8  C   UNL     1       5.892   4.414  16.791  0.00  0.00    +0.000 A 
ATOM      9  N   UNL     1       5.428   4.288  18.069  0.00  0.00    +0.000 N 
ATOM     10  N   UNL     1       6.429   4.416  18.957  0.00  0.00    +0.000 NA
ATOM     11  N   UNL     1       7.555   4.578  18.273  0.00  0.00    +0.000 NA
ENDBRANCH   1   9
TORSDOF 1
ENDMDL
MODEL 5
REMARK VINA RESULT:      -4.9      2.314      4.133
REMARK  Name = 
REMARK  1 active torsions:
REMARK  status: ('A' for Active; 'I' for Inactive)
REMARK    1  A    between atoms: N_3  and  C_4
REMARK                            x       y       z     vdW  Elec       q    Type
REMARK                         _______ _______ _______ _____ _____    ______ ____
ROOT
ATOM      1  C   UNL     1       5.694   4.860  17.342  0.00  0.00    +0.000 C 
ATOM      2  C   UNL     1       5.366   4.888  15.849  0.00  0.00    +0.000 C 
ATOM      3  C   UNL     1       6.564   4.231  15.192  0.00  0.00    +0.000 C 
ATOM      4  N   UNL     1       7.704   4.650  16.010  0.00  0.00    +0.000 NA
ATOM      5  C   UNL     1       7.212   4.657  17.399  0.00  0.00    +0.000 C 
ATOM      6  H   UNL     1       7.967   5.602  15.746  0.00  0.00    +0.000 HD
ENDROOT
BRANCH   1   9
ATOM      7  C   UNL     1       3.533   2.388  18.768  0.00  0.00    +0.000 A 
ATOM      8  C   UNL     1       3.909   3.084  17.649  0.00  0.00    +0.000 A 
ATOM      9  N   UNL     1       4.962   3.844  18.069  0.00  0.00    +0.000 N 
ATOM     10  N   UNL     1       5.255   3.586  19.356  0.00  0.00    +0.000 NA
ATOM     11  N   UNL     1       4.374   2.698  19.799  0.00  0.00    +0.000 NA
ENDBRANCH   1   9
TORSDOF 1
ENDMDL
MODEL 6
REMARK VINA RESULT:      -4.8      1.914      3.459
REMARK  Name = 
REMARK  1 active torsions:
REMARK  status: ('A' for Active; 'I' for Inactive)
REMARK    1  A    between atoms: N_3  and  C_4
REMARK                            x       y       z     vdW  Elec       q    Type
REMARK                         _______ _______ _______ _____ _____    ______ ____
ROOT
ATOM      1  C   UNL     1       6.995   4.665  17.570  0.00  0.00    +0.000 C 
ATOM      2  C   UNL     1       7.650   5.633  18.556  0.00  0.00    +0.000 C 
ATOM      3  C   UNL     1       7.472   6.996  17.913  0.00  0.00    +0.000 C 
ATOM      4  N   UNL     1       7.594   6.740  16.476  0.00  0.00    +0.000 NA
ATOM      5  C   UNL     1       6.937   5.441  16.250  0.00  0.00    +0.000 C 
ATOM      6  H   UNL     1       8.584   6.657  16.238  0.00  0.00    +0.000 HD
ENDROOT
BRANCH   1   9
ATOM      7  C   UNL     1       3.614   3.674  18.198  0.00  0.00    +0.000 A 
ATOM      8  C   UNL     1       4.567   3.995  17.268  0.00  0.00    +0.000 A 
ATOM      9  N   UNL     1       5.697   4.197  18.007  0.00  0.00    +0.000 N 
ATOM     10  N   UNL     1       5.466   3.955  19.310  0.00  0.00    +0.000 NA
ATOM     11  N   UNL     1       4.183   3.642  19.440  0.00  0.00    +0.000 NA
ENDBRANCH   1   9
TORSDOF 1
ENDMDL
MODEL 7
REMARK VINA RESULT:      -4.7      3.742      5.026
REMARK  Name = 
REMARK  1 active torsions:
REMARK  status: ('A' for Active; 'I' for Inactive)
REMARK    1  A    between atoms: N_3  and  C_4
REMARK                            x       y       z     vdW  Elec       q    Type
REMARK                         _______ _______ _______ _____ _____    ______ ____
ROOT
ATOM      1  C   UNL     1       2.839   3.508  17.464  0.00  0.00    +0.000 C 
ATOM      2  C   UNL     1       1.485   3.998  17.979  0.00  0.00    +0.000 C 
ATOM      3  C   UNL     1       1.111   2.994  19.053  0.00  0.00    +0.000 C 
ATOM      4  N   UNL     1       1.631   1.718  18.556  0.00  0.00    +0.000 NA
ATOM      5  C   UNL     1       2.910   2.042  17.901  0.00  0.00    +0.000 C 
ATOM      6  H   UNL     1       0.984   1.348  17.857  0.00  0.00    +0.000 HD
ENDROOT
BRANCH   1   9
ATOM      7  C   UNL     1       5.531   5.205  19.104  0.00  0.00    +0.000 A 
ATOM      8  C   UNL     1       4.711   4.108  19.069  0.00  0.00    +0.000 A 
ATOM      9  N   UNL     1       3.953   4.296  17.949  0.00  0.00    +0.000 N 
ATOM     10  N   UNL     1       4.327   5.413  17.300  0.00  0.00    +0.000 NA
ATOM     11  N   UNL     1       5.292   5.986  18.009  0.00  0.00    +0.000 NA
ENDBRANCH   1   9
TORSDOF 1
ENDMDL
MODEL 8
REMARK VINA RESULT:      -4.7      1.561      2.378
REMARK  Name = 
REMARK  1 active torsions:
REMARK  status: ('A' for Active; 'I' for Inactive)
REMARK    1  A    between atoms: N_3  and  C_4
REMARK                            x       y       z     vdW  Elec       q    Type
REMARK                         _______ _______ _______ _____ _____    ______ ____
ROOT
ATOM      1  C   UNL     1       5.804   4.485  17.374  0.00  0.00    +0.000 C 
ATOM      2  C   UNL     1       4.469   3.739  17.395  0.00  0.00    +0.000 C 
ATOM      3  C   UNL     1       3.443   4.819  17.680  0.00  0.00    +0.000 C 
ATOM      4  N   UNL     1       4.129   5.742  18.588  0.00  0.00    +0.000 NA
ATOM      5  C   UNL     1       5.524   5.796  18.116  0.00  0.00    +0.000 C 
ATOM      6  H   UNL     1       4.112   5.350  19.532  0.00  0.00    +0.000 HD
ENDROOT
BRANCH   1   9
ATOM      7  C   UNL     1       6.843   4.561  13.949  0.00  0.00    +0.000 A 
ATOM      8  C   UNL     1       5.953   4.081  14.873  0.00  0.00    +0.000 A 
ATOM      9  N   UNL     1       6.320   4.693  16.037  0.00  0.00    +0.000 N 
ATOM     10  N   UNL     1       7.339   5.546  15.828  0.00  0.00    +0.000 NA
ATOM     11  N   UNL     1       7.675   5.465  14.547  0.00  0.00    +0.000 NA
ENDBRANCH   1   9
TORSDOF 1
ENDMDL
MODEL 9
REMARK VINA RESULT:      -4.7      1.317      1.732
REMARK  Name = 
REMARK  1 active torsions:
REMARK  status: ('A' for Active; 'I' for Inactive)
REMARK    1  A    between atoms: N_3  and  C_4
REMARK                            x       y       z     vdW  Elec       q    Type
REMARK                         _______ _______ _______ _____ _____    ______ ____
ROOT
ATOM      1  C   UNL     1       5.737   6.163  17.685  0.00  0.00    +0.000 C 
ATOM      2  C   UNL     1       6.124   5.291  18.880  0.00  0.00    +0.000 C 
ATOM      3  C   UNL     1       4.834   4.592  19.264  0.00  0.00    +0.000 C 
ATOM      4  N   UNL     1       3.790   5.585  19.001  0.00  0.00    +0.000 NA
ATOM      5  C   UNL     1       4.213   6.288  17.777  0.00  0.00    +0.000 C 
ATOM      6  H   UNL     1       3.765   6.251  19.775  0.00  0.00    +0.000 HD
ENDROOT
BRANCH   1   9
ATOM      7  C   UNL     1       6.482   4.475  14.618  0.00  0.00    +0.000 A 
ATOM      8  C   UNL     1       5.569   4.709  15.612  0.00  0.00    +0.000 A 
ATOM      9  N   UNL     1       6.184   5.625  16.417  0.00  0.00    +0.000 N 
ATOM     10  N   UNL     1       7.380   5.978  15.914  0.00  0.00    +0.000 NA
ATOM     11  N   UNL     1       7.577   5.268  14.810  0.00  0.00    +0.000 NA
ENDBRANCH   1   9
TORSDOF 1
ENDMDL
