MODEL 1
REMARK VINA RESULT:      -7.8      0.000      0.000
REMARK  Name = 
REMARK  3 active torsions:
REMARK  status: ('A' for Active; 'I' for Inactive)
REMARK    1  A    between atoms: O_1  and  C_2
REMARK    2  A    between atoms: C_9  and  C_10
REMARK    3  A    between atoms: N_26  and  C_27
REMARK                            x       y       z     vdW  Elec       q    Type
REMARK                         _______ _______ _______ _____ _____    ______ ____
ROOT
ATOM      1  C   UNL     1      -1.775  17.534  25.647  0.00  0.00    +0.000 A 
ATOM      2  C   UNL     1      -3.156  17.423  25.551  0.00  0.00    +0.000 A 
ATOM      3  C   UNL     1      -3.742  16.315  24.926  0.00  0.00    +0.000 A 
ATOM      4  C   UNL     1      -2.891  15.305  24.426  0.00  0.00    +0.000 A 
ATOM      5  C   UNL     1      -1.508  15.424  24.529  0.00  0.00    +0.000 A 
ATOM      6  C   UNL     1      -0.935  16.546  25.144  0.00  0.00    +0.000 A 
ATOM      7  N   UNL     1      -0.882  14.379  23.936  0.00  0.00    +0.000 NA
ATOM      8  C   UNL     1      -1.815  13.632  23.368  0.00  0.00    +0.000 A 
ATOM      9  N   UNL     1      -3.102  14.126  23.682  0.00  0.00    +0.000 N 
ATOM     10  C   UNL     1      -4.354  13.621  23.275  0.00  0.00    +0.000 A 
ATOM     11  C   UNL     1      -5.486  13.752  24.060  0.00  0.00    +0.000 A 
ATOM     12  C   UNL     1      -6.629  13.186  23.591  0.00  0.00    +0.000 A 
ATOM     13  N   UNL     1      -6.706  12.488  22.446  0.00  0.00    +0.000 NA
ATOM     14  C   UNL     1      -5.591  12.393  21.728  0.00  0.00    +0.000 A 
ATOM     15  N   UNL     1      -5.543  11.678  20.559  0.00  0.00    +0.000 N 
ATOM     16  N   UNL     1      -4.434  12.966  22.082  0.00  0.00    +0.000 NA
ATOM     17  H   UNL     1      -4.660  11.852  20.095  0.00  0.00    +0.000 HD
ENDROOT
BRANCH   8  18
ATOM     18  C   UNL     1      -1.457  12.515  22.481  0.00  0.00    +0.000 A 
ATOM     19  C   UNL     1      -1.202  11.271  23.087  0.00  0.00    +0.000 A 
ATOM     20  C   UNL     1      -0.771  10.177  22.341  0.00  0.00    +0.000 A 
ATOM     21  C   UNL     1      -0.437  10.360  20.997  0.00  0.00    +0.000 A 
ATOM     22  C   UNL     1       0.170   9.351  20.259  0.00  0.00    +0.000 A 
ATOM     23  C   UNL     1       1.085   9.683  19.276  0.00  0.00    +0.000 A 
ATOM     24  C   UNL     1       0.974  10.932  18.688  0.00  0.00    +0.000 A 
ATOM     25  C   UNL     1       0.016  11.837  19.153  0.00  0.00    +0.000 A 
ATOM     26  C   UNL     1      -0.605  11.611  20.391  0.00  0.00    +0.000 A 
ATOM     27  C   UNL     1      -1.285  12.619  21.092  0.00  0.00    +0.000 A 
ENDBRANCH   8  18
BRANCH  15  28
ATOM     28  C   UNL     1      -6.718  11.383  19.756  0.00  0.00    +0.000 C 
ATOM     29  C   UNL     1      -7.419  12.621  19.189  0.00  0.00    +0.000 C 
ATOM     30  C   UNL     1      -6.513  13.421  18.260  0.00  0.00    +0.000 C 
ATOM     31  C   UNL     1      -5.962  12.571  17.120  0.00  0.00    +0.000 C 
ATOM     32  C   UNL     1      -5.397  11.221  17.567  0.00  0.00    +0.000 C 
ATOM     33  C   UNL     1      -6.298  10.490  18.568  0.00  0.00    +0.000 C 
ENDBRANCH  15  28
BRANCH   1  34
ATOM     34  O   UNL     1      -1.196  18.631  26.215  0.00  0.00    +0.000 OA
ATOM     35  H   UNL     1      -0.917  18.410  27.118  0.00  0.00    +0.000 HD
ENDBRANCH   1  34
TORSDOF 3
ENDMDL
MODEL 2
REMARK VINA RESULT:      -7.3      3.029      6.653
REMARK  Name = 
REMARK  3 active torsions:
REMARK  status: ('A' for Active; 'I' for Inactive)
REMARK    1  A    between atoms: O_1  and  C_2
REMARK    2  A    between atoms: C_9  and  C_10
REMARK    3  A    between atoms: N_26  and  C_27
REMARK                            x       y       z     vdW  Elec       q    Type
REMARK                         _______ _______ _______ _____ _____    ______ ____
ROOT
ATOM      1  C   UNL     1       1.460   9.635  17.942  0.00  0.00    +0.000 A 
ATOM      2  C   UNL     1       0.193   9.316  17.468  0.00  0.00    +0.000 A 
ATOM      3  C   UNL     1      -0.931  10.035  17.894  0.00  0.00    +0.000 A 
ATOM      4  C   UNL     1      -0.735  11.107  18.792  0.00  0.00    +0.000 A 
ATOM      5  C   UNL     1       0.538  11.421  19.260  0.00  0.00    +0.000 A 
ATOM      6  C   UNL     1       1.653  10.683  18.836  0.00  0.00    +0.000 A 
ATOM      7  N   UNL     1       0.494  12.439  20.152  0.00  0.00    +0.000 NA
ATOM      8  C   UNL     1      -0.782  12.735  20.350  0.00  0.00    +0.000 A 
ATOM      9  N   UNL     1      -1.603  11.973  19.487  0.00  0.00    +0.000 N 
ATOM     10  C   UNL     1      -3.010  11.987  19.385  0.00  0.00    +0.000 A 
ATOM     11  C   UNL     1      -3.659  11.716  18.194  0.00  0.00    +0.000 A 
ATOM     12  C   UNL     1      -5.016  11.804  18.198  0.00  0.00    +0.000 A 
ATOM     13  N   UNL     1      -5.741  12.171  19.268  0.00  0.00    +0.000 NA
ATOM     14  C   UNL     1      -5.069  12.420  20.388  0.00  0.00    +0.000 A 
ATOM     15  N   UNL     1      -5.700  12.833  21.532  0.00  0.00    +0.000 N 
ATOM     16  N   UNL     1      -3.740  12.303  20.493  0.00  0.00    +0.000 NA
ATOM     17  H   UNL     1      -5.042  12.822  22.301  0.00  0.00    +0.000 HD
ENDROOT
BRANCH   8  18
ATOM     18  C   UNL     1      -1.188  13.676  21.404  0.00  0.00    +0.000 A 
ATOM     19  C   UNL     1      -0.914  13.307  22.733  0.00  0.00    +0.000 A 
ATOM     20  C   UNL     1      -1.338  14.089  23.805  0.00  0.00    +0.000 A 
ATOM     21  C   UNL     1      -2.182  15.176  23.560  0.00  0.00    +0.000 A 
ATOM     22  C   UNL     1      -2.780  15.876  24.600  0.00  0.00    +0.000 A 
ATOM     23  C   UNL     1      -4.045  16.406  24.425  0.00  0.00    +0.000 A 
ATOM     24  C   UNL     1      -4.442  16.712  23.134  0.00  0.00    +0.000 A 
ATOM     25  C   UNL     1      -3.607  16.401  22.057  0.00  0.00    +0.000 A 
ATOM     26  C   UNL     1      -2.534  15.515  22.248  0.00  0.00    +0.000 A 
ATOM     27  C   UNL     1      -1.884  14.874  21.183  0.00  0.00    +0.000 A 
ENDBRANCH   8  18
BRANCH  15  28
ATOM     28  C   UNL     1      -7.107  12.585  21.801  0.00  0.00    +0.000 C 
ATOM     29  C   UNL     1      -7.416  12.242  23.261  0.00  0.00    +0.000 C 
ATOM     30  C   UNL     1      -7.040  13.373  24.211  0.00  0.00    +0.000 C 
ATOM     31  C   UNL     1      -7.713  14.689  23.835  0.00  0.00    +0.000 C 
ATOM     32  C   UNL     1      -7.616  15.035  22.348  0.00  0.00    +0.000 C 
ATOM     33  C   UNL     1      -7.916  13.846  21.429  0.00  0.00    +0.000 C 
ENDBRANCH  15  28
BRANCH   1  34
ATOM     34  O   UNL     1       2.553   8.912  17.567  0.00  0.00    +0.000 OA
ATOM     35  H   UNL     1       3.117   9.462  17.000  0.00  0.00    +0.000 HD
ENDBRANCH   1  34
TORSDOF 3
ENDMDL
MODEL 3
REMARK VINA RESULT:      -7.3      8.256     11.507
REMARK  Name = 
REMARK  3 active torsions:
REMARK  status: ('A' for Active; 'I' for Inactive)
REMARK    1  A    between atoms: O_1  and  C_2
REMARK    2  A    between atoms: C_9  and  C_10
REMARK    3  A    between atoms: N_26  and  C_27
REMARK                            x       y       z     vdW  Elec       q    Type
REMARK                         _______ _______ _______ _____ _____    ______ ____
ROOT
ATOM      1  C   UNL     1      11.330  11.969  18.291  0.00  0.00    +0.000 A 
ATOM      2  C   UNL     1      10.655  12.892  17.503  0.00  0.00    +0.000 A 
ATOM      3  C   UNL     1       9.619  13.667  18.039  0.00  0.00    +0.000 A 
ATOM      4  C   UNL     1       9.304  13.503  19.406  0.00  0.00    +0.000 A 
ATOM      5  C   UNL     1       9.988  12.577  20.189  0.00  0.00    +0.000 A 
ATOM      6  C   UNL     1      11.013  11.797  19.634  0.00  0.00    +0.000 A 
ATOM      7  N   UNL     1       9.491  12.539  21.448  0.00  0.00    +0.000 NA
ATOM      8  C   UNL     1       8.441  13.345  21.482  0.00  0.00    +0.000 A 
ATOM      9  N   UNL     1       8.301  14.023  20.250  0.00  0.00    +0.000 N 
ATOM     10  C   UNL     1       7.316  14.962  19.878  0.00  0.00    +0.000 A 
ATOM     11  C   UNL     1       7.576  15.974  18.970  0.00  0.00    +0.000 A 
ATOM     12  C   UNL     1       6.568  16.851  18.721  0.00  0.00    +0.000 A 
ATOM     13  N   UNL     1       5.370  16.810  19.327  0.00  0.00    +0.000 NA
ATOM     14  C   UNL     1       5.170  15.817  20.189  0.00  0.00    +0.000 A 
ATOM     15  N   UNL     1       3.999  15.694  20.889  0.00  0.00    +0.000 N 
ATOM     16  N   UNL     1       6.083  14.875  20.454  0.00  0.00    +0.000 NA
ATOM     17  H   UNL     1       3.988  14.803  21.371  0.00  0.00    +0.000 HD
ENDROOT
BRANCH   8  18
ATOM     18  C   UNL     1       7.558  13.393  22.657  0.00  0.00    +0.000 A 
ATOM     19  C   UNL     1       7.609  14.553  23.451  0.00  0.00    +0.000 A 
ATOM     20  C   UNL     1       6.876  14.656  24.631  0.00  0.00    +0.000 A 
ATOM     21  C   UNL     1       6.203  13.530  25.113  0.00  0.00    +0.000 A 
ATOM     22  C   UNL     1       5.613  13.524  26.371  0.00  0.00    +0.000 A 
ATOM     23  C   UNL     1       5.593  12.353  27.107  0.00  0.00    +0.000 A 
ATOM     24  C   UNL     1       5.639  11.156  26.414  0.00  0.00    +0.000 A 
ATOM     25  C   UNL     1       5.791  11.161  25.025  0.00  0.00    +0.000 A 
ATOM     26  C   UNL     1       6.206  12.338  24.380  0.00  0.00    +0.000 A 
ATOM     27  C   UNL     1       6.727  12.343  23.077  0.00  0.00    +0.000 A 
ENDBRANCH   8  18
BRANCH  15  28
ATOM     28  C   UNL     1       2.741  16.276  20.450  0.00  0.00    +0.000 C 
ATOM     29  C   UNL     1       2.230  15.731  19.113  0.00  0.00    +0.000 C 
ATOM     30  C   UNL     1       1.959  14.232  19.167  0.00  0.00    +0.000 C 
ATOM     31  C   UNL     1       0.986  13.863  20.282  0.00  0.00    +0.000 C 
ATOM     32  C   UNL     1       1.310  14.510  21.630  0.00  0.00    +0.000 C 
ATOM     33  C   UNL     1       1.663  15.997  21.518  0.00  0.00    +0.000 C 
ENDBRANCH  15  28
BRANCH   1  34
ATOM     34  O   UNL     1      12.310  11.179  17.765  0.00  0.00    +0.000 OA
ATOM     35  H   UNL     1      11.981  10.766  16.951  0.00  0.00    +0.000 HD
ENDBRANCH   1  34
TORSDOF 3
ENDMDL
MODEL 4
REMARK VINA RESULT:      -7.3      3.514      6.004
REMARK  Name = 
REMARK  3 active torsions:
REMARK  status: ('A' for Active; 'I' for Inactive)
REMARK    1  A    between atoms: O_1  and  C_2
REMARK    2  A    between atoms: C_9  and  C_10
REMARK    3  A    between atoms: N_26  and  C_27
REMARK                            x       y       z     vdW  Elec       q    Type
REMARK                         _______ _______ _______ _____ _____    ______ ____
ROOT
ATOM      1  C   UNL     1      -6.925  13.998  24.050  0.00  0.00    +0.000 A 
ATOM      2  C   UNL     1      -6.645  15.303  23.664  0.00  0.00    +0.000 A 
ATOM      3  C   UNL     1      -5.595  15.575  22.777  0.00  0.00    +0.000 A 
ATOM      4  C   UNL     1      -4.854  14.486  22.267  0.00  0.00    +0.000 A 
ATOM      5  C   UNL     1      -5.144  13.182  22.658  0.00  0.00    +0.000 A 
ATOM      6  C   UNL     1      -6.189  12.926  23.559  0.00  0.00    +0.000 A 
ATOM      7  N   UNL     1      -4.280  12.301  22.100  0.00  0.00    +0.000 NA
ATOM      8  C   UNL     1      -3.378  13.002  21.432  0.00  0.00    +0.000 A 
ATOM      9  N   UNL     1      -3.710  14.376  21.451  0.00  0.00    +0.000 N 
ATOM     10  C   UNL     1      -3.011  15.451  20.863  0.00  0.00    +0.000 A 
ATOM     11  C   UNL     1      -3.660  16.587  20.412  0.00  0.00    +0.000 A 
ATOM     12  C   UNL     1      -2.893  17.539  19.819  0.00  0.00    +0.000 A 
ATOM     13  N   UNL     1      -1.571  17.420  19.617  0.00  0.00    +0.000 NA
ATOM     14  C   UNL     1      -0.995  16.311  20.071  0.00  0.00    +0.000 A 
ATOM     15  N   UNL     1       0.342  16.067  19.892  0.00  0.00    +0.000 N 
ATOM     16  N   UNL     1      -1.659  15.346  20.717  0.00  0.00    +0.000 NA
ATOM     17  H   UNL     1       0.610  15.254  20.433  0.00  0.00    +0.000 HD
ENDROOT
BRANCH   8  18
ATOM     18  C   UNL     1      -2.187  12.358  20.860  0.00  0.00    +0.000 A 
ATOM     19  C   UNL     1      -2.156  12.193  19.463  0.00  0.00    +0.000 A 
ATOM     20  C   UNL     1      -1.112  11.516  18.836  0.00  0.00    +0.000 A 
ATOM     21  C   UNL     1      -0.163  10.856  19.621  0.00  0.00    +0.000 A 
ATOM     22  C   UNL     1       0.788  10.017  19.053  0.00  0.00    +0.000 A 
ATOM     23  C   UNL     1       1.212   8.899  19.749  0.00  0.00    +0.000 A 
ATOM     24  C   UNL     1       1.127   8.931  21.130  0.00  0.00    +0.000 A 
ATOM     25  C   UNL     1       0.545  10.031  21.767  0.00  0.00    +0.000 A 
ATOM     26  C   UNL     1      -0.220  10.937  21.017  0.00  0.00    +0.000 A 
ATOM     27  C   UNL     1      -1.121  11.837  21.609  0.00  0.00    +0.000 A 
ENDBRANCH   8  18
BRANCH  15  28
ATOM     28  C   UNL     1       1.321  17.116  19.661  0.00  0.00    +0.000 C 
ATOM     29  C   UNL     1       2.441  17.171  20.705  0.00  0.00    +0.000 C 
ATOM     30  C   UNL     1       3.260  15.886  20.739  0.00  0.00    +0.000 C 
ATOM     31  C   UNL     1       3.842  15.538  19.373  0.00  0.00    +0.000 C 
ATOM     32  C   UNL     1       2.835  15.631  18.225  0.00  0.00    +0.000 C 
ATOM     33  C   UNL     1       1.972  16.896  18.279  0.00  0.00    +0.000 C 
ENDBRANCH  15  28
BRANCH   1  34
ATOM     34  O   UNL     1      -7.917  13.729  24.947  0.00  0.00    +0.000 OA
ATOM     35  H   UNL     1      -7.638  14.031  25.826  0.00  0.00    +0.000 HD
ENDBRANCH   1  34
TORSDOF 3
ENDMDL
MODEL 5
REMARK VINA RESULT:      -7.2      4.470      8.007
REMARK  Name = 
REMARK  3 active torsions:
REMARK  status: ('A' for Active; 'I' for Inactive)
REMARK    1  A    between atoms: O_1  and  C_2
REMARK    2  A    between atoms: C_9  and  C_10
REMARK    3  A    between atoms: N_26  and  C_27
REMARK                            x       y       z     vdW  Elec       q    Type
REMARK                         _______ _______ _______ _____ _____    ______ ____
ROOT
ATOM      1  C   UNL     1       2.136   7.140  19.626  0.00  0.00    +0.000 A 
ATOM      2  C   UNL     1       1.429   7.295  20.812  0.00  0.00    +0.000 A 
ATOM      3  C   UNL     1       0.862   8.530  21.151  0.00  0.00    +0.000 A 
ATOM      4  C   UNL     1       1.005   9.600  20.241  0.00  0.00    +0.000 A 
ATOM      5  C   UNL     1       1.713   9.436  19.053  0.00  0.00    +0.000 A 
ATOM      6  C   UNL     1       2.288   8.197  18.735  0.00  0.00    +0.000 A 
ATOM      7  N   UNL     1       1.779  10.596  18.358  0.00  0.00    +0.000 NA
ATOM      8  C   UNL     1       1.215  11.534  19.104  0.00  0.00    +0.000 A 
ATOM      9  N   UNL     1       0.661  10.967  20.274  0.00  0.00    +0.000 N 
ATOM     10  C   UNL     1      -0.020  11.620  21.322  0.00  0.00    +0.000 A 
ATOM     11  C   UNL     1      -1.006  10.988  22.059  0.00  0.00    +0.000 A 
ATOM     12  C   UNL     1      -1.630  11.728  23.014  0.00  0.00    +0.000 A 
ATOM     13  N   UNL     1      -1.371  13.025  23.247  0.00  0.00    +0.000 NA
ATOM     14  C   UNL     1      -0.413  13.584  22.513  0.00  0.00    +0.000 A 
ATOM     15  N   UNL     1      -0.086  14.909  22.642  0.00  0.00    +0.000 N 
ATOM     16  N   UNL     1       0.293  12.920  21.591  0.00  0.00    +0.000 NA
ATOM     17  H   UNL     1       0.755  15.100  22.111  0.00  0.00    +0.000 HD
ENDROOT
BRANCH   8  18
ATOM     18  C   UNL     1       1.285  12.952  18.720  0.00  0.00    +0.000 A 
ATOM     19  C   UNL     1       2.566  13.501  18.527  0.00  0.00    +0.000 A 
ATOM     20  C   UNL     1       2.739  14.855  18.248  0.00  0.00    +0.000 A 
ATOM     21  C   UNL     1       1.635  15.709  18.316  0.00  0.00    +0.000 A 
ATOM     22  C   UNL     1       1.781  17.088  18.229  0.00  0.00    +0.000 A 
ATOM     23  C   UNL     1       0.932  17.909  18.950  0.00  0.00    +0.000 A 
ATOM     24  C   UNL     1      -0.320  17.415  19.273  0.00  0.00    +0.000 A 
ATOM     25  C   UNL     1      -0.654  16.097  18.947  0.00  0.00    +0.000 A 
ATOM     26  C   UNL     1       0.361  15.197  18.588  0.00  0.00    +0.000 A 
ATOM     27  C   UNL     1       0.178  13.805  18.602  0.00  0.00    +0.000 A 
ENDBRANCH   8  18
BRANCH  15  28
ATOM     28  C   UNL     1      -0.356  15.685  23.841  0.00  0.00    +0.000 C 
ATOM     29  C   UNL     1       0.606  16.855  24.062  0.00  0.00    +0.000 C 
ATOM     30  C   UNL     1       0.547  17.873  22.929  0.00  0.00    +0.000 C 
ATOM     31  C   UNL     1      -0.866  18.400  22.701  0.00  0.00    +0.000 C 
ATOM     32  C   UNL     1      -1.936  17.309  22.646  0.00  0.00    +0.000 C 
ATOM     33  C   UNL     1      -1.787  16.258  23.752  0.00  0.00    +0.000 C 
ENDBRANCH  15  28
BRANCH   1  34
ATOM     34  O   UNL     1       2.728   5.953  19.311  0.00  0.00    +0.000 OA
ATOM     35  H   UNL     1       2.929   5.942  18.361  0.00  0.00    +0.000 HD
ENDBRANCH   1  34
TORSDOF 3
ENDMDL
MODEL 6
REMARK VINA RESULT:      -7.0      2.578      3.799
REMARK  Name = 
REMARK  3 active torsions:
REMARK  status: ('A' for Active; 'I' for Inactive)
REMARK    1  A    between atoms: O_1  and  C_2
REMARK    2  A    between atoms: C_9  and  C_10
REMARK    3  A    between atoms: N_26  and  C_27
REMARK                            x       y       z     vdW  Elec       q    Type
REMARK                         _______ _______ _______ _____ _____    ______ ____
ROOT
ATOM      1  C   UNL     1       2.361  16.054  22.053  0.00  0.00    +0.000 A 
ATOM      2  C   UNL     1       1.317  16.210  22.955  0.00  0.00    +0.000 A 
ATOM      3  C   UNL     1       0.192  15.377  22.898  0.00  0.00    +0.000 A 
ATOM      4  C   UNL     1       0.167  14.359  21.918  0.00  0.00    +0.000 A 
ATOM      5  C   UNL     1       1.219  14.209  21.020  0.00  0.00    +0.000 A 
ATOM      6  C   UNL     1       2.332  15.061  21.080  0.00  0.00    +0.000 A 
ATOM      7  N   UNL     1       0.967  13.217  20.133  0.00  0.00    +0.000 NA
ATOM      8  C   UNL     1      -0.260  12.780  20.369  0.00  0.00    +0.000 A 
ATOM      9  N   UNL     1      -0.799  13.417  21.510  0.00  0.00    +0.000 N 
ATOM     10  C   UNL     1      -2.071  13.236  22.091  0.00  0.00    +0.000 A 
ATOM     11  C   UNL     1      -2.285  13.397  23.449  0.00  0.00    +0.000 A 
ATOM     12  C   UNL     1      -3.541  13.150  23.908  0.00  0.00    +0.000 A 
ATOM     13  N   UNL     1      -4.554  12.730  23.133  0.00  0.00    +0.000 NA
ATOM     14  C   UNL     1      -4.297  12.593  21.835  0.00  0.00    +0.000 A 
ATOM     15  N   UNL     1      -5.245  12.139  20.956  0.00  0.00    +0.000 N 
ATOM     16  N   UNL     1      -3.108  12.866  21.286  0.00  0.00    +0.000 NA
ATOM     17  H   UNL     1      -4.903  12.248  20.009  0.00  0.00    +0.000 HD
ENDROOT
BRANCH   8  18
ATOM     18  C   UNL     1      -0.914  11.827  19.460  0.00  0.00    +0.000 A 
ATOM     19  C   UNL     1      -0.122  10.782  18.949  0.00  0.00    +0.000 A 
ATOM     20  C   UNL     1      -0.627   9.882  18.014  0.00  0.00    +0.000 A 
ATOM     21  C   UNL     1      -1.888  10.114  17.460  0.00  0.00    +0.000 A 
ATOM     22  C   UNL     1      -2.361   9.356  16.395  0.00  0.00    +0.000 A 
ATOM     23  C   UNL     1      -3.171   9.949  15.444  0.00  0.00    +0.000 A 
ATOM     24  C   UNL     1      -3.917  11.050  15.830  0.00  0.00    +0.000 A 
ATOM     25  C   UNL     1      -3.769  11.575  17.117  0.00  0.00    +0.000 A 
ATOM     26  C   UNL     1      -2.663  11.195  17.894  0.00  0.00    +0.000 A 
ATOM     27  C   UNL     1      -2.241  11.925  19.017  0.00  0.00    +0.000 A 
ENDBRANCH   8  18
BRANCH  15  28
ATOM     28  C   UNL     1      -6.674  12.228  21.207  0.00  0.00    +0.000 C 
ATOM     29  C   UNL     1      -7.268  13.620  20.968  0.00  0.00    +0.000 C 
ATOM     30  C   UNL     1      -7.105  14.076  19.523  0.00  0.00    +0.000 C 
ATOM     31  C   UNL     1      -7.704  13.081  18.534  0.00  0.00    +0.000 C 
ATOM     32  C   UNL     1      -7.312  11.627  18.800  0.00  0.00    +0.000 C 
ATOM     33  C   UNL     1      -7.406  11.235  20.279  0.00  0.00    +0.000 C 
ENDBRANCH  15  28
BRANCH   1  34
ATOM     34  O   UNL     1       3.439  16.890  22.074  0.00  0.00    +0.000 OA
ATOM     35  H   UNL     1       3.138  17.789  22.280  0.00  0.00    +0.000 HD
ENDBRANCH   1  34
TORSDOF 3
ENDMDL
MODEL 7
REMARK VINA RESULT:      -7.0      3.505      8.294
REMARK  Name = 
REMARK  3 active torsions:
REMARK  status: ('A' for Active; 'I' for Inactive)
REMARK    1  A    between atoms: O_1  and  C_2
REMARK    2  A    between atoms: C_9  and  C_10
REMARK    3  A    between atoms: N_26  and  C_27
REMARK                            x       y       z     vdW  Elec       q    Type
REMARK                         _______ _______ _______ _____ _____    ______ ____
ROOT
ATOM      1  C   UNL     1      -3.703  10.473  15.915  0.00  0.00    +0.000 A 
ATOM      2  C   UNL     1      -2.332  10.492  16.139  0.00  0.00    +0.000 A 
ATOM      3  C   UNL     1      -1.808  11.036  17.319  0.00  0.00    +0.000 A 
ATOM      4  C   UNL     1      -2.713  11.533  18.282  0.00  0.00    +0.000 A 
ATOM      5  C   UNL     1      -4.086  11.507  18.050  0.00  0.00    +0.000 A 
ATOM      6  C   UNL     1      -4.595  10.974  16.857  0.00  0.00    +0.000 A 
ATOM      7  N   UNL     1      -4.765  12.084  19.070  0.00  0.00    +0.000 NA
ATOM      8  C   UNL     1      -3.869  12.569  19.915  0.00  0.00    +0.000 A 
ATOM      9  N   UNL     1      -2.564  12.211  19.509  0.00  0.00    +0.000 N 
ATOM     10  C   UNL     1      -1.339  12.530  20.130  0.00  0.00    +0.000 A 
ATOM     11  C   UNL     1      -0.238  11.694  20.050  0.00  0.00    +0.000 A 
ATOM     12  C   UNL     1       0.876  12.077  20.727  0.00  0.00    +0.000 A 
ATOM     13  N   UNL     1       0.951  13.184  21.484  0.00  0.00    +0.000 NA
ATOM     14  C   UNL     1      -0.132  13.954  21.526  0.00  0.00    +0.000 A 
ATOM     15  N   UNL     1      -0.181  15.090  22.292  0.00  0.00    +0.000 N 
ATOM     16  N   UNL     1      -1.254  13.686  20.848  0.00  0.00    +0.000 NA
ATOM     17  H   UNL     1      -1.024  15.606  22.071  0.00  0.00    +0.000 HD
ENDROOT
BRANCH   8  18
ATOM     18  C   UNL     1      -4.274  13.422  21.043  0.00  0.00    +0.000 A 
ATOM     19  C   UNL     1      -4.973  14.603  20.735  0.00  0.00    +0.000 A 
ATOM     20  C   UNL     1      -5.321  15.518  21.725  0.00  0.00    +0.000 A 
ATOM     21  C   UNL     1      -4.833  15.334  23.021  0.00  0.00    +0.000 A 
ATOM     22  C   UNL     1      -4.995  16.308  24.000  0.00  0.00    +0.000 A 
ATOM     23  C   UNL     1      -4.010  16.483  24.955  0.00  0.00    +0.000 A 
ATOM     24  C   UNL     1      -3.205  15.398  25.256  0.00  0.00    +0.000 A 
ATOM     25  C   UNL     1      -3.346  14.206  24.540  0.00  0.00    +0.000 A 
ATOM     26  C   UNL     1      -4.066  14.206  23.334  0.00  0.00    +0.000 A 
ATOM     27  C   UNL     1      -3.955  13.176  22.387  0.00  0.00    +0.000 A 
ENDBRANCH   8  18
BRANCH  15  28
ATOM     28  C   UNL     1       1.003  15.817  22.718  0.00  0.00    +0.000 C 
ATOM     29  C   UNL     1       1.699  16.595  21.597  0.00  0.00    +0.000 C 
ATOM     30  C   UNL     1       0.796  17.661  20.988  0.00  0.00    +0.000 C 
ATOM     31  C   UNL     1       0.261  18.631  22.036  0.00  0.00    +0.000 C 
ATOM     32  C   UNL     1      -0.297  17.950  23.287  0.00  0.00    +0.000 C 
ATOM     33  C   UNL     1       0.600  16.825  23.815  0.00  0.00    +0.000 C 
ENDBRANCH  15  28
BRANCH   1  34
ATOM     34  O   UNL     1      -4.217   9.986  14.749  0.00  0.00    +0.000 OA
ATOM     35  H   UNL     1      -3.489   9.802  14.134  0.00  0.00    +0.000 HD
ENDBRANCH   1  34
TORSDOF 3
ENDMDL
MODEL 8
REMARK VINA RESULT:      -6.9      3.106      6.767
REMARK  Name = 
REMARK  3 active torsions:
REMARK  status: ('A' for Active; 'I' for Inactive)
REMARK    1  A    between atoms: O_1  and  C_2
REMARK    2  A    between atoms: C_9  and  C_10
REMARK    3  A    between atoms: N_26  and  C_27
REMARK                            x       y       z     vdW  Elec       q    Type
REMARK                         _______ _______ _______ _____ _____    ______ ____
ROOT
ATOM      1  C   UNL     1       1.458   9.606  18.060  0.00  0.00    +0.000 A 
ATOM      2  C   UNL     1       0.204   9.222  17.602  0.00  0.00    +0.000 A 
ATOM      3  C   UNL     1      -0.933   9.982  17.908  0.00  0.00    +0.000 A 
ATOM      4  C   UNL     1      -0.761  11.160  18.667  0.00  0.00    +0.000 A 
ATOM      5  C   UNL     1       0.499  11.538  19.120  0.00  0.00    +0.000 A 
ATOM      6  C   UNL     1       1.626  10.759  18.819  0.00  0.00    +0.000 A 
ATOM      7  N   UNL     1       0.431  12.660  19.876  0.00  0.00    +0.000 NA
ATOM      8  C   UNL     1      -0.849  12.971  20.006  0.00  0.00    +0.000 A 
ATOM      9  N   UNL     1      -1.648  12.102  19.228  0.00  0.00    +0.000 N 
ATOM     10  C   UNL     1      -3.051  12.094  19.093  0.00  0.00    +0.000 A 
ATOM     11  C   UNL     1      -3.673  11.671  17.931  0.00  0.00    +0.000 A 
ATOM     12  C   UNL     1      -5.029  11.751  17.893  0.00  0.00    +0.000 A 
ATOM     13  N   UNL     1      -5.780  12.245  18.891  0.00  0.00    +0.000 NA
ATOM     14  C   UNL     1      -5.135  12.637  19.987  0.00  0.00    +0.000 A 
ATOM     15  N   UNL     1      -5.794  13.188  21.054  0.00  0.00    +0.000 N 
ATOM     16  N   UNL     1      -3.808  12.543  20.135  0.00  0.00    +0.000 NA
ATOM     17  H   UNL     1      -5.154  13.277  21.834  0.00  0.00    +0.000 HD
ENDROOT
BRANCH   8  18
ATOM     18  C   UNL     1      -1.282  14.035  20.923  0.00  0.00    +0.000 A 
ATOM     19  C   UNL     1      -1.458  15.319  20.378  0.00  0.00    +0.000 A 
ATOM     20  C   UNL     1      -1.781  16.410  21.182  0.00  0.00    +0.000 A 
ATOM     21  C   UNL     1      -1.778  16.254  22.571  0.00  0.00    +0.000 A 
ATOM     22  C   UNL     1      -1.911  17.346  23.421  0.00  0.00    +0.000 A 
ATOM     23  C   UNL     1      -1.246  17.348  24.634  0.00  0.00    +0.000 A 
ATOM     24  C   UNL     1      -0.942  16.123  25.204  0.00  0.00    +0.000 A 
ATOM     25  C   UNL     1      -1.229  14.943  24.512  0.00  0.00    +0.000 A 
ATOM     26  C   UNL     1      -1.525  15.001  23.141  0.00  0.00    +0.000 A 
ATOM     27  C   UNL     1      -1.465  13.875  22.305  0.00  0.00    +0.000 A 
ENDBRANCH   8  18
BRANCH  15  28
ATOM     28  C   UNL     1      -7.206  12.967  21.321  0.00  0.00    +0.000 C 
ATOM     29  C   UNL     1      -7.484  12.068  22.529  0.00  0.00    +0.000 C 
ATOM     30  C   UNL     1      -6.940  12.660  23.825  0.00  0.00    +0.000 C 
ATOM     31  C   UNL     1      -7.478  14.063  24.088  0.00  0.00    +0.000 C 
ATOM     32  C   UNL     1      -7.410  14.993  22.875  0.00  0.00    +0.000 C 
ATOM     33  C   UNL     1      -7.884  14.330  21.577  0.00  0.00    +0.000 C 
ENDBRANCH  15  28
BRANCH   1  34
ATOM     34  O   UNL     1       2.562   8.848  17.804  0.00  0.00    +0.000 OA
ATOM     35  H   UNL     1       2.885   8.467  18.636  0.00  0.00    +0.000 HD
ENDBRANCH   1  34
TORSDOF 3
ENDMDL
MODEL 9
REMARK VINA RESULT:      -6.9      9.125     12.416
REMARK  Name = 
REMARK  3 active torsions:
REMARK  status: ('A' for Active; 'I' for Inactive)
REMARK    1  A    between atoms: O_1  and  C_2
REMARK    2  A    between atoms: C_9  and  C_10
REMARK    3  A    between atoms: N_26  and  C_27
REMARK                            x       y       z     vdW  Elec       q    Type
REMARK                         _______ _______ _______ _____ _____    ______ ____
ROOT
ATOM      1  C   UNL     1       1.649  16.826  20.885  0.00  0.00    +0.000 A 
ATOM      2  C   UNL     1       1.959  15.684  21.613  0.00  0.00    +0.000 A 
ATOM      3  C   UNL     1       3.284  15.245  21.725  0.00  0.00    +0.000 A 
ATOM      4  C   UNL     1       4.294  16.012  21.102  0.00  0.00    +0.000 A 
ATOM      5  C   UNL     1       3.975  17.156  20.377  0.00  0.00    +0.000 A 
ATOM      6  C   UNL     1       2.641  17.575  20.261  0.00  0.00    +0.000 A 
ATOM      7  N   UNL     1       5.080  17.703  19.816  0.00  0.00    +0.000 NA
ATOM      8  C   UNL     1       6.096  16.896  20.078  0.00  0.00    +0.000 A 
ATOM      9  N   UNL     1       5.683  15.844  20.927  0.00  0.00    +0.000 N 
ATOM     10  C   UNL     1       6.455  14.779  21.434  0.00  0.00    +0.000 A 
ATOM     11  C   UNL     1       6.180  14.194  22.658  0.00  0.00    +0.000 A 
ATOM     12  C   UNL     1       7.018  13.207  23.071  0.00  0.00    +0.000 A 
ATOM     13  N   UNL     1       8.100  12.805  22.384  0.00  0.00    +0.000 NA
ATOM     14  C   UNL     1       8.320  13.397  21.214  0.00  0.00    +0.000 A 
ATOM     15  N   UNL     1       9.411  13.091  20.443  0.00  0.00    +0.000 N 
ATOM     16  N   UNL     1       7.517  14.338  20.701  0.00  0.00    +0.000 NA
ATOM     17  H   UNL     1       9.316  13.534  19.538  0.00  0.00    +0.000 HD
ENDROOT
BRANCH   8  18
ATOM     18  C   UNL     1       7.411  17.105  19.454  0.00  0.00    +0.000 A 
ATOM     19  C   UNL     1       7.683  16.388  18.275  0.00  0.00    +0.000 A 
ATOM     20  C   UNL     1       8.931  16.451  17.660  0.00  0.00    +0.000 A 
ATOM     21  C   UNL     1       9.975  17.115  18.309  0.00  0.00    +0.000 A 
ATOM     22  C   UNL     1      11.278  17.052  17.832  0.00  0.00    +0.000 A 
ATOM     23  C   UNL     1      12.332  17.059  18.728  0.00  0.00    +0.000 A 
ATOM     24  C   UNL     1      12.127  17.660  19.959  0.00  0.00    +0.000 A 
ATOM     25  C   UNL     1      10.862  18.154  20.290  0.00  0.00    +0.000 A 
ATOM     26  C   UNL     1       9.748  17.769  19.526  0.00  0.00    +0.000 A 
ATOM     27  C   UNL     1       8.430  17.911  19.985  0.00  0.00    +0.000 A 
ENDBRANCH   8  18
BRANCH  15  28
ATOM     28  C   UNL     1      10.131  11.832  20.543  0.00  0.00    +0.000 C 
ATOM     29  C   UNL     1       9.619  10.740  19.600  0.00  0.00    +0.000 C 
ATOM     30  C   UNL     1       9.748  11.137  18.134  0.00  0.00    +0.000 C 
ATOM     31  C   UNL     1      11.179  11.513  17.763  0.00  0.00    +0.000 C 
ATOM     32  C   UNL     1      11.847  12.470  18.752  0.00  0.00    +0.000 C 
ATOM     33  C   UNL     1      11.619  12.082  20.217  0.00  0.00    +0.000 C 
ENDBRANCH  15  28
BRANCH   1  34
ATOM     34  O   UNL     1       0.357  17.234  20.735  0.00  0.00    +0.000 OA
ATOM     35  H   UNL     1      -0.080  16.667  20.080  0.00  0.00    +0.000 HD
ENDBRANCH   1  34
TORSDOF 3
ENDMDL
