MODEL 1
REMARK VINA RESULT:      -9.6      0.000      0.000
REMARK  Name = 
REMARK  4 active torsions:
REMARK  status: ('A' for Active; 'I' for Inactive)
REMARK    1  A    between atoms: C_1  and  C_2
REMARK    2  A    between atoms: C_5  and  C_6
REMARK    3  A    between atoms: C_27  and  C_28
REMARK    4  A    between atoms: C_30  and  C_31
REMARK                            x       y       z     vdW  Elec       q    Type
REMARK                         _______ _______ _______ _____ _____    ______ ____
ROOT
ATOM      1  C   UNL     1       1.450   8.972  19.024  0.00  0.00    +0.000 A 
ATOM      2  N   UNL     1       0.794   9.267  17.917  0.00  0.00    +0.000 NA
ATOM      3  O   UNL     1       0.249  10.439  18.175  0.00  0.00    +0.000 OA
ATOM      4  C   UNL     1      -0.026  10.577  19.470  0.00  0.00    +0.000 A 
ATOM      5  C   UNL     1      -1.143  11.473  19.618  0.00  0.00    +0.000 A 
ATOM      6  F   UNL     1      -1.517  11.994  18.438  0.00  0.00    +0.000 F 
ATOM      7  C   UNL     1      -1.901  11.793  20.741  0.00  0.00    +0.000 A 
ATOM      8  C   UNL     1      -1.229  11.435  21.873  0.00  0.00    +0.000 A 
ATOM      9  C   UNL     1       0.073  10.542  21.649  0.00  0.00    +0.000 A 
ATOM     10  C   UNL     1       0.760   9.772  20.393  0.00  0.00    +0.000 A 
ATOM     11  C   UNL     1      -1.915  11.948  23.216  0.00  0.00    +0.000 C 
ATOM     12  C   UNL     1      -3.073  13.086  23.080  0.00  0.00    +0.000 C 
ATOM     13  C   UNL     1      -3.945  13.135  24.345  0.00  0.00    +0.000 C 
ATOM     14  O   UNL     1      -4.545  12.144  24.764  0.00  0.00    +0.000 OA
ATOM     15  N   UNL     1      -4.176  14.352  24.955  0.00  0.00    +0.000 N 
ATOM     16  C   UNL     1      -3.729  15.584  24.563  0.00  0.00    +0.000 C 
ATOM     17  O   UNL     1      -4.054  16.610  25.124  0.00  0.00    +0.000 OA
ATOM     18  N   UNL     1      -2.891  15.556  23.486  0.00  0.00    +0.000 N 
ATOM     19  C   UNL     1      -2.458  14.460  22.787  0.00  0.00    +0.000 C 
ATOM     20  O   UNL     1      -1.586  14.655  21.938  0.00  0.00    +0.000 OA
ATOM     21  C   UNL     1      -3.983  12.627  21.906  0.00  0.00    +0.000 C 
ATOM     22  C   UNL     1      -5.256  13.545  21.607  0.00  0.00    +0.000 C 
ATOM     23  C   UNL     1      -6.362  13.502  22.670  0.00  0.00    +0.000 C 
ATOM     24  O   UNL     1      -5.962  13.110  20.424  0.00  0.00    +0.000 OA
ATOM     25  C   UNL     1      -5.118  13.132  19.278  0.00  0.00    +0.000 C 
ATOM     26  C   UNL     1      -5.922  12.657  18.071  0.00  0.00    +0.000 C 
ATOM     27  C   UNL     1      -3.936  12.180  19.465  0.00  0.00    +0.000 C 
ATOM     28  N   UNL     1      -3.134  12.483  20.675  0.00  0.00    +0.000 N 
ATOM     29  H   UNL     1      -4.855  14.372  25.707  0.00  0.00    +0.000 HD
ATOM     30  H   UNL     1      -2.466  16.438  23.227  0.00  0.00    +0.000 HD
ENDROOT
BRANCH   1  35
ATOM     31  C   UNL     1       5.711   4.795  17.409  0.00  0.00    +0.000 C 
ATOM     32  C   UNL     1       4.592   5.729  17.918  0.00  0.00    +0.000 A 
ATOM     33  C   UNL     1       4.362   6.922  17.244  0.00  0.00    +0.000 A 
ATOM     34  C   UNL     1       3.312   7.841  17.585  0.00  0.00    +0.000 A 
ATOM     35  C   UNL     1       2.409   7.666  18.601  0.00  0.00    +0.000 A 
ATOM     36  C   UNL     1       2.800   6.463  19.349  0.00  0.00    +0.000 A 
ATOM     37  N   UNL     1       3.830   5.495  19.011  0.00  0.00    +0.000 NA
ENDBRANCH   1  35
TORSDOF 1
ENDMDL
MODEL 2
REMARK VINA RESULT:      -9.3      1.022      1.229
REMARK  Name = 
REMARK  4 active torsions:
REMARK  status: ('A' for Active; 'I' for Inactive)
REMARK    1  A    between atoms: C_1  and  C_2
REMARK    2  A    between atoms: C_5  and  C_6
REMARK    3  A    between atoms: C_27  and  C_28
REMARK    4  A    between atoms: C_30  and  C_31
REMARK                            x       y       z     vdW  Elec       q    Type
REMARK                         _______ _______ _______ _____ _____    ______ ____
ROOT
ATOM      1  C   UNL     1       1.154   9.486  19.171  0.00  0.00    +0.000 A 
ATOM      2  N   UNL     1       0.532   9.629  18.015  0.00  0.00    +0.000 NA
ATOM      3  O   UNL     1      -0.150  10.748  18.160  0.00  0.00    +0.000 OA
ATOM      4  C   UNL     1      -0.509  10.943  19.427  0.00  0.00    +0.000 A 
ATOM      5  C   UNL     1      -1.722  11.716  19.455  0.00  0.00    +0.000 A 
ATOM      6  F   UNL     1      -2.085  12.111  18.223  0.00  0.00    +0.000 F 
ATOM      7  C   UNL     1      -2.571  12.026  20.514  0.00  0.00    +0.000 A 
ATOM      8  C   UNL     1      -1.927  11.824  21.700  0.00  0.00    +0.000 A 
ATOM      9  C   UNL     1      -0.526  11.069  21.605  0.00  0.00    +0.000 A 
ATOM     10  C   UNL     1       0.308  10.297  20.443  0.00  0.00    +0.000 A 
ATOM     11  C   UNL     1      -2.737  12.350  22.968  0.00  0.00    +0.000 C 
ATOM     12  C   UNL     1      -4.002  13.339  22.693  0.00  0.00    +0.000 C 
ATOM     13  C   UNL     1      -4.942  13.377  23.908  0.00  0.00    +0.000 C 
ATOM     14  O   UNL     1      -5.454  12.356  24.372  0.00  0.00    +0.000 OA
ATOM     15  N   UNL     1      -5.337  14.599  24.414  0.00  0.00    +0.000 N 
ATOM     16  C   UNL     1      -5.004  15.844  23.953  0.00  0.00    +0.000 C 
ATOM     17  O   UNL     1      -5.468  16.864  24.421  0.00  0.00    +0.000 OA
ATOM     18  N   UNL     1      -4.110  15.836  22.922  0.00  0.00    +0.000 N 
ATOM     19  C   UNL     1      -3.524  14.749  22.327  0.00  0.00    +0.000 C 
ATOM     20  O   UNL     1      -2.633  14.981  21.508  0.00  0.00    +0.000 OA
ATOM     21  C   UNL     1      -4.791  12.701  21.515  0.00  0.00    +0.000 C 
ATOM     22  C   UNL     1      -6.138  13.449  21.089  0.00  0.00    +0.000 C 
ATOM     23  C   UNL     1      -7.289  13.356  22.099  0.00  0.00    +0.000 C 
ATOM     24  O   UNL     1      -6.726  12.857  19.910  0.00  0.00    +0.000 OA
ATOM     25  C   UNL     1      -5.828  12.894  18.806  0.00  0.00    +0.000 C 
ATOM     26  C   UNL     1      -6.510  12.250  17.602  0.00  0.00    +0.000 C 
ATOM     27  C   UNL     1      -4.563  12.095  19.119  0.00  0.00    +0.000 C 
ATOM     28  N   UNL     1      -3.865  12.568  20.340  0.00  0.00    +0.000 N 
ATOM     29  H   UNL     1      -6.054  14.596  25.131  0.00  0.00    +0.000 HD
ATOM     30  H   UNL     1      -3.770  16.740  22.618  0.00  0.00    +0.000 HD
ENDROOT
BRANCH   1  35
ATOM     31  C   UNL     1       4.530   4.385  18.279  0.00  0.00    +0.000 C 
ATOM     32  C   UNL     1       3.767   5.724  18.377  0.00  0.00    +0.000 A 
ATOM     33  C   UNL     1       2.935   5.937  19.468  0.00  0.00    +0.000 A 
ATOM     34  C   UNL     1       2.222   7.163  19.700  0.00  0.00    +0.000 A 
ATOM     35  C   UNL     1       2.270   8.269  18.892  0.00  0.00    +0.000 A 
ATOM     36  C   UNL     1       3.052   7.920  17.698  0.00  0.00    +0.000 A 
ATOM     37  N   UNL     1       3.813   6.708  17.450  0.00  0.00    +0.000 NA
ENDBRANCH   1  35
TORSDOF 1
ENDMDL
MODEL 3
REMARK VINA RESULT:      -9.1      3.676     11.201
REMARK  Name = 
REMARK  4 active torsions:
REMARK  status: ('A' for Active; 'I' for Inactive)
REMARK    1  A    between atoms: C_1  and  C_2
REMARK    2  A    between atoms: C_5  and  C_6
REMARK    3  A    between atoms: C_27  and  C_28
REMARK    4  A    between atoms: C_30  and  C_31
REMARK                            x       y       z     vdW  Elec       q    Type
REMARK                         _______ _______ _______ _____ _____    ______ ____
ROOT
ATOM      1  C   UNL     1      -0.321  10.361  19.909  0.00  0.00    +0.000 A 
ATOM      2  N   UNL     1      -0.673   9.633  20.953  0.00  0.00    +0.000 NA
ATOM      3  O   UNL     1       0.401   8.912  21.210  0.00  0.00    +0.000 OA
ATOM      4  C   UNL     1       1.098   8.658  20.104  0.00  0.00    +0.000 A 
ATOM      5  C   UNL     1       1.804   7.415  20.273  0.00  0.00    +0.000 A 
ATOM      6  F   UNL     1       1.653   6.926  21.515  0.00  0.00    +0.000 F 
ATOM      7  C   UNL     1       2.515   6.650  19.353  0.00  0.00    +0.000 A 
ATOM      8  C   UNL     1       2.825   7.405  18.260  0.00  0.00    +0.000 A 
ATOM      9  C   UNL     1       2.109   8.827  18.179  0.00  0.00    +0.000 A 
ATOM     10  C   UNL     1       0.934   9.592  19.001  0.00  0.00    +0.000 A 
ATOM     11  C   UNL     1       3.819   6.685  17.243  0.00  0.00    +0.000 C 
ATOM     12  C   UNL     1       4.596   5.354  17.770  0.00  0.00    +0.000 C 
ATOM     13  C   UNL     1       5.124   4.525  16.588  0.00  0.00    +0.000 C 
ATOM     14  O   UNL     1       4.380   4.107  15.698  0.00  0.00    +0.000 OA
ATOM     15  N   UNL     1       6.443   4.117  16.589  0.00  0.00    +0.000 N 
ATOM     16  C   UNL     1       7.390   4.346  17.549  0.00  0.00    +0.000 C 
ATOM     17  O   UNL     1       8.508   3.876  17.496  0.00  0.00    +0.000 OA
ATOM     18  N   UNL     1       6.965   5.144  18.571  0.00  0.00    +0.000 N 
ATOM     19  C   UNL     1       5.735   5.729  18.726  0.00  0.00    +0.000 C 
ATOM     20  O   UNL     1       5.617   6.531  19.654  0.00  0.00    +0.000 OA
ATOM     21  C   UNL     1       3.524   4.496  18.497  0.00  0.00    +0.000 C 
ATOM     22  C   UNL     1       4.019   3.082  19.053  0.00  0.00    +0.000 C 
ATOM     23  C   UNL     1       4.340   2.031  17.983  0.00  0.00    +0.000 C 
ATOM     24  O   UNL     1       2.989   2.421  19.821  0.00  0.00    +0.000 OA
ATOM     25  C   UNL     1       2.576   3.215  20.928  0.00  0.00    +0.000 C 
ATOM     26  C   UNL     1       1.487   2.462  21.689  0.00  0.00    +0.000 C 
ATOM     27  C   UNL     1       1.987   4.541  20.446  0.00  0.00    +0.000 C 
ATOM     28  N   UNL     1       2.927   5.320  19.603  0.00  0.00    +0.000 N 
ATOM     29  H   UNL     1       6.728   3.467  15.865  0.00  0.00    +0.000 HD
ATOM     30  H   UNL     1       7.667   5.412  19.251  0.00  0.00    +0.000 HD
ENDROOT
BRANCH   1  35
ATOM     31  C   UNL     1      -5.416  13.837  19.483  0.00  0.00    +0.000 C 
ATOM     32  C   UNL     1      -4.084  13.083  19.688  0.00  0.00    +0.000 A 
ATOM     33  C   UNL     1      -3.828  11.961  18.909  0.00  0.00    +0.000 A 
ATOM     34  C   UNL     1      -2.602  11.215  18.965  0.00  0.00    +0.000 A 
ATOM     35  C   UNL     1      -1.536  11.507  19.777  0.00  0.00    +0.000 A 
ATOM     36  C   UNL     1      -1.933  12.610  20.662  0.00  0.00    +0.000 A 
ATOM     37  N   UNL     1      -3.147  13.408  20.607  0.00  0.00    +0.000 NA
ENDBRANCH   1  35
TORSDOF 1
ENDMDL
MODEL 4
REMARK VINA RESULT:      -9.0      2.008      2.558
REMARK  Name = 
REMARK  4 active torsions:
REMARK  status: ('A' for Active; 'I' for Inactive)
REMARK    1  A    between atoms: C_1  and  C_2
REMARK    2  A    between atoms: C_5  and  C_6
REMARK    3  A    between atoms: C_27  and  C_28
REMARK    4  A    between atoms: C_30  and  C_31
REMARK                            x       y       z     vdW  Elec       q    Type
REMARK                         _______ _______ _______ _____ _____    ______ ____
ROOT
ATOM      1  C   UNL     1       2.512   6.822  19.912  0.00  0.00    +0.000 A 
ATOM      2  N   UNL     1       2.124   7.025  18.667  0.00  0.00    +0.000 NA
ATOM      3  O   UNL     1       1.793   8.301  18.643  0.00  0.00    +0.000 OA
ATOM      4  C   UNL     1       1.338   8.711  19.825  0.00  0.00    +0.000 A 
ATOM      5  C   UNL     1       0.417   9.798  19.619  0.00  0.00    +0.000 A 
ATOM      6  F   UNL     1       0.360  10.159  18.326  0.00  0.00    +0.000 F 
ATOM      7  C   UNL     1      -0.438  10.438  20.512  0.00  0.00    +0.000 A 
ATOM      8  C   UNL     1      -0.052  10.176  21.794  0.00  0.00    +0.000 A 
ATOM      9  C   UNL     1       1.060   9.046  21.962  0.00  0.00    +0.000 A 
ATOM     10  C   UNL     1       1.778   7.959  20.990  0.00  0.00    +0.000 A 
ATOM     11  C   UNL     1      -0.836  11.030  22.888  0.00  0.00    +0.000 C 
ATOM     12  C   UNL     1      -1.699  12.308  22.364  0.00  0.00    +0.000 C 
ATOM     13  C   UNL     1      -2.743  12.730  23.410  0.00  0.00    +0.000 C 
ATOM     14  O   UNL     1      -3.593  11.948  23.839  0.00  0.00    +0.000 OA
ATOM     15  N   UNL     1      -2.822  14.057  23.783  0.00  0.00    +0.000 N 
ATOM     16  C   UNL     1      -2.074  15.105  23.318  0.00  0.00    +0.000 C 
ATOM     17  O   UNL     1      -2.274  16.254  23.651  0.00  0.00    +0.000 OA
ATOM     18  N   UNL     1      -1.091  14.742  22.444  0.00  0.00    +0.000 N 
ATOM     19  C   UNL     1      -0.778  13.481  22.007  0.00  0.00    +0.000 C 
ATOM     20  O   UNL     1       0.245  13.369  21.329  0.00  0.00    +0.000 OA
ATOM     21  C   UNL     1      -2.473  11.812  21.110  0.00  0.00    +0.000 C 
ATOM     22  C   UNL     1      -3.465  12.869  20.437  0.00  0.00    +0.000 C 
ATOM     23  C   UNL     1      -4.719  13.206  21.254  0.00  0.00    +0.000 C 
ATOM     24  O   UNL     1      -4.035  12.359  19.211  0.00  0.00    +0.000 OA
ATOM     25  C   UNL     1      -3.024  12.032  18.264  0.00  0.00    +0.000 C 
ATOM     26  C   UNL     1      -3.694  11.497  17.001  0.00  0.00    +0.000 C 
ATOM     27  C   UNL     1      -2.109  10.939  18.816  0.00  0.00    +0.000 C 
ATOM     28  N   UNL     1      -1.476  11.308  20.106  0.00  0.00    +0.000 N 
ATOM     29  H   UNL     1      -3.599  14.327  24.375  0.00  0.00    +0.000 HD
ATOM     30  H   UNL     1      -0.459  15.477  22.151  0.00  0.00    +0.000 HD
ENDROOT
BRANCH   1  35
ATOM     31  C   UNL     1       4.485   1.008  19.194  0.00  0.00    +0.000 C 
ATOM     32  C   UNL     1       4.147   2.505  19.360  0.00  0.00    +0.000 A 
ATOM     33  C   UNL     1       2.852   2.860  19.716  0.00  0.00    +0.000 A 
ATOM     34  C   UNL     1       2.433   4.213  19.959  0.00  0.00    +0.000 A 
ATOM     35  C   UNL     1       3.243   5.316  19.878  0.00  0.00    +0.000 A 
ATOM     36  C   UNL     1       4.549   4.880  19.365  0.00  0.00    +0.000 A 
ATOM     37  N   UNL     1       5.015   3.521  19.145  0.00  0.00    +0.000 NA
ENDBRANCH   1  35
TORSDOF 1
ENDMDL
MODEL 5
REMARK VINA RESULT:      -8.3      3.693     11.236
REMARK  Name = 
REMARK  4 active torsions:
REMARK  status: ('A' for Active; 'I' for Inactive)
REMARK    1  A    between atoms: C_1  and  C_2
REMARK    2  A    between atoms: C_5  and  C_6
REMARK    3  A    between atoms: C_27  and  C_28
REMARK    4  A    between atoms: C_30  and  C_31
REMARK                            x       y       z     vdW  Elec       q    Type
REMARK                         _______ _______ _______ _____ _____    ______ ____
ROOT
ATOM      1  C   UNL     1      -0.205  10.038  20.829  0.00  0.00    +0.000 A 
ATOM      2  N   UNL     1      -0.800   8.994  21.376  0.00  0.00    +0.000 NA
ATOM      3  O   UNL     1       0.156   8.089  21.451  0.00  0.00    +0.000 OA
ATOM      4  C   UNL     1       1.043   8.231  20.468  0.00  0.00    +0.000 A 
ATOM      5  C   UNL     1       1.626   6.948  20.177  0.00  0.00    +0.000 A 
ATOM      6  F   UNL     1       1.202   6.006  21.036  0.00  0.00    +0.000 F 
ATOM      7  C   UNL     1       2.461   6.551  19.135  0.00  0.00    +0.000 A 
ATOM      8  C   UNL     1       3.026   7.646  18.549  0.00  0.00    +0.000 A 
ATOM      9  C   UNL     1       2.426   9.054  18.996  0.00  0.00    +0.000 A 
ATOM     10  C   UNL     1       1.158   9.557  19.880  0.00  0.00    +0.000 A 
ATOM     11  C   UNL     1       4.158   7.292  17.486  0.00  0.00    +0.000 C 
ATOM     12  C   UNL     1       4.735   5.769  17.483  0.00  0.00    +0.000 C 
ATOM     13  C   UNL     1       5.438   5.451  16.154  0.00  0.00    +0.000 C 
ATOM     14  O   UNL     1       4.863   5.557  15.068  0.00  0.00    +0.000 OA
ATOM     15  N   UNL     1       6.704   4.900  16.177  0.00  0.00    +0.000 N 
ATOM     16  C   UNL     1       7.452   4.567  17.273  0.00  0.00    +0.000 C 
ATOM     17  O   UNL     1       8.528   4.011  17.189  0.00  0.00    +0.000 OA
ATOM     18  N   UNL     1       6.880   4.909  18.463  0.00  0.00    +0.000 N 
ATOM     19  C   UNL     1       5.681   5.540  18.669  0.00  0.00    +0.000 C 
ATOM     20  O   UNL     1       5.427   5.882  19.825  0.00  0.00    +0.000 OA
ATOM     21  C   UNL     1       3.490   4.843  17.583  0.00  0.00    +0.000 C 
ATOM     22  C   UNL     1       3.779   3.272  17.526  0.00  0.00    +0.000 C 
ATOM     23  C   UNL     1       4.245   2.738  16.166  0.00  0.00    +0.000 C 
ATOM     24  O   UNL     1       2.580   2.501  17.756  0.00  0.00    +0.000 OA
ATOM     25  C   UNL     1       2.002   2.802  19.021  0.00  0.00    +0.000 C 
ATOM     26  C   UNL     1       0.741   1.959  19.194  0.00  0.00    +0.000 C 
ATOM     27  C   UNL     1       1.601   4.276  19.089  0.00  0.00    +0.000 C 
ATOM     28  N   UNL     1       2.735   5.197  18.832  0.00  0.00    +0.000 N 
ATOM     29  H   UNL     1       7.089   4.584  15.294  0.00  0.00    +0.000 HD
ATOM     30  H   UNL     1       7.446   4.763  19.290  0.00  0.00    +0.000 HD
ENDROOT
BRANCH   1  35
ATOM     31  C   UNL     1      -3.606  15.010  22.216  0.00  0.00    +0.000 C 
ATOM     32  C   UNL     1      -2.797  13.794  21.715  0.00  0.00    +0.000 A 
ATOM     33  C   UNL     1      -2.256  12.923  22.652  0.00  0.00    +0.000 A 
ATOM     34  C   UNL     1      -1.538  11.727  22.308  0.00  0.00    +0.000 A 
ATOM     35  C   UNL     1      -1.299  11.290  21.031  0.00  0.00    +0.000 A 
ATOM     36  C   UNL     1      -1.775  12.326  20.104  0.00  0.00    +0.000 A 
ATOM     37  N   UNL     1      -2.535  13.525  20.416  0.00  0.00    +0.000 NA
ENDBRANCH   1  35
TORSDOF 1
ENDMDL
MODEL 6
REMARK VINA RESULT:      -8.0      8.292     11.454
REMARK  Name = 
REMARK  4 active torsions:
REMARK  status: ('A' for Active; 'I' for Inactive)
REMARK    1  A    between atoms: C_1  and  C_2
REMARK    2  A    between atoms: C_5  and  C_6
REMARK    3  A    between atoms: C_27  and  C_28
REMARK    4  A    between atoms: C_30  and  C_31
REMARK                            x       y       z     vdW  Elec       q    Type
REMARK                         _______ _______ _______ _____ _____    ______ ____
ROOT
ATOM      1  C   UNL     1       1.763  13.271  19.387  0.00  0.00    +0.000 A 
ATOM      2  N   UNL     1       1.875  13.425  20.694  0.00  0.00    +0.000 NA
ATOM      3  O   UNL     1       2.783  14.373  20.822  0.00  0.00    +0.000 OA
ATOM      4  C   UNL     1       3.660  14.351  19.820  0.00  0.00    +0.000 A 
ATOM      5  C   UNL     1       4.916  14.875  20.288  0.00  0.00    +0.000 A 
ATOM      6  F   UNL     1       4.822  15.333  21.547  0.00  0.00    +0.000 F 
ATOM      7  C   UNL     1       6.168  14.897  19.678  0.00  0.00    +0.000 A 
ATOM      8  C   UNL     1       6.036  14.685  18.337  0.00  0.00    +0.000 A 
ATOM      9  C   UNL     1       4.590  14.221  17.851  0.00  0.00    +0.000 A 
ATOM     10  C   UNL     1       3.208  13.757  18.571  0.00  0.00    +0.000 A 
ATOM     11  C   UNL     1       7.385  14.900  17.517  0.00  0.00    +0.000 C 
ATOM     12  C   UNL     1       8.610  15.660  18.275  0.00  0.00    +0.000 C 
ATOM     13  C   UNL     1       9.947  15.382  17.570  0.00  0.00    +0.000 C 
ATOM     14  O   UNL     1      10.367  14.237  17.392  0.00  0.00    +0.000 OA
ATOM     15  N   UNL     1      10.770  16.443  17.247  0.00  0.00    +0.000 N 
ATOM     16  C   UNL     1      10.559  17.772  17.492  0.00  0.00    +0.000 C 
ATOM     17  O   UNL     1      11.383  18.627  17.239  0.00  0.00    +0.000 OA
ATOM     18  N   UNL     1       9.344  18.049  18.049  0.00  0.00    +0.000 N 
ATOM     19  C   UNL     1       8.345  17.167  18.368  0.00  0.00    +0.000 C 
ATOM     20  O   UNL     1       7.272  17.655  18.729  0.00  0.00    +0.000 OA
ATOM     21  C   UNL     1       8.691  15.025  19.692  0.00  0.00    +0.000 C 
ATOM     22  C   UNL     1       9.876  15.551  20.627  0.00  0.00    +0.000 C 
ATOM     23  C   UNL     1      11.287  15.129  20.201  0.00  0.00    +0.000 C 
ATOM     24  O   UNL     1       9.788  14.999  21.959  0.00  0.00    +0.000 OA
ATOM     25  C   UNL     1       8.550  15.330  22.579  0.00  0.00    +0.000 C 
ATOM     26  C   UNL     1       8.524  14.712  23.975  0.00  0.00    +0.000 C 
ATOM     27  C   UNL     1       7.381  14.751  21.782  0.00  0.00    +0.000 C 
ATOM     28  N   UNL     1       7.363  15.204  20.369  0.00  0.00    +0.000 N 
ATOM     29  H   UNL     1      11.697  16.223  16.900  0.00  0.00    +0.000 HD
ATOM     30  H   UNL     1       9.115  19.030  18.158  0.00  0.00    +0.000 HD
ENDROOT
BRANCH   1  35
ATOM     31  C   UNL     1      -3.183   9.945  17.746  0.00  0.00    +0.000 C 
ATOM     32  C   UNL     1      -1.914  10.657  18.261  0.00  0.00    +0.000 A 
ATOM     33  C   UNL     1      -1.666  11.960  17.846  0.00  0.00    +0.000 A 
ATOM     34  C   UNL     1      -0.554  12.745  18.304  0.00  0.00    +0.000 A 
ATOM     35  C   UNL     1       0.394  12.324  19.200  0.00  0.00    +0.000 A 
ATOM     36  C   UNL     1       0.147  10.903  19.482  0.00  0.00    +0.000 A 
ATOM     37  N   UNL     1      -0.985  10.092  19.066  0.00  0.00    +0.000 NA
ENDBRANCH   1  35
TORSDOF 1
ENDMDL
MODEL 7
REMARK VINA RESULT:      -8.0      2.379      3.062
REMARK  Name = 
REMARK  4 active torsions:
REMARK  status: ('A' for Active; 'I' for Inactive)
REMARK    1  A    between atoms: C_1  and  C_2
REMARK    2  A    between atoms: C_5  and  C_6
REMARK    3  A    between atoms: C_27  and  C_28
REMARK    4  A    between atoms: C_30  and  C_31
REMARK                            x       y       z     vdW  Elec       q    Type
REMARK                         _______ _______ _______ _____ _____    ______ ____
ROOT
ATOM      1  C   UNL     1       2.358   6.170  20.197  0.00  0.00    +0.000 A 
ATOM      2  N   UNL     1       2.104   6.408  18.923  0.00  0.00    +0.000 NA
ATOM      3  O   UNL     1       1.929   7.714  18.875  0.00  0.00    +0.000 OA
ATOM      4  C   UNL     1       1.428   8.184  20.015  0.00  0.00    +0.000 A 
ATOM      5  C   UNL     1       0.663   9.371  19.735  0.00  0.00    +0.000 A 
ATOM      6  F   UNL     1       0.759   9.726  18.443  0.00  0.00    +0.000 F 
ATOM      7  C   UNL     1      -0.183  10.114  20.554  0.00  0.00    +0.000 A 
ATOM      8  C   UNL     1       0.059   9.817  21.864  0.00  0.00    +0.000 A 
ATOM      9  C   UNL     1       1.012   8.565  22.122  0.00  0.00    +0.000 A 
ATOM     10  C   UNL     1       1.676   7.394  21.211  0.00  0.00    +0.000 A 
ATOM     11  C   UNL     1      -0.707  10.765  22.889  0.00  0.00    +0.000 C 
ATOM     12  C   UNL     1      -1.366  12.133  22.297  0.00  0.00    +0.000 C 
ATOM     13  C   UNL     1      -2.437  12.683  23.253  0.00  0.00    +0.000 C 
ATOM     14  O   UNL     1      -3.407  12.010  23.605  0.00  0.00    +0.000 OA
ATOM     15  N   UNL     1      -2.389  14.013  23.621  0.00  0.00    +0.000 N 
ATOM     16  C   UNL     1      -1.487  14.961  23.224  0.00  0.00    +0.000 C 
ATOM     17  O   UNL     1      -1.576  16.129  23.543  0.00  0.00    +0.000 OA
ATOM     18  N   UNL     1      -0.483  14.478  22.435  0.00  0.00    +0.000 N 
ATOM     19  C   UNL     1      -0.286  13.186  22.023  0.00  0.00    +0.000 C 
ATOM     20  O   UNL     1       0.771  12.949  21.434  0.00  0.00    +0.000 OA
ATOM     21  C   UNL     1      -2.084  11.723  20.981  0.00  0.00    +0.000 C 
ATOM     22  C   UNL     1      -2.884  12.885  20.229  0.00  0.00    +0.000 C 
ATOM     23  C   UNL     1      -4.153  13.374  20.937  0.00  0.00    +0.000 C 
ATOM     24  O   UNL     1      -3.404  12.437  18.958  0.00  0.00    +0.000 OA
ATOM     25  C   UNL     1      -2.363  11.986  18.099  0.00  0.00    +0.000 C 
ATOM     26  C   UNL     1      -2.982  11.524  16.783  0.00  0.00    +0.000 C 
ATOM     27  C   UNL     1      -1.633  10.796  18.723  0.00  0.00    +0.000 C 
ATOM     28  N   UNL     1      -1.073  11.097  20.063  0.00  0.00    +0.000 N 
ATOM     29  H   UNL     1      -3.176  14.377  24.146  0.00  0.00    +0.000 HD
ATOM     30  H   UNL     1       0.254  15.131  22.200  0.00  0.00    +0.000 HD
ENDROOT
BRANCH   1  35
ATOM     31  C   UNL     1       5.267   0.718  20.343  0.00  0.00    +0.000 C 
ATOM     32  C   UNL     1       4.432   2.015  20.407  0.00  0.00    +0.000 A 
ATOM     33  C   UNL     1       4.753   3.057  19.546  0.00  0.00    +0.000 A 
ATOM     34  C   UNL     1       4.013   4.286  19.470  0.00  0.00    +0.000 A 
ATOM     35  C   UNL     1       2.906   4.588  20.220  0.00  0.00    +0.000 A 
ATOM     36  C   UNL     1       2.714   3.506  21.196  0.00  0.00    +0.000 A 
ATOM     37  N   UNL     1       3.419   2.238  21.275  0.00  0.00    +0.000 NA
ENDBRANCH   1  35
TORSDOF 1
ENDMDL
MODEL 8
REMARK VINA RESULT:      -7.7      7.861     11.223
REMARK  Name = 
REMARK  4 active torsions:
REMARK  status: ('A' for Active; 'I' for Inactive)
REMARK    1  A    between atoms: C_1  and  C_2
REMARK    2  A    between atoms: C_5  and  C_6
REMARK    3  A    between atoms: C_27  and  C_28
REMARK    4  A    between atoms: C_30  and  C_31
REMARK                            x       y       z     vdW  Elec       q    Type
REMARK                         _______ _______ _______ _____ _____    ______ ____
ROOT
ATOM      1  C   UNL     1       0.857  14.183  19.228  0.00  0.00    +0.000 A 
ATOM      2  N   UNL     1       0.912  14.389  20.531  0.00  0.00    +0.000 NA
ATOM      3  O   UNL     1       1.943  15.198  20.679  0.00  0.00    +0.000 OA
ATOM      4  C   UNL     1       2.866  14.992  19.742  0.00  0.00    +0.000 A 
ATOM      5  C   UNL     1       4.156  15.348  20.270  0.00  0.00    +0.000 A 
ATOM      6  F   UNL     1       4.056  15.883  21.499  0.00  0.00    +0.000 F 
ATOM      7  C   UNL     1       5.431  15.152  19.747  0.00  0.00    +0.000 A 
ATOM      8  C   UNL     1       5.351  14.889  18.411  0.00  0.00    +0.000 A 
ATOM      9  C   UNL     1       3.883  14.620  17.848  0.00  0.00    +0.000 A 
ATOM     10  C   UNL     1       2.406  14.405  18.492  0.00  0.00    +0.000 A 
ATOM     11  C   UNL     1       6.764  14.858  17.677  0.00  0.00    +0.000 C 
ATOM     12  C   UNL     1       8.042  15.468  18.482  0.00  0.00    +0.000 C 
ATOM     13  C   UNL     1       9.362  14.957  17.883  0.00  0.00    +0.000 C 
ATOM     14  O   UNL     1       9.614  13.754  17.785  0.00  0.00    +0.000 OA
ATOM     15  N   UNL     1      10.354  15.865  17.571  0.00  0.00    +0.000 N 
ATOM     16  C   UNL     1      10.332  17.222  17.742  0.00  0.00    +0.000 C 
ATOM     17  O   UNL     1      11.290  17.930  17.508  0.00  0.00    +0.000 OA
ATOM     18  N   UNL     1       9.142  17.706  18.202  0.00  0.00    +0.000 N 
ATOM     19  C   UNL     1       8.003  17.000  18.490  0.00  0.00    +0.000 C 
ATOM     20  O   UNL     1       6.996  17.660  18.755  0.00  0.00    +0.000 OA
ATOM     21  C   UNL     1       7.940  14.905  19.928  0.00  0.00    +0.000 C 
ATOM     22  C   UNL     1       9.131  15.299  20.918  0.00  0.00    +0.000 C 
ATOM     23  C   UNL     1      10.485  14.650  20.608  0.00  0.00    +0.000 C 
ATOM     24  O   UNL     1       8.880  14.838  22.264  0.00  0.00    +0.000 OA
ATOM     25  C   UNL     1       7.671  15.382  22.782  0.00  0.00    +0.000 C 
ATOM     26  C   UNL     1       7.466  14.851  24.199  0.00  0.00    +0.000 C 
ATOM     27  C   UNL     1       6.478  14.941  21.933  0.00  0.00    +0.000 C 
ATOM     28  N   UNL     1       6.615  15.315  20.504  0.00  0.00    +0.000 N 
ATOM     29  H   UNL     1      11.256  15.491  17.298  0.00  0.00    +0.000 HD
ATOM     30  H   UNL     1       9.058  18.714  18.252  0.00  0.00    +0.000 HD
ENDROOT
BRANCH   1  35
ATOM     31  C   UNL     1      -4.097  10.665  18.092  0.00  0.00    +0.000 C 
ATOM     32  C   UNL     1      -2.939  11.597  18.506  0.00  0.00    +0.000 A 
ATOM     33  C   UNL     1      -1.876  11.770  17.628  0.00  0.00    +0.000 A 
ATOM     34  C   UNL     1      -0.773  12.656  17.875  0.00  0.00    +0.000 A 
ATOM     35  C   UNL     1      -0.626  13.441  18.989  0.00  0.00    +0.000 A 
ATOM     36  C   UNL     1      -1.706  13.101  19.926  0.00  0.00    +0.000 A 
ATOM     37  N   UNL     1      -2.853  12.240  19.693  0.00  0.00    +0.000 NA
ENDBRANCH   1  35
TORSDOF 1
ENDMDL
MODEL 9
REMARK VINA RESULT:      -7.6      7.334     10.712
REMARK  Name = 
REMARK  4 active torsions:
REMARK  status: ('A' for Active; 'I' for Inactive)
REMARK    1  A    between atoms: C_1  and  C_2
REMARK    2  A    between atoms: C_5  and  C_6
REMARK    3  A    between atoms: C_27  and  C_28
REMARK    4  A    between atoms: C_30  and  C_31
REMARK                            x       y       z     vdW  Elec       q    Type
REMARK                         _______ _______ _______ _____ _____    ______ ____
ROOT
ATOM      1  C   UNL     1       0.224  13.469  19.243  0.00  0.00    +0.000 A 
ATOM      2  N   UNL     1       0.243  13.634  20.553  0.00  0.00    +0.000 NA
ATOM      3  O   UNL     1       1.186  14.536  20.743  0.00  0.00    +0.000 OA
ATOM      4  C   UNL     1       2.135  14.456  19.813  0.00  0.00    +0.000 A 
ATOM      5  C   UNL     1       3.377  14.921  20.372  0.00  0.00    +0.000 A 
ATOM      6  F   UNL     1       3.210  15.399  21.617  0.00  0.00    +0.000 F 
ATOM      7  C   UNL     1       4.672  14.872  19.861  0.00  0.00    +0.000 A 
ATOM      8  C   UNL     1       4.633  14.650  18.515  0.00  0.00    +0.000 A 
ATOM      9  C   UNL     1       3.206  14.255  17.923  0.00  0.00    +0.000 A 
ATOM     10  C   UNL     1       1.751  13.871  18.537  0.00  0.00    +0.000 A 
ATOM     11  C   UNL     1       6.050  14.786  17.801  0.00  0.00    +0.000 C 
ATOM     12  C   UNL     1       7.251  15.491  18.645  0.00  0.00    +0.000 C 
ATOM     13  C   UNL     1       8.623  15.137  18.048  0.00  0.00    +0.000 C 
ATOM     14  O   UNL     1       8.995  13.970  17.913  0.00  0.00    +0.000 OA
ATOM     15  N   UNL     1       9.521  16.150  17.781  0.00  0.00    +0.000 N 
ATOM     16  C   UNL     1       9.361  17.491  17.998  0.00  0.00    +0.000 C 
ATOM     17  O   UNL     1      10.246  18.299  17.802  0.00  0.00    +0.000 OA
ATOM     18  N   UNL     1       8.123  17.837  18.457  0.00  0.00    +0.000 N 
ATOM     19  C   UNL     1       7.058  17.011  18.705  0.00  0.00    +0.000 C 
ATOM     20  O   UNL     1       5.987  17.557  18.977  0.00  0.00    +0.000 OA
ATOM     21  C   UNL     1       7.190  14.870  20.069  0.00  0.00    +0.000 C 
ATOM     22  C   UNL     1       8.325  15.347  21.090  0.00  0.00    +0.000 C 
ATOM     23  C   UNL     1       9.741  14.848  20.777  0.00  0.00    +0.000 C 
ATOM     24  O   UNL     1       8.106  14.816  22.415  0.00  0.00    +0.000 OA
ATOM     25  C   UNL     1       6.843  15.218  22.934  0.00  0.00    +0.000 C 
ATOM     26  C   UNL     1       6.677  14.620  24.329  0.00  0.00    +0.000 C 
ATOM     27  C   UNL     1       5.710  14.690  22.053  0.00  0.00    +0.000 C 
ATOM     28  N   UNL     1       5.824  15.125  20.640  0.00  0.00    +0.000 N 
ATOM     29  H   UNL     1      10.459  15.878  17.510  0.00  0.00    +0.000 HD
ATOM     30  H   UNL     1       7.938  18.829  18.540  0.00  0.00    +0.000 HD
ENDROOT
BRANCH   1  35
ATOM     31  C   UNL     1      -5.403  11.056  18.390  0.00  0.00    +0.000 C 
ATOM     32  C   UNL     1      -3.952  11.576  18.472  0.00  0.00    +0.000 A 
ATOM     33  C   UNL     1      -3.565  12.297  19.594  0.00  0.00    +0.000 A 
ATOM     34  C   UNL     1      -2.230  12.779  19.812  0.00  0.00    +0.000 A 
ATOM     35  C   UNL     1      -1.174  12.591  18.958  0.00  0.00    +0.000 A 
ATOM     36  C   UNL     1      -1.688  11.949  17.741  0.00  0.00    +0.000 A 
ATOM     37  N   UNL     1      -3.020  11.418  17.504  0.00  0.00    +0.000 NA
ENDBRANCH   1  35
TORSDOF 1
ENDMDL
