MODEL 1
REMARK VINA RESULT:      -8.0      0.000      0.000
REMARK  Name = 
REMARK  7 active torsions:
REMARK  status: ('A' for Active; 'I' for Inactive)
REMARK    1  A    between atoms: C_1  and  C_2
REMARK    2  A    between atoms: N_7  and  C_8
REMARK    3  A    between atoms: C_8  and  C_9
REMARK    4  A    between atoms: C_8  and  C_17
REMARK    5  A    between atoms: C_9  and  O_10
REMARK    6  A    between atoms: O_10  and  C_11
REMARK    7  A    between atoms: C_17  and  C_18
REMARK                            x       y       z     vdW  Elec       q    Type
REMARK                         _______ _______ _______ _____ _____    ______ ____
ROOT
ATOM      1  C   UNL     1       3.620   6.370  18.154  0.00  0.00    +0.000 C 
ENDROOT
BRANCH   1   8
ATOM      2  C   UNL     1       7.497   5.077  14.568  0.00  0.00    +0.000 C 
ATOM      3  C   UNL     1       6.118   4.615  15.048  0.00  0.00    +0.000 C 
ATOM      4  C   UNL     1       6.197   3.810  16.357  0.00  0.00    +0.000 C 
ATOM      5  C   UNL     1       6.839   4.528  17.552  0.00  0.00    +0.000 C 
ATOM      6  C   UNL     1       5.900   5.442  18.315  0.00  0.00    +0.000 C 
ATOM      7  O   UNL     1       5.908   5.465  19.547  0.00  0.00    +0.000 OA
ATOM      8  N   UNL     1       4.994   6.182  17.567  0.00  0.00    +0.000 N 
ATOM      9  C   UNL     1       5.382   6.737  16.277  0.00  0.00    +0.000 C 
ATOM     10  C   UNL     1       5.121   5.779  15.122  0.00  0.00    +0.000 C 
ENDBRANCH   1   8
BRANCH   1  11
ATOM     11  C   UNL     1       2.668   5.255  17.628  0.00  0.00    +0.000 C 
BRANCH  11  12
ATOM     12  O   UNL     1       3.144   3.959  18.017  0.00  0.00    +0.000 OA
BRANCH  12  13
ATOM     13  C   UNL     1       2.702   3.504  19.232  0.00  0.00    +0.000 A 
ATOM     14  C   UNL     1       1.335   3.664  19.472  0.00  0.00    +0.000 A 
ATOM     15  C   UNL     1       0.774   3.254  20.684  0.00  0.00    +0.000 A 
ATOM     16  C   UNL     1       1.578   2.661  21.656  0.00  0.00    +0.000 A 
ATOM     17  C   UNL     1       2.934   2.466  21.409  0.00  0.00    +0.000 A 
ATOM     18  C   UNL     1       3.495   2.882  20.198  0.00  0.00    +0.000 A 
ENDBRANCH  12  13
ENDBRANCH  11  12
ENDBRANCH   1  11
BRANCH   1  19
ATOM     19  C   UNL     1       3.031   7.782  17.933  0.00  0.00    +0.000 C 
BRANCH  19  20
ATOM     20  C   UNL     1       2.006   8.274  18.929  0.00  0.00    +0.000 A 
ATOM     21  C   UNL     1       1.897   7.681  20.193  0.00  0.00    +0.000 A 
ATOM     22  C   UNL     1       1.046   8.225  21.157  0.00  0.00    +0.000 A 
ATOM     23  C   UNL     1       0.282   9.352  20.861  0.00  0.00    +0.000 A 
ATOM     24  C   UNL     1       0.353   9.926  19.593  0.00  0.00    +0.000 A 
ATOM     25  C   UNL     1       1.210   9.390  18.632  0.00  0.00    +0.000 A 
ENDBRANCH  19  20
ENDBRANCH   1  19
TORSDOF 6
ENDMDL
MODEL 2
REMARK VINA RESULT:      -7.9      0.491      1.080
REMARK  Name = 
REMARK  7 active torsions:
REMARK  status: ('A' for Active; 'I' for Inactive)
REMARK    1  A    between atoms: C_1  and  C_2
REMARK    2  A    between atoms: N_7  and  C_8
REMARK    3  A    between atoms: C_8  and  C_9
REMARK    4  A    between atoms: C_8  and  C_17
REMARK    5  A    between atoms: C_9  and  O_10
REMARK    6  A    between atoms: O_10  and  C_11
REMARK    7  A    between atoms: C_17  and  C_18
REMARK                            x       y       z     vdW  Elec       q    Type
REMARK                         _______ _______ _______ _____ _____    ______ ____
ROOT
ATOM      1  C   UNL     1       3.927   6.164  17.871  0.00  0.00    +0.000 C 
ENDROOT
BRANCH   1   8
ATOM      2  C   UNL     1       7.562   5.103  13.969  0.00  0.00    +0.000 C 
ATOM      3  C   UNL     1       6.299   4.520  14.609  0.00  0.00    +0.000 C 
ATOM      4  C   UNL     1       6.596   3.805  15.938  0.00  0.00    +0.000 C 
ATOM      5  C   UNL     1       7.263   4.657  17.027  0.00  0.00    +0.000 C 
ATOM      6  C   UNL     1       6.304   5.504  17.840  0.00  0.00    +0.000 C 
ATOM      7  O   UNL     1       6.428   5.598  19.062  0.00  0.00    +0.000 OA
ATOM      8  N   UNL     1       5.251   6.096  17.156  0.00  0.00    +0.000 N 
ATOM      9  C   UNL     1       5.445   6.615  15.808  0.00  0.00    +0.000 C 
ATOM     10  C   UNL     1       5.186   5.570  14.732  0.00  0.00    +0.000 C 
ENDBRANCH   1   8
BRANCH   1  11
ATOM     11  C   UNL     1       3.084   4.898  17.538  0.00  0.00    +0.000 C 
BRANCH  11  12
ATOM     12  O   UNL     1       3.594   3.754  18.239  0.00  0.00    +0.000 OA
BRANCH  12  13
ATOM     13  C   UNL     1       2.919   3.407  19.380  0.00  0.00    +0.000 A 
ATOM     14  C   UNL     1       1.570   3.768  19.414  0.00  0.00    +0.000 A 
ATOM     15  C   UNL     1       0.786   3.483  20.534  0.00  0.00    +0.000 A 
ATOM     16  C   UNL     1       1.346   2.814  21.621  0.00  0.00    +0.000 A 
ATOM     17  C   UNL     1       2.681   2.420  21.580  0.00  0.00    +0.000 A 
ATOM     18  C   UNL     1       3.466   2.712  20.460  0.00  0.00    +0.000 A 
ENDBRANCH  12  13
ENDBRANCH  11  12
ENDBRANCH   1  11
BRANCH   1  19
ATOM     19  C   UNL     1       3.138   7.468  17.607  0.00  0.00    +0.000 C 
BRANCH  19  20
ATOM     20  C   UNL     1       2.318   8.030  18.746  0.00  0.00    +0.000 A 
ATOM     21  C   UNL     1       1.607   9.226  18.591  0.00  0.00    +0.000 A 
ATOM     22  C   UNL     1       0.744   9.669  19.594  0.00  0.00    +0.000 A 
ATOM     23  C   UNL     1       0.600   8.934  20.769  0.00  0.00    +0.000 A 
ATOM     24  C   UNL     1       1.335   7.763  20.951  0.00  0.00    +0.000 A 
ATOM     25  C   UNL     1       2.189   7.314  19.945  0.00  0.00    +0.000 A 
ENDBRANCH  19  20
ENDBRANCH   1  19
TORSDOF 6
ENDMDL
MODEL 3
REMARK VINA RESULT:      -7.8      2.464      5.597
REMARK  Name = 
REMARK  7 active torsions:
REMARK  status: ('A' for Active; 'I' for Inactive)
REMARK    1  A    between atoms: C_1  and  C_2
REMARK    2  A    between atoms: N_7  and  C_8
REMARK    3  A    between atoms: C_8  and  C_9
REMARK    4  A    between atoms: C_8  and  C_17
REMARK    5  A    between atoms: C_9  and  O_10
REMARK    6  A    between atoms: O_10  and  C_11
REMARK    7  A    between atoms: C_17  and  C_18
REMARK                            x       y       z     vdW  Elec       q    Type
REMARK                         _______ _______ _______ _____ _____    ______ ____
ROOT
ATOM      1  C   UNL     1       4.166   4.186  17.226  0.00  0.00    +0.000 C 
ENDROOT
BRANCH   1   8
ATOM      2  C   UNL     1       7.538   8.392  17.941  0.00  0.00    +0.000 C 
ATOM      3  C   UNL     1       7.355   7.149  17.066  0.00  0.00    +0.000 C 
ATOM      4  C   UNL     1       7.814   5.864  17.776  0.00  0.00    +0.000 C 
ATOM      5  C   UNL     1       7.121   5.545  19.108  0.00  0.00    +0.000 C 
ATOM      6  C   UNL     1       5.784   4.843  18.969  0.00  0.00    +0.000 C 
ATOM      7  O   UNL     1       5.486   3.905  19.711  0.00  0.00    +0.000 OA
ATOM      8  N   UNL     1       4.960   5.255  17.930  0.00  0.00    +0.000 N 
ATOM      9  C   UNL     1       4.890   6.662  17.558  0.00  0.00    +0.000 C 
ATOM     10  C   UNL     1       5.927   7.047  16.512  0.00  0.00    +0.000 C 
ENDBRANCH   1   8
BRANCH   1  11
ATOM     11  C   UNL     1       4.534   4.170  15.713  0.00  0.00    +0.000 C 
BRANCH  11  12
ATOM     12  O   UNL     1       5.917   3.833  15.532  0.00  0.00    +0.000 OA
BRANCH  12  13
ATOM     13  C   UNL     1       6.434   4.094  14.290  0.00  0.00    +0.000 A 
ATOM     14  C   UNL     1       5.880   3.356  13.242  0.00  0.00    +0.000 A 
ATOM     15  C   UNL     1       6.340   3.523  11.934  0.00  0.00    +0.000 A 
ATOM     16  C   UNL     1       7.347   4.449  11.665  0.00  0.00    +0.000 A 
ATOM     17  C   UNL     1       7.879   5.214  12.701  0.00  0.00    +0.000 A 
ATOM     18  C   UNL     1       7.421   5.040  14.010  0.00  0.00    +0.000 A 
ENDBRANCH  12  13
ENDBRANCH  11  12
ENDBRANCH   1  11
BRANCH   1  19
ATOM     19  C   UNL     1       2.640   4.291  17.448  0.00  0.00    +0.000 C 
BRANCH  19  20
ATOM     20  C   UNL     1       2.107   3.933  18.816  0.00  0.00    +0.000 A 
ATOM     21  C   UNL     1       1.688   2.628  19.100  0.00  0.00    +0.000 A 
ATOM     22  C   UNL     1       1.328   2.270  20.400  0.00  0.00    +0.000 A 
ATOM     23  C   UNL     1       1.361   3.216  21.422  0.00  0.00    +0.000 A 
ATOM     24  C   UNL     1       1.736   4.529  21.142  0.00  0.00    +0.000 A 
ATOM     25  C   UNL     1       2.107   4.885  19.846  0.00  0.00    +0.000 A 
ENDBRANCH  19  20
ENDBRANCH   1  19
TORSDOF 6
ENDMDL
MODEL 4
REMARK VINA RESULT:      -7.8      0.597      1.134
REMARK  Name = 
REMARK  7 active torsions:
REMARK  status: ('A' for Active; 'I' for Inactive)
REMARK    1  A    between atoms: C_1  and  C_2
REMARK    2  A    between atoms: N_7  and  C_8
REMARK    3  A    between atoms: C_8  and  C_9
REMARK    4  A    between atoms: C_8  and  C_17
REMARK    5  A    between atoms: C_9  and  O_10
REMARK    6  A    between atoms: O_10  and  C_11
REMARK    7  A    between atoms: C_17  and  C_18
REMARK                            x       y       z     vdW  Elec       q    Type
REMARK                         _______ _______ _______ _____ _____    ______ ____
ROOT
ATOM      1  C   UNL     1       3.989   6.057  17.819  0.00  0.00    +0.000 C 
ENDROOT
BRANCH   1   8
ATOM      2  C   UNL     1       7.621   5.166  13.871  0.00  0.00    +0.000 C 
ATOM      3  C   UNL     1       6.389   4.529  14.521  0.00  0.00    +0.000 C 
ATOM      4  C   UNL     1       6.729   3.819  15.842  0.00  0.00    +0.000 C 
ATOM      5  C   UNL     1       7.373   4.689  16.930  0.00  0.00    +0.000 C 
ATOM      6  C   UNL     1       6.390   5.493  17.758  0.00  0.00    +0.000 C 
ATOM      7  O   UNL     1       6.523   5.584  18.980  0.00  0.00    +0.000 OA
ATOM      8  N   UNL     1       5.306   6.046  17.089  0.00  0.00    +0.000 N 
ATOM      9  C   UNL     1       5.465   6.581  15.743  0.00  0.00    +0.000 C 
ATOM     10  C   UNL     1       5.236   5.533  14.662  0.00  0.00    +0.000 C 
ENDBRANCH   1   8
BRANCH   1  11
ATOM     11  C   UNL     1       3.172   4.784  17.447  0.00  0.00    +0.000 C 
BRANCH  11  12
ATOM     12  O   UNL     1       3.578   3.669  18.253  0.00  0.00    +0.000 OA
BRANCH  12  13
ATOM     13  C   UNL     1       2.770   3.385  19.323  0.00  0.00    +0.000 A 
ATOM     14  C   UNL     1       3.422   2.887  20.453  0.00  0.00    +0.000 A 
ATOM     15  C   UNL     1       2.700   2.546  21.599  0.00  0.00    +0.000 A 
ATOM     16  C   UNL     1       1.317   2.721  21.625  0.00  0.00    +0.000 A 
ATOM     17  C   UNL     1       0.664   3.251  20.514  0.00  0.00    +0.000 A 
ATOM     18  C   UNL     1       1.389   3.587  19.367  0.00  0.00    +0.000 A 
ENDBRANCH  12  13
ENDBRANCH  11  12
ENDBRANCH   1  11
BRANCH   1  19
ATOM     19  C   UNL     1       3.167   7.350  17.611  0.00  0.00    +0.000 C 
BRANCH  19  20
ATOM     20  C   UNL     1       2.287   7.808  18.751  0.00  0.00    +0.000 A 
ATOM     21  C   UNL     1       2.173   7.042  19.918  0.00  0.00    +0.000 A 
ATOM     22  C   UNL     1       1.471   7.533  21.020  0.00  0.00    +0.000 A 
ATOM     23  C   UNL     1       0.857   8.782  20.959  0.00  0.00    +0.000 A 
ATOM     24  C   UNL     1       0.929   9.535  19.788  0.00  0.00    +0.000 A 
ATOM     25  C   UNL     1       1.640   9.051  18.691  0.00  0.00    +0.000 A 
ENDBRANCH  19  20
ENDBRANCH   1  19
TORSDOF 6
ENDMDL
MODEL 5
REMARK VINA RESULT:      -7.8      1.787      5.178
REMARK  Name = 
REMARK  7 active torsions:
REMARK  status: ('A' for Active; 'I' for Inactive)
REMARK    1  A    between atoms: C_1  and  C_2
REMARK    2  A    between atoms: N_7  and  C_8
REMARK    3  A    between atoms: C_8  and  C_9
REMARK    4  A    between atoms: C_8  and  C_17
REMARK    5  A    between atoms: C_9  and  O_10
REMARK    6  A    between atoms: O_10  and  C_11
REMARK    7  A    between atoms: C_17  and  C_18
REMARK                            x       y       z     vdW  Elec       q    Type
REMARK                         _______ _______ _______ _____ _____    ______ ____
ROOT
ATOM      1  C   UNL     1       2.376   6.083  18.210  0.00  0.00    +0.000 C 
ENDROOT
BRANCH   1   8
ATOM      2  C   UNL     1       1.499   2.289  22.006  0.00  0.00    +0.000 C 
ATOM      3  C   UNL     1       2.632   2.913  21.186  0.00  0.00    +0.000 C 
ATOM      4  C   UNL     1       2.695   2.350  19.756  0.00  0.00    +0.000 C 
ATOM      5  C   UNL     1       1.425   2.516  18.910  0.00  0.00    +0.000 C 
ATOM      6  C   UNL     1       1.288   3.868  18.239  0.00  0.00    +0.000 C 
ATOM      7  O   UNL     1       0.901   3.956  17.073  0.00  0.00    +0.000 OA
ATOM      8  N   UNL     1       1.689   4.979  18.971  0.00  0.00    +0.000 N 
ATOM      9  C   UNL     1       1.447   5.044  20.406  0.00  0.00    +0.000 C 
ATOM     10  C   UNL     1       2.584   4.447  21.223  0.00  0.00    +0.000 C 
ENDBRANCH   1   8
BRANCH   1  11
ATOM     11  C   UNL     1       3.600   5.506  17.438  0.00  0.00    +0.000 C 
BRANCH  11  12
ATOM     12  O   UNL     1       4.600   5.037  18.354  0.00  0.00    +0.000 OA
BRANCH  12  13
ATOM     13  C   UNL     1       5.785   5.726  18.344  0.00  0.00    +0.000 A 
ATOM     14  C   UNL     1       6.709   5.347  19.320  0.00  0.00    +0.000 A 
ATOM     15  C   UNL     1       7.945   5.991  19.417  0.00  0.00    +0.000 A 
ATOM     16  C   UNL     1       8.270   7.008  18.521  0.00  0.00    +0.000 A 
ATOM     17  C   UNL     1       7.367   7.366  17.523  0.00  0.00    +0.000 A 
ATOM     18  C   UNL     1       6.129   6.724  17.430  0.00  0.00    +0.000 A 
ENDBRANCH  12  13
ENDBRANCH  11  12
ENDBRANCH   1  11
BRANCH   1  19
ATOM     19  C   UNL     1       2.767   7.297  19.084  0.00  0.00    +0.000 C 
BRANCH  19  20
ATOM     20  C   UNL     1       1.765   8.423  19.202  0.00  0.00    +0.000 A 
ATOM     21  C   UNL     1       1.332   9.114  18.064  0.00  0.00    +0.000 A 
ATOM     22  C   UNL     1       0.307  10.057  18.158  0.00  0.00    +0.000 A 
ATOM     23  C   UNL     1      -0.278  10.335  19.392  0.00  0.00    +0.000 A 
ATOM     24  C   UNL     1       0.175   9.682  20.538  0.00  0.00    +0.000 A 
ATOM     25  C   UNL     1       1.190   8.732  20.443  0.00  0.00    +0.000 A 
ENDBRANCH  19  20
ENDBRANCH   1  19
TORSDOF 6
ENDMDL
MODEL 6
REMARK VINA RESULT:      -7.7      1.768      5.040
REMARK  Name = 
REMARK  7 active torsions:
REMARK  status: ('A' for Active; 'I' for Inactive)
REMARK    1  A    between atoms: C_1  and  C_2
REMARK    2  A    between atoms: N_7  and  C_8
REMARK    3  A    between atoms: C_8  and  C_9
REMARK    4  A    between atoms: C_8  and  C_17
REMARK    5  A    between atoms: C_9  and  O_10
REMARK    6  A    between atoms: O_10  and  C_11
REMARK    7  A    between atoms: C_17  and  C_18
REMARK                            x       y       z     vdW  Elec       q    Type
REMARK                         _______ _______ _______ _____ _____    ______ ____
ROOT
ATOM      1  C   UNL     1       2.465   6.043  18.153  0.00  0.00    +0.000 C 
ENDROOT
BRANCH   1   8
ATOM      2  C   UNL     1       1.484   2.302  21.976  0.00  0.00    +0.000 C 
ATOM      3  C   UNL     1       2.632   2.878  21.141  0.00  0.00    +0.000 C 
ATOM      4  C   UNL     1       2.656   2.307  19.713  0.00  0.00    +0.000 C 
ATOM      5  C   UNL     1       1.384   2.519  18.880  0.00  0.00    +0.000 C 
ATOM      6  C   UNL     1       1.292   3.873  18.205  0.00  0.00    +0.000 C 
ATOM      7  O   UNL     1       0.895   3.971  17.042  0.00  0.00    +0.000 OA
ATOM      8  N   UNL     1       1.745   4.970  18.926  0.00  0.00    +0.000 N 
ATOM      9  C   UNL     1       1.521   5.050  20.364  0.00  0.00    +0.000 C 
ATOM     10  C   UNL     1       2.644   4.413  21.171  0.00  0.00    +0.000 C 
ENDBRANCH   1   8
BRANCH   1  11
ATOM     11  C   UNL     1       3.710   5.432  17.443  0.00  0.00    +0.000 C 
BRANCH  11  12
ATOM     12  O   UNL     1       4.653   4.943  18.408  0.00  0.00    +0.000 OA
BRANCH  12  13
ATOM     13  C   UNL     1       5.849   5.610  18.459  0.00  0.00    +0.000 A 
ATOM     14  C   UNL     1       6.034   6.588  17.479  0.00  0.00    +0.000 A 
ATOM     15  C   UNL     1       7.222   7.321  17.422  0.00  0.00    +0.000 A 
ATOM     16  C   UNL     1       8.225   7.091  18.363  0.00  0.00    +0.000 A 
ATOM     17  C   UNL     1       8.032   6.143  19.364  0.00  0.00    +0.000 A 
ATOM     18  C   UNL     1       6.845   5.407  19.416  0.00  0.00    +0.000 A 
ENDBRANCH  12  13
ENDBRANCH  11  12
ENDBRANCH   1  11
BRANCH   1  19
ATOM     19  C   UNL     1       2.836   7.283  18.999  0.00  0.00    +0.000 C 
BRANCH  19  20
ATOM     20  C   UNL     1       1.779   8.350  19.171  0.00  0.00    +0.000 A 
ATOM     21  C   UNL     1       1.237   8.620  20.434  0.00  0.00    +0.000 A 
ATOM     22  C   UNL     1       0.365   9.696  20.612  0.00  0.00    +0.000 A 
ATOM     23  C   UNL     1       0.010  10.497  19.529  0.00  0.00    +0.000 A 
ATOM     24  C   UNL     1       0.512  10.212  18.260  0.00  0.00    +0.000 A 
ATOM     25  C   UNL     1       1.391   9.144  18.082  0.00  0.00    +0.000 A 
ENDBRANCH  19  20
ENDBRANCH   1  19
TORSDOF 6
ENDMDL
MODEL 7
REMARK VINA RESULT:      -7.6      1.649      5.551
REMARK  Name = 
REMARK  7 active torsions:
REMARK  status: ('A' for Active; 'I' for Inactive)
REMARK    1  A    between atoms: C_1  and  C_2
REMARK    2  A    between atoms: N_7  and  C_8
REMARK    3  A    between atoms: C_8  and  C_9
REMARK    4  A    between atoms: C_8  and  C_17
REMARK    5  A    between atoms: C_9  and  O_10
REMARK    6  A    between atoms: O_10  and  C_11
REMARK    7  A    between atoms: C_17  and  C_18
REMARK                            x       y       z     vdW  Elec       q    Type
REMARK                         _______ _______ _______ _____ _____    ______ ____
ROOT
ATOM      1  C   UNL     1       4.194   5.543  17.111  0.00  0.00    +0.000 C 
ENDROOT
BRANCH   1   8
ATOM      2  C   UNL     1       0.839   1.986  19.491  0.00  0.00    +0.000 C 
ATOM      3  C   UNL     1       1.129   3.488  19.425  0.00  0.00    +0.000 C 
ATOM      4  C   UNL     1       2.325   3.889  20.305  0.00  0.00    +0.000 C 
ATOM      5  C   UNL     1       3.656   3.191  19.992  0.00  0.00    +0.000 C 
ATOM      6  C   UNL     1       4.441   3.814  18.854  0.00  0.00    +0.000 C 
ATOM      7  O   UNL     1       5.662   3.963  18.939  0.00  0.00    +0.000 OA
ATOM      8  N   UNL     1       3.715   4.272  17.763  0.00  0.00    +0.000 N 
ATOM      9  C   UNL     1       2.547   3.538  17.294  0.00  0.00    +0.000 C 
ATOM     10  C   UNL     1       1.260   3.980  17.977  0.00  0.00    +0.000 C 
ENDBRANCH   1   8
BRANCH   1  11
ATOM     11  C   UNL     1       5.505   5.265  16.318  0.00  0.00    +0.000 C 
BRANCH  11  12
ATOM     12  O   UNL     1       5.364   4.091  15.505  0.00  0.00    +0.000 OA
BRANCH  12  13
ATOM     13  C   UNL     1       5.978   4.139  14.281  0.00  0.00    +0.000 A 
ATOM     14  C   UNL     1       7.088   4.983  14.199  0.00  0.00    +0.000 A 
ATOM     15  C   UNL     1       7.784   5.127  12.996  0.00  0.00    +0.000 A 
ATOM     16  C   UNL     1       7.383   4.408  11.871  0.00  0.00    +0.000 A 
ATOM     17  C   UNL     1       6.299   3.537  11.956  0.00  0.00    +0.000 A 
ATOM     18  C   UNL     1       5.601   3.399  13.159  0.00  0.00    +0.000 A 
ENDBRANCH  12  13
ENDBRANCH  11  12
ENDBRANCH   1  11
BRANCH   1  19
ATOM     19  C   UNL     1       4.353   6.728  18.091  0.00  0.00    +0.000 C 
BRANCH  19  20
ATOM     20  C   UNL     1       3.106   7.496  18.466  0.00  0.00    +0.000 A 
ATOM     21  C   UNL     1       2.491   7.295  19.708  0.00  0.00    +0.000 A 
ATOM     22  C   UNL     1       1.424   8.103  20.105  0.00  0.00    +0.000 A 
ATOM     23  C   UNL     1       0.948   9.102  19.258  0.00  0.00    +0.000 A 
ATOM     24  C   UNL     1       1.526   9.282  18.003  0.00  0.00    +0.000 A 
ATOM     25  C   UNL     1       2.599   8.484  17.609  0.00  0.00    +0.000 A 
ENDBRANCH  19  20
ENDBRANCH   1  19
TORSDOF 6
ENDMDL
MODEL 8
REMARK VINA RESULT:      -7.6      1.180      1.764
REMARK  Name = 
REMARK  7 active torsions:
REMARK  status: ('A' for Active; 'I' for Inactive)
REMARK    1  A    between atoms: C_1  and  C_2
REMARK    2  A    between atoms: N_7  and  C_8
REMARK    3  A    between atoms: C_8  and  C_9
REMARK    4  A    between atoms: C_8  and  C_17
REMARK    5  A    between atoms: C_9  and  O_10
REMARK    6  A    between atoms: O_10  and  C_11
REMARK    7  A    between atoms: C_17  and  C_18
REMARK                            x       y       z     vdW  Elec       q    Type
REMARK                         _______ _______ _______ _____ _____    ______ ____
ROOT
ATOM      1  C   UNL     1       4.564   6.562  18.299  0.00  0.00    +0.000 C 
ENDROOT
BRANCH   1   8
ATOM      2  C   UNL     1       6.598   4.222  13.832  0.00  0.00    +0.000 C 
ATOM      3  C   UNL     1       6.092   3.871  15.235  0.00  0.00    +0.000 C 
ATOM      4  C   UNL     1       7.146   4.146  16.320  0.00  0.00    +0.000 C 
ATOM      5  C   UNL     1       7.662   5.589  16.409  0.00  0.00    +0.000 C 
ATOM      6  C   UNL     1       6.776   6.526  17.207  0.00  0.00    +0.000 C 
ATOM      7  O   UNL     1       7.265   7.337  17.994  0.00  0.00    +0.000 OA
ATOM      8  N   UNL     1       5.403   6.371  17.063  0.00  0.00    +0.000 N 
ATOM      9  C   UNL     1       4.830   6.034  15.767  0.00  0.00    +0.000 C 
ATOM     10  C   UNL     1       4.739   4.533  15.535  0.00  0.00    +0.000 C 
ENDBRANCH   1   8
BRANCH   1  11
ATOM     11  C   UNL     1       4.849   5.413  19.311  0.00  0.00    +0.000 C 
BRANCH  11  12
ATOM     12  O   UNL     1       4.393   4.156  18.790  0.00  0.00    +0.000 OA
BRANCH  12  13
ATOM     13  C   UNL     1       3.151   3.755  19.210  0.00  0.00    +0.000 A 
ATOM     14  C   UNL     1       2.418   3.006  18.287  0.00  0.00    +0.000 A 
ATOM     15  C   UNL     1       1.132   2.557  18.598  0.00  0.00    +0.000 A 
ATOM     16  C   UNL     1       0.581   2.840  19.846  0.00  0.00    +0.000 A 
ATOM     17  C   UNL     1       1.321   3.556  20.784  0.00  0.00    +0.000 A 
ATOM     18  C   UNL     1       2.605   4.009  20.470  0.00  0.00    +0.000 A 
ENDBRANCH  12  13
ENDBRANCH  11  12
ENDBRANCH   1  11
BRANCH   1  19
ATOM     19  C   UNL     1       3.052   6.716  18.013  0.00  0.00    +0.000 C 
BRANCH  19  20
ATOM     20  C   UNL     1       2.315   7.823  18.731  0.00  0.00    +0.000 A 
ATOM     21  C   UNL     1       1.915   8.976  18.045  0.00  0.00    +0.000 A 
ATOM     22  C   UNL     1       1.117   9.931  18.676  0.00  0.00    +0.000 A 
ATOM     23  C   UNL     1       0.730   9.755  20.003  0.00  0.00    +0.000 A 
ATOM     24  C   UNL     1       1.157   8.631  20.708  0.00  0.00    +0.000 A 
ATOM     25  C   UNL     1       1.945   7.670  20.075  0.00  0.00    +0.000 A 
ENDBRANCH  19  20
ENDBRANCH   1  19
TORSDOF 6
ENDMDL
MODEL 9
REMARK VINA RESULT:      -7.6      1.149      1.530
REMARK  Name = 
REMARK  7 active torsions:
REMARK  status: ('A' for Active; 'I' for Inactive)
REMARK    1  A    between atoms: C_1  and  C_2
REMARK    2  A    between atoms: N_7  and  C_8
REMARK    3  A    between atoms: C_8  and  C_9
REMARK    4  A    between atoms: C_8  and  C_17
REMARK    5  A    between atoms: C_9  and  O_10
REMARK    6  A    between atoms: O_10  and  C_11
REMARK    7  A    between atoms: C_17  and  C_18
REMARK                            x       y       z     vdW  Elec       q    Type
REMARK                         _______ _______ _______ _____ _____    ______ ____
ROOT
ATOM      1  C   UNL     1       4.570   6.645  18.206  0.00  0.00    +0.000 C 
ENDROOT
BRANCH   1   8
ATOM      2  C   UNL     1       6.789   4.367  13.795  0.00  0.00    +0.000 C 
ATOM      3  C   UNL     1       6.136   3.991  15.129  0.00  0.00    +0.000 C 
ATOM      4  C   UNL     1       7.111   4.120  16.311  0.00  0.00    +0.000 C 
ATOM      5  C   UNL     1       7.731   5.508  16.525  0.00  0.00    +0.000 C 
ATOM      6  C   UNL     1       6.858   6.475  17.299  0.00  0.00    +0.000 C 
ATOM      7  O   UNL     1       7.341   7.201  18.169  0.00  0.00    +0.000 OA
ATOM      8  N   UNL     1       5.495   6.445  17.035  0.00  0.00    +0.000 N 
ATOM      9  C   UNL     1       5.011   6.224  15.678  0.00  0.00    +0.000 C 
ATOM     10  C   UNL     1       4.820   4.749  15.354  0.00  0.00    +0.000 C 
ENDBRANCH   1   8
BRANCH   1  11
ATOM     11  C   UNL     1       4.789   5.508  19.249  0.00  0.00    +0.000 C 
BRANCH  11  12
ATOM     12  O   UNL     1       4.421   4.237  18.695  0.00  0.00    +0.000 OA
BRANCH  12  13
ATOM     13  C   UNL     1       3.175   3.779  19.035  0.00  0.00    +0.000 A 
ATOM     14  C   UNL     1       2.782   4.030  20.352  0.00  0.00    +0.000 A 
ATOM     15  C   UNL     1       1.539   3.594  20.818  0.00  0.00    +0.000 A 
ATOM     16  C   UNL     1       0.672   2.922  19.958  0.00  0.00    +0.000 A 
ATOM     17  C   UNL     1       1.043   2.701  18.634  0.00  0.00    +0.000 A 
ATOM     18  C   UNL     1       2.289   3.132  18.171  0.00  0.00    +0.000 A 
ENDBRANCH  12  13
ENDBRANCH  11  12
ENDBRANCH   1  11
BRANCH   1  19
ATOM     19  C   UNL     1       3.081   6.786  17.813  0.00  0.00    +0.000 C 
BRANCH  19  20
ATOM     20  C   UNL     1       2.241   7.764  18.602  0.00  0.00    +0.000 A 
ATOM     21  C   UNL     1       1.973   7.542  19.958  0.00  0.00    +0.000 A 
ATOM     22  C   UNL     1       1.315   8.512  20.715  0.00  0.00    +0.000 A 
ATOM     23  C   UNL     1       0.900   9.702  20.121  0.00  0.00    +0.000 A 
ATOM     24  C   UNL     1       1.125   9.916  18.762  0.00  0.00    +0.000 A 
ATOM     25  C   UNL     1       1.792   8.952  18.007  0.00  0.00    +0.000 A 
ENDBRANCH  19  20
ENDBRANCH   1  19
TORSDOF 6
ENDMDL
