MODEL 1
REMARK VINA RESULT:      -6.8      0.000      0.000
REMARK  Name = 
REMARK  5 active torsions:
REMARK  status: ('A' for Active; 'I' for Inactive)
REMARK    1  A    between atoms: C_1  and  O_2
REMARK    2  A    between atoms: O_2  and  C_3
REMARK    3  A    between atoms: C_6  and  C_7
REMARK    4  A    between atoms: C_9  and  C_10
REMARK    5  A    between atoms: C_10  and  N_11
REMARK                            x       y       z     vdW  Elec       q    Type
REMARK                         _______ _______ _______ _____ _____    ______ ____
ROOT
ATOM      1  C   UNL     1       3.277   6.243  18.608  0.00  0.00    +0.000 A 
ATOM      2  N   UNL     1       3.495   5.571  17.492  0.00  0.00    +0.000 NA
ATOM      3  C   UNL     1       4.338   4.545  17.873  0.00  0.00    +0.000 A 
ATOM      4  C   UNL     1       4.581   4.634  19.225  0.00  0.00    +0.000 A 
ATOM      5  O   UNL     1       3.912   5.716  19.704  0.00  0.00    +0.000 OA
ENDROOT
BRANCH   1   9
ATOM      6  C   UNL     1       0.919   9.739  19.330  0.00  0.00    +0.000 A 
ATOM      7  C   UNL     1       1.162   8.825  20.357  0.00  0.00    +0.000 A 
ATOM      8  C   UNL     1       1.923   7.674  20.120  0.00  0.00    +0.000 A 
ATOM      9  C   UNL     1       2.443   7.418  18.844  0.00  0.00    +0.000 A 
ATOM     10  C   UNL     1       2.161   8.325  17.812  0.00  0.00    +0.000 A 
ATOM     11  C   UNL     1       1.404   9.476  18.051  0.00  0.00    +0.000 A 
BRANCH   6  13
ATOM     12  C   UNL     1      -0.449  10.763  20.956  0.00  0.00    +0.000 C 
ATOM     13  O   UNL     1       0.175  10.833  19.678  0.00  0.00    +0.000 OA
ENDBRANCH   6  13
ENDBRANCH   1   9
BRANCH   3  14
ATOM     14  C   UNL     1       4.844   3.556  16.893  0.00  0.00    +0.000 C 
BRANCH  14  15
ATOM     15  N   UNL     1       5.810   4.166  15.995  0.00  0.00    +0.000 N 
ATOM     16  C   UNL     1       5.779   4.138  14.628  0.00  0.00    +0.000 A 
ATOM     17  C   UNL     1       6.897   4.837  14.236  0.00  0.00    +0.000 A 
ATOM     18  N   UNL     1       7.580   5.313  15.322  0.00  0.00    +0.000 NA
ATOM     19  C   UNL     1       6.900   4.902  16.370  0.00  0.00    +0.000 A 
ENDBRANCH  14  15
ENDBRANCH   3  14
TORSDOF 4
ENDMDL
MODEL 2
REMARK VINA RESULT:      -6.7      0.564      1.241
REMARK  Name = 
REMARK  5 active torsions:
REMARK  status: ('A' for Active; 'I' for Inactive)
REMARK    1  A    between atoms: C_1  and  O_2
REMARK    2  A    between atoms: O_2  and  C_3
REMARK    3  A    between atoms: C_6  and  C_7
REMARK    4  A    between atoms: C_9  and  C_10
REMARK    5  A    between atoms: C_10  and  N_11
REMARK                            x       y       z     vdW  Elec       q    Type
REMARK                         _______ _______ _______ _____ _____    ______ ____
ROOT
ATOM      1  C   UNL     1       3.225   6.325  18.629  0.00  0.00    +0.000 A 
ATOM      2  N   UNL     1       3.475   5.686  17.501  0.00  0.00    +0.000 NA
ATOM      3  C   UNL     1       4.262   4.617  17.884  0.00  0.00    +0.000 A 
ATOM      4  C   UNL     1       4.438   4.648  19.248  0.00  0.00    +0.000 A 
ATOM      5  O   UNL     1       3.785   5.735  19.734  0.00  0.00    +0.000 OA
ENDROOT
BRANCH   1   9
ATOM      6  C   UNL     1       0.785   9.775  19.299  0.00  0.00    +0.000 A 
ATOM      7  C   UNL     1       1.327   9.526  18.037  0.00  0.00    +0.000 A 
ATOM      8  C   UNL     1       2.135   8.404  17.818  0.00  0.00    +0.000 A 
ATOM      9  C   UNL     1       2.422   7.521  18.868  0.00  0.00    +0.000 A 
ATOM     10  C   UNL     1       1.902   7.802  20.139  0.00  0.00    +0.000 A 
ATOM     11  C   UNL     1       1.091   8.921  20.356  0.00  0.00    +0.000 A 
BRANCH   6  13
ATOM     12  C   UNL     1      -1.263  10.804  18.740  0.00  0.00    +0.000 C 
ATOM     13  O   UNL     1      -0.001  10.891  19.394  0.00  0.00    +0.000 OA
ENDBRANCH   6  13
ENDBRANCH   1   9
BRANCH   3  14
ATOM     14  C   UNL     1       4.782   3.646  16.893  0.00  0.00    +0.000 C 
BRANCH  14  15
ATOM     15  N   UNL     1       5.791   4.260  16.049  0.00  0.00    +0.000 N 
ATOM     16  C   UNL     1       5.917   4.115  14.694  0.00  0.00    +0.000 A 
ATOM     17  C   UNL     1       7.014   4.873  14.358  0.00  0.00    +0.000 A 
ATOM     18  N   UNL     1       7.532   5.497  15.461  0.00  0.00    +0.000 NA
ATOM     19  C   UNL     1       6.773   5.117  16.465  0.00  0.00    +0.000 A 
ENDBRANCH  14  15
ENDBRANCH   3  14
TORSDOF 4
ENDMDL
MODEL 3
REMARK VINA RESULT:      -6.5      1.009      1.551
REMARK  Name = 
REMARK  5 active torsions:
REMARK  status: ('A' for Active; 'I' for Inactive)
REMARK    1  A    between atoms: C_1  and  O_2
REMARK    2  A    between atoms: O_2  and  C_3
REMARK    3  A    between atoms: C_6  and  C_7
REMARK    4  A    between atoms: C_9  and  C_10
REMARK    5  A    between atoms: C_10  and  N_11
REMARK                            x       y       z     vdW  Elec       q    Type
REMARK                         _______ _______ _______ _____ _____    ______ ____
ROOT
ATOM      1  C   UNL     1       2.898   6.385  18.437  0.00  0.00    +0.000 A 
ATOM      2  N   UNL     1       4.185   6.091  18.424  0.00  0.00    +0.000 NA
ATOM      3  C   UNL     1       4.233   4.797  17.942  0.00  0.00    +0.000 A 
ATOM      4  C   UNL     1       2.955   4.369  17.663  0.00  0.00    +0.000 A 
ATOM      5  O   UNL     1       2.095   5.372  17.978  0.00  0.00    +0.000 OA
ENDROOT
BRANCH   1   9
ATOM      6  C   UNL     1       0.836   9.969  19.536  0.00  0.00    +0.000 A 
ATOM      7  C   UNL     1       1.306   9.795  18.233  0.00  0.00    +0.000 A 
ATOM      8  C   UNL     1       1.991   8.628  17.874  0.00  0.00    +0.000 A 
ATOM      9  C   UNL     1       2.226   7.623  18.823  0.00  0.00    +0.000 A 
ATOM     10  C   UNL     1       1.782   7.827  20.137  0.00  0.00    +0.000 A 
ATOM     11  C   UNL     1       1.094   8.991  20.493  0.00  0.00    +0.000 A 
BRANCH   6  13
ATOM     12  C   UNL     1       0.996  12.275  20.004  0.00  0.00    +0.000 C 
ATOM     13  O   UNL     1       0.169  11.140  19.771  0.00  0.00    +0.000 OA
ENDBRANCH   6  13
ENDBRANCH   1   9
BRANCH   3  14
ATOM     14  C   UNL     1       5.518   4.076  17.788  0.00  0.00    +0.000 C 
BRANCH  14  15
ATOM     15  N   UNL     1       6.158   4.424  16.532  0.00  0.00    +0.000 N 
ATOM     16  C   UNL     1       5.928   3.843  15.314  0.00  0.00    +0.000 A 
ATOM     17  C   UNL     1       6.769   4.500  14.446  0.00  0.00    +0.000 A 
ATOM     18  N   UNL     1       7.472   5.479  15.095  0.00  0.00    +0.000 NA
ATOM     19  C   UNL     1       7.080   5.418  16.349  0.00  0.00    +0.000 A 
ENDBRANCH  14  15
ENDBRANCH   3  14
TORSDOF 4
ENDMDL
MODEL 4
REMARK VINA RESULT:      -6.5      0.941      1.017
REMARK  Name = 
REMARK  5 active torsions:
REMARK  status: ('A' for Active; 'I' for Inactive)
REMARK    1  A    between atoms: C_1  and  O_2
REMARK    2  A    between atoms: O_2  and  C_3
REMARK    3  A    between atoms: C_6  and  C_7
REMARK    4  A    between atoms: C_9  and  C_10
REMARK    5  A    between atoms: C_10  and  N_11
REMARK                            x       y       z     vdW  Elec       q    Type
REMARK                         _______ _______ _______ _____ _____    ______ ____
ROOT
ATOM      1  C   UNL     1       2.923   6.359  18.491  0.00  0.00    +0.000 A 
ATOM      2  N   UNL     1       4.222   6.126  18.456  0.00  0.00    +0.000 NA
ATOM      3  C   UNL     1       4.320   4.816  18.028  0.00  0.00    +0.000 A 
ATOM      4  C   UNL     1       3.058   4.315  17.803  0.00  0.00    +0.000 A 
ATOM      5  O   UNL     1       2.159   5.290  18.098  0.00  0.00    +0.000 OA
ENDROOT
BRANCH   1   9
ATOM      6  C   UNL     1       0.900   9.978  19.549  0.00  0.00    +0.000 A 
ATOM      7  C   UNL     1       1.105   8.978  20.501  0.00  0.00    +0.000 A 
ATOM      8  C   UNL     1       1.756   7.788  20.154  0.00  0.00    +0.000 A 
ATOM      9  C   UNL     1       2.201   7.579  18.842  0.00  0.00    +0.000 A 
ATOM     10  C   UNL     1       1.955   8.576  17.886  0.00  0.00    +0.000 A 
ATOM     11  C   UNL     1       1.309   9.765  18.234  0.00  0.00    +0.000 A 
BRANCH   6  13
ATOM     12  C   UNL     1      -1.054  11.298  19.505  0.00  0.00    +0.000 C 
ATOM     13  O   UNL     1       0.266  11.102  20.001  0.00  0.00    +0.000 OA
ENDBRANCH   6  13
ENDBRANCH   1   9
BRANCH   3  14
ATOM     14  C   UNL     1       5.635   4.151  17.871  0.00  0.00    +0.000 C 
BRANCH  14  15
ATOM     15  N   UNL     1       6.216   4.456  16.575  0.00  0.00    +0.000 N 
ATOM     16  C   UNL     1       5.940   3.827  15.391  0.00  0.00    +0.000 A 
ATOM     17  C   UNL     1       6.735   4.458  14.463  0.00  0.00    +0.000 A 
ATOM     18  N   UNL     1       7.455   5.468  15.043  0.00  0.00    +0.000 NA
ATOM     19  C   UNL     1       7.118   5.451  16.314  0.00  0.00    +0.000 A 
ENDBRANCH  14  15
ENDBRANCH   3  14
TORSDOF 4
ENDMDL
MODEL 5
REMARK VINA RESULT:      -6.2      1.208      1.929
REMARK  Name = 
REMARK  5 active torsions:
REMARK  status: ('A' for Active; 'I' for Inactive)
REMARK    1  A    between atoms: C_1  and  O_2
REMARK    2  A    between atoms: O_2  and  C_3
REMARK    3  A    between atoms: C_6  and  C_7
REMARK    4  A    between atoms: C_9  and  C_10
REMARK    5  A    between atoms: C_10  and  N_11
REMARK                            x       y       z     vdW  Elec       q    Type
REMARK                         _______ _______ _______ _____ _____    ______ ____
ROOT
ATOM      1  C   UNL     1       2.590   6.470  19.030  0.00  0.00    +0.000 A 
ATOM      2  N   UNL     1       3.164   5.936  17.967  0.00  0.00    +0.000 NA
ATOM      3  C   UNL     1       3.496   4.656  18.368  0.00  0.00    +0.000 A 
ATOM      4  C   UNL     1       3.084   4.465  19.668  0.00  0.00    +0.000 A 
ATOM      5  O   UNL     1       2.509   5.617  20.101  0.00  0.00    +0.000 OA
ENDROOT
BRANCH   1   9
ATOM      6  C   UNL     1       0.785  10.317  19.526  0.00  0.00    +0.000 A 
ATOM      7  C   UNL     1       1.296   9.930  18.286  0.00  0.00    +0.000 A 
ATOM      8  C   UNL     1       1.898   8.676  18.124  0.00  0.00    +0.000 A 
ATOM      9  C   UNL     1       2.006   7.796  19.209  0.00  0.00    +0.000 A 
ATOM     10  C   UNL     1       1.523   8.212  20.458  0.00  0.00    +0.000 A 
ATOM     11  C   UNL     1       0.918   9.462  20.618  0.00  0.00    +0.000 A 
BRANCH   6  13
ATOM     12  C   UNL     1       0.933  12.587  18.904  0.00  0.00    +0.000 C 
ATOM     13  O   UNL     1       0.207  11.556  19.566  0.00  0.00    +0.000 OA
ENDBRANCH   6  13
ENDBRANCH   1   9
BRANCH   3  14
ATOM     14  C   UNL     1       4.188   3.715  17.456  0.00  0.00    +0.000 C 
BRANCH  14  15
ATOM     15  N   UNL     1       5.553   4.146  17.209  0.00  0.00    +0.000 N 
ATOM     16  C   UNL     1       6.453   4.574  18.147  0.00  0.00    +0.000 A 
ATOM     17  C   UNL     1       7.589   4.877  17.433  0.00  0.00    +0.000 A 
ATOM     18  N   UNL     1       7.413   4.612  16.101  0.00  0.00    +0.000 NA
ATOM     19  C   UNL     1       6.181   4.166  15.994  0.00  0.00    +0.000 A 
ENDBRANCH  14  15
ENDBRANCH   3  14
TORSDOF 4
ENDMDL
MODEL 6
REMARK VINA RESULT:      -6.2      5.469      6.515
REMARK  Name = 
REMARK  5 active torsions:
REMARK  status: ('A' for Active; 'I' for Inactive)
REMARK    1  A    between atoms: C_1  and  O_2
REMARK    2  A    between atoms: O_2  and  C_3
REMARK    3  A    between atoms: C_6  and  C_7
REMARK    4  A    between atoms: C_9  and  C_10
REMARK    5  A    between atoms: C_10  and  N_11
REMARK                            x       y       z     vdW  Elec       q    Type
REMARK                         _______ _______ _______ _____ _____    ______ ____
ROOT
ATOM      1  C   UNL     1       8.082   8.387  18.017  0.00  0.00    +0.000 A 
ATOM      2  N   UNL     1       7.324   7.986  17.013  0.00  0.00    +0.000 NA
ATOM      3  C   UNL     1       7.151   6.634  17.237  0.00  0.00    +0.000 A 
ATOM      4  C   UNL     1       7.807   6.277  18.394  0.00  0.00    +0.000 A 
ATOM      5  O   UNL     1       8.407   7.387  18.898  0.00  0.00    +0.000 OA
ENDROOT
BRANCH   1   9
ATOM      6  C   UNL     1       9.625  12.277  18.905  0.00  0.00    +0.000 A 
ATOM      7  C   UNL     1       9.914  11.195  19.738  0.00  0.00    +0.000 A 
ATOM      8  C   UNL     1       9.400   9.924  19.456  0.00  0.00    +0.000 A 
ATOM      9  C   UNL     1       8.578   9.722  18.338  0.00  0.00    +0.000 A 
ATOM     10  C   UNL     1       8.266  10.825  17.531  0.00  0.00    +0.000 A 
ATOM     11  C   UNL     1       8.783  12.094  17.811  0.00  0.00    +0.000 A 
BRANCH   6  13
ATOM     12  C   UNL     1      10.810  14.196  18.211  0.00  0.00    +0.000 C 
ATOM     13  O   UNL     1      10.191  13.469  19.268  0.00  0.00    +0.000 OA
ENDBRANCH   6  13
ENDBRANCH   1   9
BRANCH   3  14
ATOM     14  C   UNL     1       6.361   5.791  16.309  0.00  0.00    +0.000 C 
BRANCH  14  15
ATOM     15  N   UNL     1       5.076   5.448  16.891  0.00  0.00    +0.000 N 
ATOM     16  C   UNL     1       4.547   4.192  17.012  0.00  0.00    +0.000 A 
ATOM     17  C   UNL     1       3.323   4.380  17.610  0.00  0.00    +0.000 A 
ATOM     18  N   UNL     1       3.113   5.705  17.884  0.00  0.00    +0.000 NA
ATOM     19  C   UNL     1       4.187   6.326  17.448  0.00  0.00    +0.000 A 
ENDBRANCH  14  15
ENDBRANCH   3  14
TORSDOF 4
ENDMDL
MODEL 7
REMARK VINA RESULT:      -6.2      5.495      6.563
REMARK  Name = 
REMARK  5 active torsions:
REMARK  status: ('A' for Active; 'I' for Inactive)
REMARK    1  A    between atoms: C_1  and  O_2
REMARK    2  A    between atoms: O_2  and  C_3
REMARK    3  A    between atoms: C_6  and  C_7
REMARK    4  A    between atoms: C_9  and  C_10
REMARK    5  A    between atoms: C_10  and  N_11
REMARK                            x       y       z     vdW  Elec       q    Type
REMARK                         _______ _______ _______ _____ _____    ______ ____
ROOT
ATOM      1  C   UNL     1       8.126   8.421  18.016  0.00  0.00    +0.000 A 
ATOM      2  N   UNL     1       7.389   8.007  17.001  0.00  0.00    +0.000 NA
ATOM      3  C   UNL     1       7.204   6.659  17.244  0.00  0.00    +0.000 A 
ATOM      4  C   UNL     1       7.831   6.319  18.421  0.00  0.00    +0.000 A 
ATOM      5  O   UNL     1       8.426   7.433  18.920  0.00  0.00    +0.000 OA
ENDROOT
BRANCH   1   9
ATOM      6  C   UNL     1       9.488  12.361  18.977  0.00  0.00    +0.000 A 
ATOM      7  C   UNL     1       8.750  12.132  17.815  0.00  0.00    +0.000 A 
ATOM      8  C   UNL     1       8.313  10.841  17.492  0.00  0.00    +0.000 A 
ATOM      9  C   UNL     1       8.622   9.758  18.327  0.00  0.00    +0.000 A 
ATOM     10  C   UNL     1       9.396   9.996  19.472  0.00  0.00    +0.000 A 
ATOM     11  C   UNL     1       9.828  11.286  19.795  0.00  0.00    +0.000 A 
BRANCH   6  13
ATOM     12  C   UNL     1      10.597  14.272  18.153  0.00  0.00    +0.000 C 
ATOM     13  O   UNL     1       9.850  13.661  19.199  0.00  0.00    +0.000 OA
ENDBRANCH   6  13
ENDBRANCH   1   9
BRANCH   3  14
ATOM     14  C   UNL     1       6.431   5.805  16.311  0.00  0.00    +0.000 C 
BRANCH  14  15
ATOM     15  N   UNL     1       5.172   5.398  16.909  0.00  0.00    +0.000 N 
ATOM     16  C   UNL     1       4.191   6.226  17.383  0.00  0.00    +0.000 A 
ATOM     17  C   UNL     1       3.213   5.381  17.854  0.00  0.00    +0.000 A 
ATOM     18  N   UNL     1       3.558   4.072  17.648  0.00  0.00    +0.000 NA
ATOM     19  C   UNL     1       4.739   4.110  17.071  0.00  0.00    +0.000 A 
ENDBRANCH  14  15
ENDBRANCH   3  14
TORSDOF 4
ENDMDL
MODEL 8
REMARK VINA RESULT:      -6.2      1.251      1.623
REMARK  Name = 
REMARK  5 active torsions:
REMARK  status: ('A' for Active; 'I' for Inactive)
REMARK    1  A    between atoms: C_1  and  O_2
REMARK    2  A    between atoms: O_2  and  C_3
REMARK    3  A    between atoms: C_6  and  C_7
REMARK    4  A    between atoms: C_9  and  C_10
REMARK    5  A    between atoms: C_10  and  N_11
REMARK                            x       y       z     vdW  Elec       q    Type
REMARK                         _______ _______ _______ _____ _____    ______ ____
ROOT
ATOM      1  C   UNL     1       2.537   6.470  19.151  0.00  0.00    +0.000 A 
ATOM      2  N   UNL     1       3.093   6.032  18.035  0.00  0.00    +0.000 NA
ATOM      3  C   UNL     1       3.458   4.732  18.326  0.00  0.00    +0.000 A 
ATOM      4  C   UNL     1       3.085   4.432  19.616  0.00  0.00    +0.000 A 
ATOM      5  O   UNL     1       2.500   5.534  20.154  0.00  0.00    +0.000 OA
ENDROOT
BRANCH   1   9
ATOM      6  C   UNL     1       0.864  10.301  20.057  0.00  0.00    +0.000 A 
ATOM      7  C   UNL     1       0.942   9.314  21.040  0.00  0.00    +0.000 A 
ATOM      8  C   UNL     1       1.478   8.055  20.743  0.00  0.00    +0.000 A 
ATOM      9  C   UNL     1       1.934   7.765  19.449  0.00  0.00    +0.000 A 
ATOM     10  C   UNL     1       1.815   8.754  18.462  0.00  0.00    +0.000 A 
ATOM     11  C   UNL     1       1.283  10.012  18.761  0.00  0.00    +0.000 A 
BRANCH   6  13
ATOM     12  C   UNL     1       1.121  12.644  20.156  0.00  0.00    +0.000 C 
ATOM     13  O   UNL     1       0.336  11.496  20.462  0.00  0.00    +0.000 OA
ENDBRANCH   6  13
ENDBRANCH   1   9
BRANCH   3  14
ATOM     14  C   UNL     1       4.143   3.880  17.325  0.00  0.00    +0.000 C 
BRANCH  14  15
ATOM     15  N   UNL     1       5.547   4.237  17.218  0.00  0.00    +0.000 N 
ATOM     16  C   UNL     1       6.372   4.611  18.243  0.00  0.00    +0.000 A 
ATOM     17  C   UNL     1       7.587   4.854  17.647  0.00  0.00    +0.000 A 
ATOM     18  N   UNL     1       7.529   4.607  16.302  0.00  0.00    +0.000 NA
ATOM     19  C   UNL     1       6.291   4.229  16.070  0.00  0.00    +0.000 A 
ENDBRANCH  14  15
ENDBRANCH   3  14
TORSDOF 4
ENDMDL
MODEL 9
REMARK VINA RESULT:      -6.1      1.435      1.793
REMARK  Name = 
REMARK  5 active torsions:
REMARK  status: ('A' for Active; 'I' for Inactive)
REMARK    1  A    between atoms: C_1  and  O_2
REMARK    2  A    between atoms: O_2  and  C_3
REMARK    3  A    between atoms: C_6  and  C_7
REMARK    4  A    between atoms: C_9  and  C_10
REMARK    5  A    between atoms: C_10  and  N_11
REMARK                            x       y       z     vdW  Elec       q    Type
REMARK                         _______ _______ _______ _____ _____    ______ ____
ROOT
ATOM      1  C   UNL     1       2.657   7.334  18.889  0.00  0.00    +0.000 A 
ATOM      2  N   UNL     1       3.019   6.099  19.183  0.00  0.00    +0.000 NA
ATOM      3  C   UNL     1       3.898   5.753  18.173  0.00  0.00    +0.000 A 
ATOM      4  C   UNL     1       4.043   6.818  17.313  0.00  0.00    +0.000 A 
ATOM      5  O   UNL     1       3.254   7.831  17.758  0.00  0.00    +0.000 OA
ENDROOT
BRANCH   1   9
ATOM      6  C   UNL     1       0.124  10.044  21.019  0.00  0.00    +0.000 A 
ATOM      7  C   UNL     1       0.609   8.893  21.641  0.00  0.00    +0.000 A 
ATOM      8  C   UNL     1       1.428   7.998  20.942  0.00  0.00    +0.000 A 
ATOM      9  C   UNL     1       1.764   8.241  19.603  0.00  0.00    +0.000 A 
ATOM     10  C   UNL     1       1.240   9.383  18.979  0.00  0.00    +0.000 A 
ATOM     11  C   UNL     1       0.425  10.277  19.679  0.00  0.00    +0.000 A 
BRANCH   6  13
ATOM     12  C   UNL     1      -0.914  10.365  23.113  0.00  0.00    +0.000 C 
ATOM     13  O   UNL     1      -0.656  10.853  21.800  0.00  0.00    +0.000 OA
ENDBRANCH   6  13
ENDBRANCH   1   9
BRANCH   3  14
ATOM     14  C   UNL     1       4.529   4.414  18.123  0.00  0.00    +0.000 C 
BRANCH  14  15
ATOM     15  N   UNL     1       5.669   4.414  17.223  0.00  0.00    +0.000 N 
ATOM     16  C   UNL     1       5.641   4.172  15.876  0.00  0.00    +0.000 A 
ATOM     17  C   UNL     1       6.952   4.275  15.473  0.00  0.00    +0.000 A 
ATOM     18  N   UNL     1       7.762   4.604  16.526  0.00  0.00    +0.000 NA
ATOM     19  C   UNL     1       6.964   4.689  17.567  0.00  0.00    +0.000 A 
ENDBRANCH  14  15
ENDBRANCH   3  14
TORSDOF 4
ENDMDL
