MODEL 1
REMARK VINA RESULT:      -7.3      0.000      0.000
REMARK  Name = 
REMARK  6 active torsions:
REMARK  status: ('A' for Active; 'I' for Inactive)
REMARK    1  A    between atoms: C_1  and  N_2
REMARK    2  A    between atoms: C_4  and  C_5
REMARK    3  A    between atoms: N_7  and  C_8
REMARK    4  A    between atoms: C_8  and  C_9
REMARK    5  A    between atoms: C_9  and  C_10
REMARK    6  A    between atoms: C_17  and  O_18
REMARK                            x       y       z     vdW  Elec       q    Type
REMARK                         _______ _______ _______ _____ _____    ______ ____
ROOT
ATOM      1  C   UNL     1       5.058   3.315  18.437  0.00  0.00    +0.000 C 
ATOM      2  O   UNL     1       5.106   3.326  19.662  0.00  0.00    +0.000 OA
ATOM      3  N   UNL     1       4.163   2.571  17.728  0.00  0.00    +0.000 N 
ATOM      4  H   UNL     1       3.971   2.780  16.759  0.00  0.00    +0.000 HD
ENDROOT
BRANCH   1   8
ATOM      5  C   UNL     1       7.547   7.512  17.490  0.00  0.00    +0.000 C 
ATOM      6  N   UNL     1       7.171   6.124  17.383  0.00  0.00    +0.000 N 
ATOM      7  C   UNL     1       6.441   5.425  18.406  0.00  0.00    +0.000 C 
ATOM      8  C   UNL     1       5.929   4.229  17.657  0.00  0.00    +0.000 C 
ATOM      9  C   UNL     1       6.381   4.193  16.398  0.00  0.00    +0.000 C 
ATOM     10  C   UNL     1       7.206   5.423  16.204  0.00  0.00    +0.000 C 
ATOM     11  O   UNL     1       7.740   5.764  15.161  0.00  0.00    +0.000 OA
BRANCH   9  12
ATOM     12  O   UNL     1       6.172   3.308  15.383  0.00  0.00    +0.000 OA
ATOM     13  H   UNL     1       6.058   3.774  14.542  0.00  0.00    +0.000 HD
ENDBRANCH   9  12
ENDBRANCH   1   8
BRANCH   3  14
ATOM     14  C   UNL     1       3.210   1.706  18.425  0.00  0.00    +0.000 C 
BRANCH  14  15
ATOM     15  C   UNL     1       1.818   2.337  18.566  0.00  0.00    +0.000 C 
BRANCH  15  16
ATOM     16  C   UNL     1       1.831   3.779  19.016  0.00  0.00    +0.000 A 
ATOM     17  C   UNL     1       1.977   4.825  18.092  0.00  0.00    +0.000 A 
ATOM     18  C   UNL     1       1.976   6.157  18.519  0.00  0.00    +0.000 A 
ATOM     19  C   UNL     1       1.818   6.451  19.871  0.00  0.00    +0.000 A 
ATOM     20 CL   UNL     1       1.821   8.088  20.398  0.00  0.00    +0.000 Cl
ATOM     21  C   UNL     1       1.654   5.425  20.799  0.00  0.00    +0.000 A 
ATOM     22  C   UNL     1       1.655   4.096  20.372  0.00  0.00    +0.000 A 
ENDBRANCH  15  16
ENDBRANCH  14  15
ENDBRANCH   3  14
TORSDOF 5
ENDMDL
MODEL 2
REMARK VINA RESULT:      -7.2      0.151      1.089
REMARK  Name = 
REMARK  6 active torsions:
REMARK  status: ('A' for Active; 'I' for Inactive)
REMARK    1  A    between atoms: C_1  and  N_2
REMARK    2  A    between atoms: C_4  and  C_5
REMARK    3  A    between atoms: N_7  and  C_8
REMARK    4  A    between atoms: C_8  and  C_9
REMARK    5  A    between atoms: C_9  and  C_10
REMARK    6  A    between atoms: C_17  and  O_18
REMARK                            x       y       z     vdW  Elec       q    Type
REMARK                         _______ _______ _______ _____ _____    ______ ____
ROOT
ATOM      1  C   UNL     1       5.112   3.374  18.472  0.00  0.00    +0.000 C 
ATOM      2  O   UNL     1       5.212   3.354  19.694  0.00  0.00    +0.000 OA
ATOM      3  N   UNL     1       4.171   2.666  17.785  0.00  0.00    +0.000 N 
ATOM      4  H   UNL     1       3.942   2.903  16.831  0.00  0.00    +0.000 HD
ENDROOT
BRANCH   1   8
ATOM      5  C   UNL     1       7.527   7.597  17.454  0.00  0.00    +0.000 C 
ATOM      6  N   UNL     1       7.175   6.202  17.371  0.00  0.00    +0.000 N 
ATOM      7  C   UNL     1       6.456   5.508  18.405  0.00  0.00    +0.000 C 
ATOM      8  C   UNL     1       5.967   4.289  17.677  0.00  0.00    +0.000 C 
ATOM      9  C   UNL     1       6.420   4.240  16.419  0.00  0.00    +0.000 C 
ATOM     10  C   UNL     1       7.224   5.481  16.205  0.00  0.00    +0.000 C 
ATOM     11  O   UNL     1       7.753   5.813  15.156  0.00  0.00    +0.000 OA
BRANCH   9  12
ATOM     12  O   UNL     1       6.228   3.334  15.419  0.00  0.00    +0.000 OA
ATOM     13  H   UNL     1       5.284   3.167  15.287  0.00  0.00    +0.000 HD
ENDBRANCH   9  12
ENDBRANCH   1   8
BRANCH   3  14
ATOM     14  C   UNL     1       3.231   1.803  18.502  0.00  0.00    +0.000 C 
BRANCH  14  15
ATOM     15  C   UNL     1       1.835   2.425  18.648  0.00  0.00    +0.000 C 
BRANCH  15  16
ATOM     16  C   UNL     1       1.843   3.887  19.024  0.00  0.00    +0.000 A 
ATOM     17  C   UNL     1       1.658   4.294  20.355  0.00  0.00    +0.000 A 
ATOM     18  C   UNL     1       1.678   5.651  20.694  0.00  0.00    +0.000 A 
ATOM     19  C   UNL     1       1.896   6.609  19.706  0.00  0.00    +0.000 A 
ATOM     20 CL   UNL     1       1.917   8.278  20.120  0.00  0.00    +0.000 Cl
ATOM     21  C   UNL     1       2.098   6.221  18.384  0.00  0.00    +0.000 A 
ATOM     22  C   UNL     1       2.078   4.866  18.047  0.00  0.00    +0.000 A 
ENDBRANCH  15  16
ENDBRANCH  14  15
ENDBRANCH   3  14
TORSDOF 5
ENDMDL
MODEL 3
REMARK VINA RESULT:      -7.1      1.722      2.632
REMARK  Name = 
REMARK  6 active torsions:
REMARK  status: ('A' for Active; 'I' for Inactive)
REMARK    1  A    between atoms: C_1  and  N_2
REMARK    2  A    between atoms: C_4  and  C_5
REMARK    3  A    between atoms: N_7  and  C_8
REMARK    4  A    between atoms: C_8  and  C_9
REMARK    5  A    between atoms: C_9  and  C_10
REMARK    6  A    between atoms: C_17  and  O_18
REMARK                            x       y       z     vdW  Elec       q    Type
REMARK                         _______ _______ _______ _____ _____    ______ ____
ROOT
ATOM      1  C   UNL     1       5.327   4.051  17.206  0.00  0.00    +0.000 C 
ATOM      2  O   UNL     1       5.570   4.693  18.222  0.00  0.00    +0.000 OA
ATOM      3  N   UNL     1       4.372   3.080  17.142  0.00  0.00    +0.000 N 
ATOM      4  H   UNL     1       4.015   2.765  16.252  0.00  0.00    +0.000 HD
ENDROOT
BRANCH   1   8
ATOM      5  C   UNL     1       6.566   3.512  12.422  0.00  0.00    +0.000 C 
ATOM      6  N   UNL     1       6.392   4.165  13.696  0.00  0.00    +0.000 N 
ATOM      7  C   UNL     1       5.506   3.676  14.717  0.00  0.00    +0.000 C 
ATOM      8  C   UNL     1       6.009   4.397  15.934  0.00  0.00    +0.000 C 
ATOM      9  C   UNL     1       6.991   5.257  15.638  0.00  0.00    +0.000 C 
ATOM     10  C   UNL     1       7.247   5.126  14.173  0.00  0.00    +0.000 C 
ATOM     11  O   UNL     1       8.114   5.716  13.547  0.00  0.00    +0.000 OA
BRANCH   9  12
ATOM     12  O   UNL     1       7.725   6.099  16.418  0.00  0.00    +0.000 OA
ATOM     13  H   UNL     1       8.019   5.650  17.223  0.00  0.00    +0.000 HD
ENDBRANCH   9  12
ENDBRANCH   1   8
BRANCH   3  14
ATOM     14  C   UNL     1       3.593   2.736  18.333  0.00  0.00    +0.000 C 
BRANCH  14  15
ATOM     15  C   UNL     1       2.166   3.301  18.301  0.00  0.00    +0.000 C 
BRANCH  15  16
ATOM     16  C   UNL     1       2.011   4.636  18.989  0.00  0.00    +0.000 A 
ATOM     17  C   UNL     1       1.608   4.719  20.331  0.00  0.00    +0.000 A 
ATOM     18  C   UNL     1       1.479   5.961  20.961  0.00  0.00    +0.000 A 
ATOM     19  C   UNL     1       1.764   7.128  20.256  0.00  0.00    +0.000 A 
ATOM     20 CL   UNL     1       1.602   8.656  21.028  0.00  0.00    +0.000 Cl
ATOM     21  C   UNL     1       2.182   7.063  18.929  0.00  0.00    +0.000 A 
ATOM     22  C   UNL     1       2.311   5.823  18.301  0.00  0.00    +0.000 A 
ENDBRANCH  15  16
ENDBRANCH  14  15
ENDBRANCH   3  14
TORSDOF 5
ENDMDL
MODEL 4
REMARK VINA RESULT:      -7.1      2.831      4.242
REMARK  Name = 
REMARK  6 active torsions:
REMARK  status: ('A' for Active; 'I' for Inactive)
REMARK    1  A    between atoms: C_1  and  N_2
REMARK    2  A    between atoms: C_4  and  C_5
REMARK    3  A    between atoms: N_7  and  C_8
REMARK    4  A    between atoms: C_8  and  C_9
REMARK    5  A    between atoms: C_9  and  C_10
REMARK    6  A    between atoms: C_17  and  O_18
REMARK                            x       y       z     vdW  Elec       q    Type
REMARK                         _______ _______ _______ _____ _____    ______ ____
ROOT
ATOM      1  C   UNL     1       7.150   5.233  15.976  0.00  0.00    +0.000 C 
ATOM      2  O   UNL     1       7.511   6.366  16.273  0.00  0.00    +0.000 OA
ATOM      3  N   UNL     1       6.762   4.304  16.894  0.00  0.00    +0.000 N 
ATOM      4  H   UNL     1       6.227   3.494  16.616  0.00  0.00    +0.000 HD
ENDROOT
BRANCH   1   8
ATOM      5  C   UNL     1       5.410   2.630  12.115  0.00  0.00    +0.000 C 
ATOM      6  N   UNL     1       6.035   3.718  12.825  0.00  0.00    +0.000 N 
ATOM      7  C   UNL     1       5.857   3.945  14.233  0.00  0.00    +0.000 C 
ATOM      8  C   UNL     1       7.009   4.855  14.548  0.00  0.00    +0.000 C 
ATOM      9  C   UNL     1       7.704   5.183  13.452  0.00  0.00    +0.000 C 
ATOM     10  C   UNL     1       7.072   4.455  12.311  0.00  0.00    +0.000 C 
ATOM     11  O   UNL     1       7.466   4.466  11.155  0.00  0.00    +0.000 OA
BRANCH   9  12
ATOM     12  O   UNL     1       8.805   5.966  13.275  0.00  0.00    +0.000 OA
ATOM     13  H   UNL     1       9.413   5.562  12.640  0.00  0.00    +0.000 HD
ENDBRANCH   9  12
ENDBRANCH   1   8
BRANCH   3  14
ATOM     14  C   UNL     1       6.790   4.625  18.322  0.00  0.00    +0.000 C 
BRANCH  14  15
ATOM     15  C   UNL     1       5.549   5.399  18.788  0.00  0.00    +0.000 C 
BRANCH  15  16
ATOM     16  C   UNL     1       4.271   4.594  18.771  0.00  0.00    +0.000 A 
ATOM     17  C   UNL     1       3.169   4.999  18.002  0.00  0.00    +0.000 A 
ATOM     18  C   UNL     1       1.995   4.238  17.985  0.00  0.00    +0.000 A 
ATOM     19  C   UNL     1       1.921   3.062  18.727  0.00  0.00    +0.000 A 
ATOM     20 CL   UNL     1       0.477   2.128  18.709  0.00  0.00    +0.000 Cl
ATOM     21  C   UNL     1       3.012   2.637  19.481  0.00  0.00    +0.000 A 
ATOM     22  C   UNL     1       4.183   3.396  19.497  0.00  0.00    +0.000 A 
ENDBRANCH  15  16
ENDBRANCH  14  15
ENDBRANCH   3  14
TORSDOF 5
ENDMDL
MODEL 5
REMARK VINA RESULT:      -7.1      4.365      8.097
REMARK  Name = 
REMARK  6 active torsions:
REMARK  status: ('A' for Active; 'I' for Inactive)
REMARK    1  A    between atoms: C_1  and  N_2
REMARK    2  A    between atoms: C_4  and  C_5
REMARK    3  A    between atoms: N_7  and  C_8
REMARK    4  A    between atoms: C_8  and  C_9
REMARK    5  A    between atoms: C_9  and  C_10
REMARK    6  A    between atoms: C_17  and  O_18
REMARK                            x       y       z     vdW  Elec       q    Type
REMARK                         _______ _______ _______ _____ _____    ______ ____
ROOT
ATOM      1  C   UNL     1       7.339   6.803  17.228  0.00  0.00    +0.000 C 
ATOM      2  O   UNL     1       7.741   6.762  16.071  0.00  0.00    +0.000 OA
ATOM      3  N   UNL     1       7.545   7.866  18.056  0.00  0.00    +0.000 N 
ATOM      4  H   UNL     1       6.989   7.986  18.890  0.00  0.00    +0.000 HD
ENDROOT
BRANCH   1   8
ATOM      5  C   UNL     1       3.524   3.617  17.229  0.00  0.00    +0.000 C 
ATOM      6  N   UNL     1       4.804   4.175  17.589  0.00  0.00    +0.000 N 
ATOM      7  C   UNL     1       5.501   5.135  16.777  0.00  0.00    +0.000 C 
ATOM      8  C   UNL     1       6.488   5.707  17.753  0.00  0.00    +0.000 C 
ATOM      9  C   UNL     1       6.430   5.095  18.942  0.00  0.00    +0.000 C 
ATOM     10  C   UNL     1       5.340   4.079  18.848  0.00  0.00    +0.000 C 
ATOM     11  O   UNL     1       4.958   3.360  19.758  0.00  0.00    +0.000 OA
BRANCH   9  12
ATOM     12  O   UNL     1       7.127   5.288  20.097  0.00  0.00    +0.000 OA
ATOM     13  H   UNL     1       6.836   6.099  20.539  0.00  0.00    +0.000 HD
ENDBRANCH   9  12
ENDBRANCH   1   8
BRANCH   3  14
ATOM     14  C   UNL     1       8.304   9.027  17.587  0.00  0.00    +0.000 C 
BRANCH  14  15
ATOM     15  C   UNL     1       8.890   9.864  18.733  0.00  0.00    +0.000 C 
BRANCH  15  16
ATOM     16  C   UNL     1       9.510  11.170  18.294  0.00  0.00    +0.000 A 
ATOM     17  C   UNL     1      10.871  11.251  17.962  0.00  0.00    +0.000 A 
ATOM     18  C   UNL     1      11.430  12.464  17.546  0.00  0.00    +0.000 A 
ATOM     19  C   UNL     1      10.630  13.599  17.447  0.00  0.00    +0.000 A 
ATOM     20 CL   UNL     1      11.317  15.091  16.939  0.00  0.00    +0.000 Cl
ATOM     21  C   UNL     1       9.273  13.531  17.755  0.00  0.00    +0.000 A 
ATOM     22  C   UNL     1       8.715  12.320  18.170  0.00  0.00    +0.000 A 
ENDBRANCH  15  16
ENDBRANCH  14  15
ENDBRANCH   3  14
TORSDOF 5
ENDMDL
MODEL 6
REMARK VINA RESULT:      -7.0      4.377      8.109
REMARK  Name = 
REMARK  6 active torsions:
REMARK  status: ('A' for Active; 'I' for Inactive)
REMARK    1  A    between atoms: C_1  and  N_2
REMARK    2  A    between atoms: C_4  and  C_5
REMARK    3  A    between atoms: N_7  and  C_8
REMARK    4  A    between atoms: C_8  and  C_9
REMARK    5  A    between atoms: C_9  and  C_10
REMARK    6  A    between atoms: C_17  and  O_18
REMARK                            x       y       z     vdW  Elec       q    Type
REMARK                         _______ _______ _______ _____ _____    ______ ____
ROOT
ATOM      1  C   UNL     1       7.327   6.812  17.263  0.00  0.00    +0.000 C 
ATOM      2  O   UNL     1       7.906   6.680  16.191  0.00  0.00    +0.000 OA
ATOM      3  N   UNL     1       7.353   7.963  17.993  0.00  0.00    +0.000 N 
ATOM      4  H   UNL     1       6.668   8.132  18.715  0.00  0.00    +0.000 HD
ENDROOT
BRANCH   1   8
ATOM      5  C   UNL     1       3.403   3.761  17.248  0.00  0.00    +0.000 C 
ATOM      6  N   UNL     1       4.712   4.259  17.592  0.00  0.00    +0.000 N 
ATOM      7  C   UNL     1       5.418   5.228  16.799  0.00  0.00    +0.000 C 
ATOM      8  C   UNL     1       6.452   5.725  17.768  0.00  0.00    +0.000 C 
ATOM      9  C   UNL     1       6.408   5.064  18.931  0.00  0.00    +0.000 C 
ATOM     10  C   UNL     1       5.280   4.091  18.829  0.00  0.00    +0.000 C 
ATOM     11  O   UNL     1       4.900   3.348  19.719  0.00  0.00    +0.000 OA
BRANCH   9  12
ATOM     12  O   UNL     1       7.145   5.184  20.072  0.00  0.00    +0.000 OA
ATOM     13  H   UNL     1       7.879   4.554  20.071  0.00  0.00    +0.000 HD
ENDBRANCH   9  12
ENDBRANCH   1   8
BRANCH   3  14
ATOM     14  C   UNL     1       8.124   9.114  17.523  0.00  0.00    +0.000 C 
BRANCH  14  15
ATOM     15  C   UNL     1       8.859   9.848  18.653  0.00  0.00    +0.000 C 
BRANCH  15  16
ATOM     16  C   UNL     1       9.515  11.141  18.231  0.00  0.00    +0.000 A 
ATOM     17  C   UNL     1       8.763  12.314  18.061  0.00  0.00    +0.000 A 
ATOM     18  C   UNL     1       9.383  13.508  17.681  0.00  0.00    +0.000 A 
ATOM     19  C   UNL     1      10.761  13.541  17.481  0.00  0.00    +0.000 A 
ATOM     20 CL   UNL     1      11.523  15.008  17.010  0.00  0.00    +0.000 Cl
ATOM     21  C   UNL     1      11.524  12.390  17.662  0.00  0.00    +0.000 A 
ATOM     22  C   UNL     1      10.904  11.198  18.041  0.00  0.00    +0.000 A 
ENDBRANCH  15  16
ENDBRANCH  14  15
ENDBRANCH   3  14
TORSDOF 5
ENDMDL
MODEL 7
REMARK VINA RESULT:      -7.0      1.565      2.182
REMARK  Name = 
REMARK  6 active torsions:
REMARK  status: ('A' for Active; 'I' for Inactive)
REMARK    1  A    between atoms: C_1  and  N_2
REMARK    2  A    between atoms: C_4  and  C_5
REMARK    3  A    between atoms: N_7  and  C_8
REMARK    4  A    between atoms: C_8  and  C_9
REMARK    5  A    between atoms: C_9  and  C_10
REMARK    6  A    between atoms: C_17  and  O_18
REMARK                            x       y       z     vdW  Elec       q    Type
REMARK                         _______ _______ _______ _____ _____    ______ ____
ROOT
ATOM      1  C   UNL     1       5.230   3.662  17.480  0.00  0.00    +0.000 C 
ATOM      2  O   UNL     1       5.430   4.233  18.546  0.00  0.00    +0.000 OA
ATOM      3  N   UNL     1       4.315   2.663  17.324  0.00  0.00    +0.000 N 
ATOM      4  H   UNL     1       3.986   2.402  16.406  0.00  0.00    +0.000 HD
ENDROOT
BRANCH   1   8
ATOM      5  C   UNL     1       6.445   3.628  12.660  0.00  0.00    +0.000 C 
ATOM      6  N   UNL     1       6.292   4.139  14.000  0.00  0.00    +0.000 N 
ATOM      7  C   UNL     1       5.394   3.563  14.964  0.00  0.00    +0.000 C 
ATOM      8  C   UNL     1       5.919   4.129  16.252  0.00  0.00    +0.000 C 
ATOM      9  C   UNL     1       6.924   4.989  16.049  0.00  0.00    +0.000 C 
ATOM     10  C   UNL     1       7.174   5.016  14.577  0.00  0.00    +0.000 C 
ATOM     11  O   UNL     1       8.056   5.649  14.017  0.00  0.00    +0.000 OA
BRANCH   9  12
ATOM     12  O   UNL     1       7.683   5.718  16.914  0.00  0.00    +0.000 OA
ATOM     13  H   UNL     1       7.612   6.663  16.718  0.00  0.00    +0.000 HD
ENDBRANCH   9  12
ENDBRANCH   1   8
BRANCH   3  14
ATOM     14  C   UNL     1       3.531   2.200  18.470  0.00  0.00    +0.000 C 
BRANCH  14  15
ATOM     15  C   UNL     1       2.108   2.776  18.497  0.00  0.00    +0.000 C 
BRANCH  15  16
ATOM     16  C   UNL     1       2.016   4.182  19.042  0.00  0.00    +0.000 A 
ATOM     17  C   UNL     1       2.217   5.295  18.212  0.00  0.00    +0.000 A 
ATOM     18  C   UNL     1       2.118   6.593  18.725  0.00  0.00    +0.000 A 
ATOM     19  C   UNL     1       1.806   6.784  20.069  0.00  0.00    +0.000 A 
ATOM     20 CL   UNL     1       1.689   8.378  20.703  0.00  0.00    +0.000 Cl
ATOM     21  C   UNL     1       1.587   5.690  20.902  0.00  0.00    +0.000 A 
ATOM     22  C   UNL     1       1.685   4.395  20.389  0.00  0.00    +0.000 A 
ENDBRANCH  15  16
ENDBRANCH  14  15
ENDBRANCH   3  14
TORSDOF 5
ENDMDL
MODEL 8
REMARK VINA RESULT:      -7.0      1.572      2.395
REMARK  Name = 
REMARK  6 active torsions:
REMARK  status: ('A' for Active; 'I' for Inactive)
REMARK    1  A    between atoms: C_1  and  N_2
REMARK    2  A    between atoms: C_4  and  C_5
REMARK    3  A    between atoms: N_7  and  C_8
REMARK    4  A    between atoms: C_8  and  C_9
REMARK    5  A    between atoms: C_9  and  C_10
REMARK    6  A    between atoms: C_17  and  O_18
REMARK                            x       y       z     vdW  Elec       q    Type
REMARK                         _______ _______ _______ _____ _____    ______ ____
ROOT
ATOM      1  C   UNL     1       5.378   3.864  18.311  0.00  0.00    +0.000 C 
ATOM      2  O   UNL     1       5.714   4.442  19.339  0.00  0.00    +0.000 OA
ATOM      3  N   UNL     1       4.393   2.923  18.268  0.00  0.00    +0.000 N 
ATOM      4  H   UNL     1       3.963   2.666  17.392  0.00  0.00    +0.000 HD
ENDROOT
BRANCH   1   8
ATOM      5  C   UNL     1       6.154   3.634  13.407  0.00  0.00    +0.000 C 
ATOM      6  N   UNL     1       6.143   4.190  14.737  0.00  0.00    +0.000 N 
ATOM      7  C   UNL     1       5.312   3.684  15.796  0.00  0.00    +0.000 C 
ATOM      8  C   UNL     1       5.973   4.263  17.012  0.00  0.00    +0.000 C 
ATOM      9  C   UNL     1       6.992   5.071  16.693  0.00  0.00    +0.000 C 
ATOM     10  C   UNL     1       7.110   5.044  15.205  0.00  0.00    +0.000 C 
ATOM     11  O   UNL     1       7.964   5.619  14.549  0.00  0.00    +0.000 OA
BRANCH   9  12
ATOM     12  O   UNL     1       7.856   5.791  17.464  0.00  0.00    +0.000 OA
ATOM     13  H   UNL     1       7.796   6.733  17.253  0.00  0.00    +0.000 HD
ENDBRANCH   9  12
ENDBRANCH   1   8
BRANCH   3  14
ATOM     14  C   UNL     1       3.696   2.532  19.494  0.00  0.00    +0.000 C 
BRANCH  14  15
ATOM     15  C   UNL     1       2.295   3.149  19.611  0.00  0.00    +0.000 C 
BRANCH  15  16
ATOM     16  C   UNL     1       2.242   4.630  19.320  0.00  0.00    +0.000 A 
ATOM     17  C   UNL     1       2.233   5.573  20.360  0.00  0.00    +0.000 A 
ATOM     18  C   UNL     1       2.196   6.942  20.078  0.00  0.00    +0.000 A 
ATOM     19  C   UNL     1       2.180   7.377  18.755  0.00  0.00    +0.000 A 
ATOM     20 CL   UNL     1       2.130   9.061  18.407  0.00  0.00    +0.000 Cl
ATOM     21  C   UNL     1       2.206   6.455  17.712  0.00  0.00    +0.000 A 
ATOM     22  C   UNL     1       2.244   5.089  17.994  0.00  0.00    +0.000 A 
ENDBRANCH  15  16
ENDBRANCH  14  15
ENDBRANCH   3  14
TORSDOF 5
ENDMDL
MODEL 9
REMARK VINA RESULT:      -7.0      1.588      2.207
REMARK  Name = 
REMARK  6 active torsions:
REMARK  status: ('A' for Active; 'I' for Inactive)
REMARK    1  A    between atoms: C_1  and  N_2
REMARK    2  A    between atoms: C_4  and  C_5
REMARK    3  A    between atoms: N_7  and  C_8
REMARK    4  A    between atoms: C_8  and  C_9
REMARK    5  A    between atoms: C_9  and  C_10
REMARK    6  A    between atoms: C_17  and  O_18
REMARK                            x       y       z     vdW  Elec       q    Type
REMARK                         _______ _______ _______ _____ _____    ______ ____
ROOT
ATOM      1  C   UNL     1       5.359   3.931  18.422  0.00  0.00    +0.000 C 
ATOM      2  O   UNL     1       5.755   4.480  19.445  0.00  0.00    +0.000 OA
ATOM      3  N   UNL     1       4.325   3.043  18.400  0.00  0.00    +0.000 N 
ATOM      4  H   UNL     1       3.857   2.818  17.535  0.00  0.00    +0.000 HD
ENDROOT
BRANCH   1   8
ATOM      5  C   UNL     1       6.044   3.655  13.507  0.00  0.00    +0.000 C 
ATOM      6  N   UNL     1       6.063   4.221  14.833  0.00  0.00    +0.000 N 
ATOM      7  C   UNL     1       5.245   3.733  15.910  0.00  0.00    +0.000 C 
ATOM      8  C   UNL     1       5.936   4.313  17.110  0.00  0.00    +0.000 C 
ATOM      9  C   UNL     1       6.959   5.105  16.766  0.00  0.00    +0.000 C 
ATOM     10  C   UNL     1       7.049   5.066  15.276  0.00  0.00    +0.000 C 
ATOM     11  O   UNL     1       7.899   5.625  14.601  0.00  0.00    +0.000 OA
BRANCH   9  12
ATOM     12  O   UNL     1       7.845   5.820  17.516  0.00  0.00    +0.000 OA
ATOM     13  H   UNL     1       7.387   6.296  18.223  0.00  0.00    +0.000 HD
ENDBRANCH   9  12
ENDBRANCH   1   8
BRANCH   3  14
ATOM     14  C   UNL     1       3.645   2.675  19.642  0.00  0.00    +0.000 C 
BRANCH  14  15
ATOM     15  C   UNL     1       2.265   3.332  19.789  0.00  0.00    +0.000 C 
BRANCH  15  16
ATOM     16  C   UNL     1       2.227   4.791  19.398  0.00  0.00    +0.000 A 
ATOM     17  C   UNL     1       2.126   5.179  18.054  0.00  0.00    +0.000 A 
ATOM     18  C   UNL     1       2.079   6.533  17.705  0.00  0.00    +0.000 A 
ATOM     19  C   UNL     1       2.122   7.507  18.700  0.00  0.00    +0.000 A 
ATOM     20 CL   UNL     1       2.070   9.172  18.273  0.00  0.00    +0.000 Cl
ATOM     21  C   UNL     1       2.205   7.138  20.041  0.00  0.00    +0.000 A 
ATOM     22  C   UNL     1       2.251   5.786  20.387  0.00  0.00    +0.000 A 
ENDBRANCH  15  16
ENDBRANCH  14  15
ENDBRANCH   3  14
TORSDOF 5
ENDMDL
