MODEL 1
REMARK VINA RESULT:      -7.2      0.000      0.000
REMARK  Name = 
REMARK  11 active torsions:
REMARK  status: ('A' for Active; 'I' for Inactive)
REMARK    1  A    between atoms: C_1  and  C_2
REMARK    2  A    between atoms: C_2  and  C_3
REMARK    3  A    between atoms: C_3  and  C_4
REMARK    4  A    between atoms: C_4  and  O_5
REMARK    5  A    between atoms: O_5  and  C_6
REMARK    6  A    between atoms: C_9  and  N_10
REMARK    7  A    between atoms: C_11  and  C_13
REMARK    8  A    between atoms: C_13  and  C_14
REMARK    9  A    between atoms: N_18  and  C_19
REMARK   10  A    between atoms: C_22  and  C_23
REMARK   11  A    between atoms: N_29  and  C_30
REMARK                            x       y       z     vdW  Elec       q    Type
REMARK                         _______ _______ _______ _____ _____    ______ ____
ROOT
ATOM      1  C   UNL     1       1.429   9.418  19.594  0.00  0.00    +0.000 A 
ATOM      2  C   UNL     1       0.917   9.148  20.806  0.00  0.00    +0.000 A 
ATOM      3  S   UNL     1       1.153   7.491  21.265  0.00  0.00    +0.000 S 
ATOM      4  C   UNL     1       2.137   7.171  19.781  0.00  0.00    +0.000 A 
ATOM      5  N   UNL     1       2.738   6.036  19.794  0.00  0.00    +0.000 NA
ATOM      6  N   UNL     1       2.037   8.306  18.962  0.00  0.00    +0.000 N 
ATOM      7  C   UNL     1       2.433   8.335  17.562  0.00  0.00    +0.000 C 
ENDROOT
BRANCH   5   8
ATOM      8  C   UNL     1       3.643   5.591  18.827  0.00  0.00    +0.000 A 
ATOM      9  C   UNL     1       4.966   6.024  18.768  0.00  0.00    +0.000 A 
ATOM     10  C   UNL     1       5.804   5.635  17.726  0.00  0.00    +0.000 A 
ATOM     11  C   UNL     1       5.384   4.673  16.801  0.00  0.00    +0.000 A 
ATOM     12  C   UNL     1       4.102   4.123  16.942  0.00  0.00    +0.000 A 
ATOM     13  C   UNL     1       3.236   4.593  17.937  0.00  0.00    +0.000 A 
BRANCH  11  14
ATOM     14  C   UNL     1       6.320   4.198  15.718  0.00  0.00    +0.000 C 
ATOM     15  F   UNL     1       6.008   2.957  15.247  0.00  0.00    +0.000 F 
ATOM     16  F   UNL     1       6.314   5.018  14.633  0.00  0.00    +0.000 F 
ATOM     17  F   UNL     1       7.615   4.123  16.129  0.00  0.00    +0.000 F 
ENDBRANCH  11  14
ENDBRANCH   5   8
BRANCH   1  18
ATOM     18  C   UNL     1       1.452  10.805  19.020  0.00  0.00    +0.000 C 
BRANCH  18  20
ATOM     19  N   UNL     1      -0.886  10.593  18.354  0.00  0.00    +0.000 N 
ATOM     20  C   UNL     1       0.060  11.407  18.957  0.00  0.00    +0.000 C 
ATOM     21  O   UNL     1      -0.150  12.512  19.443  0.00  0.00    +0.000 OA
ATOM     22  H   UNL     1      -0.671   9.610  18.232  0.00  0.00    +0.000 HD
BRANCH  19  26
ATOM     23  C   UNL     1      -4.891  11.680  17.537  0.00  0.00    +0.000 A 
ATOM     24  C   UNL     1      -4.270  12.080  18.723  0.00  0.00    +0.000 A 
ATOM     25  C   UNL     1      -2.950  11.744  18.982  0.00  0.00    +0.000 A 
ATOM     26  C   UNL     1      -2.211  10.991  18.077  0.00  0.00    +0.000 A 
ATOM     27  C   UNL     1      -2.802  10.627  16.864  0.00  0.00    +0.000 A 
ATOM     28  C   UNL     1      -4.140  10.957  16.604  0.00  0.00    +0.000 A 
BRANCH  23  29
ATOM     29  O   UNL     1      -6.199  11.950  17.211  0.00  0.00    +0.000 OA
BRANCH  29  30
ATOM     30  C   UNL     1      -7.118  11.705  18.281  0.00  0.00    +0.000 C 
BRANCH  30  31
ATOM     31  C   UNL     1      -7.091  10.247  18.708  0.00  0.00    +0.000 C 
BRANCH  31  33
ATOM     32  C   UNL     1      -6.966  11.490  20.902  0.00  0.00    +0.000 C 
ATOM     33  C   UNL     1      -7.232  10.160  20.229  0.00  0.00    +0.000 C 
ENDBRANCH  31  33
ENDBRANCH  30  31
ENDBRANCH  29  30
ENDBRANCH  23  29
ENDBRANCH  19  26
ENDBRANCH  18  20
ENDBRANCH   1  18
TORSDOF 9
ENDMDL
MODEL 2
REMARK VINA RESULT:      -7.0      6.345     11.039
REMARK  Name = 
REMARK  11 active torsions:
REMARK  status: ('A' for Active; 'I' for Inactive)
REMARK    1  A    between atoms: C_1  and  C_2
REMARK    2  A    between atoms: C_2  and  C_3
REMARK    3  A    between atoms: C_3  and  C_4
REMARK    4  A    between atoms: C_4  and  O_5
REMARK    5  A    between atoms: O_5  and  C_6
REMARK    6  A    between atoms: C_9  and  N_10
REMARK    7  A    between atoms: C_11  and  C_13
REMARK    8  A    between atoms: C_13  and  C_14
REMARK    9  A    between atoms: N_18  and  C_19
REMARK   10  A    between atoms: C_22  and  C_23
REMARK   11  A    between atoms: N_29  and  C_30
REMARK                            x       y       z     vdW  Elec       q    Type
REMARK                         _______ _______ _______ _____ _____    ______ ____
ROOT
ATOM      1  C   UNL     1       0.556  11.695  19.093  0.00  0.00    +0.000 A 
ATOM      2  C   UNL     1       1.716  12.341  19.291  0.00  0.00    +0.000 A 
ATOM      3  S   UNL     1       1.547  13.679  20.383  0.00  0.00    +0.000 S 
ATOM      4  C   UNL     1      -0.181  13.256  20.708  0.00  0.00    +0.000 A 
ATOM      5  N   UNL     1      -0.698  13.907  21.686  0.00  0.00    +0.000 NA
ATOM      6  N   UNL     1      -0.539  12.243  19.804  0.00  0.00    +0.000 N 
ATOM      7  C   UNL     1      -1.912  11.839  19.541  0.00  0.00    +0.000 C 
ENDROOT
BRANCH   5   8
ATOM      8  C   UNL     1      -1.974  13.695  22.213  0.00  0.00    +0.000 A 
ATOM      9  C   UNL     1      -2.254  12.703  23.151  0.00  0.00    +0.000 A 
ATOM     10  C   UNL     1      -3.560  12.458  23.571  0.00  0.00    +0.000 A 
ATOM     11  C   UNL     1      -4.600  13.308  23.181  0.00  0.00    +0.000 A 
ATOM     12  C   UNL     1      -4.299  14.399  22.353  0.00  0.00    +0.000 A 
ATOM     13  C   UNL     1      -3.000  14.577  21.862  0.00  0.00    +0.000 A 
BRANCH  11  14
ATOM     14  C   UNL     1      -5.999  13.085  23.697  0.00  0.00    +0.000 C 
ATOM     15  F   UNL     1      -6.065  12.133  24.671  0.00  0.00    +0.000 F 
ATOM     16  F   UNL     1      -6.534  14.211  24.243  0.00  0.00    +0.000 F 
ATOM     17  F   UNL     1      -6.867  12.685  22.729  0.00  0.00    +0.000 F 
ENDBRANCH  11  14
ENDBRANCH   5   8
BRANCH   1  18
ATOM     18  C   UNL     1       0.462  10.437  18.280  0.00  0.00    +0.000 C 
BRANCH  18  20
ATOM     19  N   UNL     1       2.109   8.663  17.964  0.00  0.00    +0.000 N 
ATOM     20  C   UNL     1       1.300   9.321  18.878  0.00  0.00    +0.000 C 
ATOM     21  O   UNL     1       1.243   9.092  20.079  0.00  0.00    +0.000 OA
ATOM     22  H   UNL     1       2.278   9.101  17.066  0.00  0.00    +0.000 HD
BRANCH  19  26
ATOM     23  C   UNL     1       4.328   5.175  18.855  0.00  0.00    +0.000 A 
ATOM     24  C   UNL     1       4.617   5.934  17.718  0.00  0.00    +0.000 A 
ATOM     25  C   UNL     1       3.906   7.090  17.436  0.00  0.00    +0.000 A 
ATOM     26  C   UNL     1       2.879   7.521  18.268  0.00  0.00    +0.000 A 
ATOM     27  C   UNL     1       2.612   6.800  19.436  0.00  0.00    +0.000 A 
ATOM     28  C   UNL     1       3.323   5.625  19.718  0.00  0.00    +0.000 A 
BRANCH  23  29
ATOM     29  O   UNL     1       4.967   4.007  19.197  0.00  0.00    +0.000 OA
BRANCH  29  30
ATOM     30  C   UNL     1       4.091   3.014  19.744  0.00  0.00    +0.000 C 
BRANCH  30  31
ATOM     31  C   UNL     1       3.581   2.074  18.664  0.00  0.00    +0.000 C 
BRANCH  31  33
ATOM     32  C   UNL     1       1.280   3.070  18.362  0.00  0.00    +0.000 C 
ATOM     33  C   UNL     1       2.075   1.872  18.838  0.00  0.00    +0.000 C 
ENDBRANCH  31  33
ENDBRANCH  30  31
ENDBRANCH  29  30
ENDBRANCH  23  29
ENDBRANCH  19  26
ENDBRANCH  18  20
ENDBRANCH   1  18
TORSDOF 9
ENDMDL
MODEL 3
REMARK VINA RESULT:      -7.0      1.378      2.070
REMARK  Name = 
REMARK  11 active torsions:
REMARK  status: ('A' for Active; 'I' for Inactive)
REMARK    1  A    between atoms: C_1  and  C_2
REMARK    2  A    between atoms: C_2  and  C_3
REMARK    3  A    between atoms: C_3  and  C_4
REMARK    4  A    between atoms: C_4  and  O_5
REMARK    5  A    between atoms: O_5  and  C_6
REMARK    6  A    between atoms: C_9  and  N_10
REMARK    7  A    between atoms: C_11  and  C_13
REMARK    8  A    between atoms: C_13  and  C_14
REMARK    9  A    between atoms: N_18  and  C_19
REMARK   10  A    between atoms: C_22  and  C_23
REMARK   11  A    between atoms: N_29  and  C_30
REMARK                            x       y       z     vdW  Elec       q    Type
REMARK                         _______ _______ _______ _____ _____    ______ ____
ROOT
ATOM      1  C   UNL     1       1.120  10.022  19.628  0.00  0.00    +0.000 A 
ATOM      2  C   UNL     1       0.837   9.851  20.929  0.00  0.00    +0.000 A 
ATOM      3  S   UNL     1       1.179   8.238  21.472  0.00  0.00    +0.000 S 
ATOM      4  C   UNL     1       1.886   7.798  19.865  0.00  0.00    +0.000 A 
ATOM      5  N   UNL     1       2.499   6.670  19.862  0.00  0.00    +0.000 NA
ATOM      6  N   UNL     1       1.623   8.863  18.989  0.00  0.00    +0.000 N 
ATOM      7  C   UNL     1       1.762   8.776  17.543  0.00  0.00    +0.000 C 
ENDROOT
BRANCH   5   8
ATOM      8  C   UNL     1       3.224   6.148  18.788  0.00  0.00    +0.000 A 
ATOM      9  C   UNL     1       2.771   5.084  18.011  0.00  0.00    +0.000 A 
ATOM     10  C   UNL     1       3.573   4.527  17.017  0.00  0.00    +0.000 A 
ATOM     11  C   UNL     1       4.788   5.127  16.668  0.00  0.00    +0.000 A 
ATOM     12  C   UNL     1       5.180   6.288  17.348  0.00  0.00    +0.000 A 
ATOM     13  C   UNL     1       4.411   6.782  18.409  0.00  0.00    +0.000 A 
BRANCH  11  14
ATOM     14  C   UNL     1       5.617   4.567  15.541  0.00  0.00    +0.000 C 
ATOM     15  F   UNL     1       6.479   5.479  15.005  0.00  0.00    +0.000 F 
ATOM     16  F   UNL     1       6.388   3.518  15.937  0.00  0.00    +0.000 F 
ATOM     17  F   UNL     1       4.866   4.113  14.501  0.00  0.00    +0.000 F 
ENDBRANCH  11  14
ENDBRANCH   5   8
BRANCH   1  18
ATOM     18  C   UNL     1       1.017  11.357  18.949  0.00  0.00    +0.000 C 
BRANCH  18  20
ATOM     19  N   UNL     1      -1.309  11.001  18.299  0.00  0.00    +0.000 N 
ATOM     20  C   UNL     1      -0.414  11.861  18.920  0.00  0.00    +0.000 C 
ATOM     21  O   UNL     1      -0.696  12.930  19.445  0.00  0.00    +0.000 OA
ATOM     22  H   UNL     1      -1.026  10.041  18.142  0.00  0.00    +0.000 HD
BRANCH  19  26
ATOM     23  C   UNL     1      -5.387  11.828  17.546  0.00  0.00    +0.000 A 
ATOM     24  C   UNL     1      -4.821  12.105  18.793  0.00  0.00    +0.000 A 
ATOM     25  C   UNL     1      -3.479  11.856  19.034  0.00  0.00    +0.000 A 
ATOM     26  C   UNL     1      -2.661  11.313  18.049  0.00  0.00    +0.000 A 
ATOM     27  C   UNL     1      -3.201  11.078  16.781  0.00  0.00    +0.000 A 
ATOM     28  C   UNL     1      -4.561  11.320  16.537  0.00  0.00    +0.000 A 
BRANCH  23  29
ATOM     29  O   UNL     1      -6.710  12.022  17.229  0.00  0.00    +0.000 OA
BRANCH  29  30
ATOM     30  C   UNL     1      -7.274  13.198  17.822  0.00  0.00    +0.000 C 
BRANCH  30  31
ATOM     31  C   UNL     1      -7.197  14.384  16.875  0.00  0.00    +0.000 C 
BRANCH  31  33
ATOM     32  C   UNL     1      -6.403  15.659  18.905  0.00  0.00    +0.000 C 
ATOM     33  C   UNL     1      -7.292  15.682  17.679  0.00  0.00    +0.000 C 
ENDBRANCH  31  33
ENDBRANCH  30  31
ENDBRANCH  29  30
ENDBRANCH  23  29
ENDBRANCH  19  26
ENDBRANCH  18  20
ENDBRANCH   1  18
TORSDOF 9
ENDMDL
MODEL 4
REMARK VINA RESULT:      -6.8      6.457     10.943
REMARK  Name = 
REMARK  11 active torsions:
REMARK  status: ('A' for Active; 'I' for Inactive)
REMARK    1  A    between atoms: C_1  and  C_2
REMARK    2  A    between atoms: C_2  and  C_3
REMARK    3  A    between atoms: C_3  and  C_4
REMARK    4  A    between atoms: C_4  and  O_5
REMARK    5  A    between atoms: O_5  and  C_6
REMARK    6  A    between atoms: C_9  and  N_10
REMARK    7  A    between atoms: C_11  and  C_13
REMARK    8  A    between atoms: C_13  and  C_14
REMARK    9  A    between atoms: N_18  and  C_19
REMARK   10  A    between atoms: C_22  and  C_23
REMARK   11  A    between atoms: N_29  and  C_30
REMARK                            x       y       z     vdW  Elec       q    Type
REMARK                         _______ _______ _______ _____ _____    ______ ____
ROOT
ATOM      1  C   UNL     1       1.152  14.119  19.675  0.00  0.00    +0.000 A 
ATOM      2  C   UNL     1       2.289  14.531  20.259  0.00  0.00    +0.000 A 
ATOM      3  S   UNL     1       2.034  15.074  21.887  0.00  0.00    +0.000 S 
ATOM      4  C   UNL     1       0.295  14.579  21.829  0.00  0.00    +0.000 A 
ATOM      5  N   UNL     1      -0.291  14.612  22.971  0.00  0.00    +0.000 NA
ATOM      6  N   UNL     1       0.008  14.221  20.503  0.00  0.00    +0.000 N 
ATOM      7  C   UNL     1      -1.340  14.051  19.982  0.00  0.00    +0.000 C 
ENDROOT
BRANCH   5   8
ATOM      8  C   UNL     1      -1.593  14.177  23.224  0.00  0.00    +0.000 A 
ATOM      9  C   UNL     1      -1.929  12.834  23.385  0.00  0.00    +0.000 A 
ATOM     10  C   UNL     1      -3.256  12.436  23.530  0.00  0.00    +0.000 A 
ATOM     11  C   UNL     1      -4.269  13.390  23.678  0.00  0.00    +0.000 A 
ATOM     12  C   UNL     1      -3.917  14.747  23.665  0.00  0.00    +0.000 A 
ATOM     13  C   UNL     1      -2.593  15.133  23.423  0.00  0.00    +0.000 A 
BRANCH  11  14
ATOM     14  C   UNL     1      -5.694  12.957  23.911  0.00  0.00    +0.000 C 
ATOM     15  F   UNL     1      -6.508  13.980  24.301  0.00  0.00    +0.000 F 
ATOM     16  F   UNL     1      -6.266  12.435  22.792  0.00  0.00    +0.000 F 
ATOM     17  F   UNL     1      -5.810  12.003  24.875  0.00  0.00    +0.000 F 
ENDBRANCH  11  14
ENDBRANCH   5   8
BRANCH   1  18
ATOM     18  C   UNL     1       1.127  13.499  18.308  0.00  0.00    +0.000 C 
BRANCH  18  20
ATOM     19  N   UNL     1       0.966  11.089  18.668  0.00  0.00    +0.000 N 
ATOM     20  C   UNL     1       1.798  12.137  18.300  0.00  0.00    +0.000 C 
ATOM     21  O   UNL     1       2.969  12.036  17.957  0.00  0.00    +0.000 OA
ATOM     22  H   UNL     1      -0.035  11.245  18.669  0.00  0.00    +0.000 HD
BRANCH  19  26
ATOM     23  C   UNL     1       2.378   7.139  19.197  0.00  0.00    +0.000 A 
ATOM     24  C   UNL     1       1.759   7.822  20.246  0.00  0.00    +0.000 A 
ATOM     25  C   UNL     1       1.276   9.109  20.068  0.00  0.00    +0.000 A 
ATOM     26  C   UNL     1       1.402   9.760  18.846  0.00  0.00    +0.000 A 
ATOM     27  C   UNL     1       1.973   9.071  17.773  0.00  0.00    +0.000 A 
ATOM     28  C   UNL     1       2.472   7.772  17.953  0.00  0.00    +0.000 A 
BRANCH  23  29
ATOM     29  O   UNL     1       2.905   5.873  19.293  0.00  0.00    +0.000 OA
BRANCH  29  30
ATOM     30  C   UNL     1       4.031   5.654  18.434  0.00  0.00    +0.000 C 
BRANCH  30  31
ATOM     31  C   UNL     1       5.263   5.259  19.230  0.00  0.00    +0.000 C 
BRANCH  31  33
ATOM     32  C   UNL     1       7.730   5.799  19.208  0.00  0.00    +0.000 C 
ATOM     33  C   UNL     1       6.511   5.470  18.371  0.00  0.00    +0.000 C 
ENDBRANCH  31  33
ENDBRANCH  30  31
ENDBRANCH  29  30
ENDBRANCH  23  29
ENDBRANCH  19  26
ENDBRANCH  18  20
ENDBRANCH   1  18
TORSDOF 9
ENDMDL
MODEL 5
REMARK VINA RESULT:      -6.8      6.638     11.073
REMARK  Name = 
REMARK  11 active torsions:
REMARK  status: ('A' for Active; 'I' for Inactive)
REMARK    1  A    between atoms: C_1  and  C_2
REMARK    2  A    between atoms: C_2  and  C_3
REMARK    3  A    between atoms: C_3  and  C_4
REMARK    4  A    between atoms: C_4  and  O_5
REMARK    5  A    between atoms: O_5  and  C_6
REMARK    6  A    between atoms: C_9  and  N_10
REMARK    7  A    between atoms: C_11  and  C_13
REMARK    8  A    between atoms: C_13  and  C_14
REMARK    9  A    between atoms: N_18  and  C_19
REMARK   10  A    between atoms: C_22  and  C_23
REMARK   11  A    between atoms: N_29  and  C_30
REMARK                            x       y       z     vdW  Elec       q    Type
REMARK                         _______ _______ _______ _____ _____    ______ ____
ROOT
ATOM      1  C   UNL     1      -0.147  13.474  19.838  0.00  0.00    +0.000 A 
ATOM      2  C   UNL     1       0.988  13.921  20.399  0.00  0.00    +0.000 A 
ATOM      3  S   UNL     1       0.713  14.655  21.947  0.00  0.00    +0.000 S 
ATOM      4  C   UNL     1      -1.039  14.203  21.902  0.00  0.00    +0.000 A 
ATOM      5  N   UNL     1      -1.648  14.384  23.017  0.00  0.00    +0.000 NA
ATOM      6  N   UNL     1      -1.307  13.701  20.619  0.00  0.00    +0.000 N 
ATOM      7  C   UNL     1      -2.647  13.508  20.086  0.00  0.00    +0.000 C 
ENDROOT
BRANCH   5   8
ATOM      8  C   UNL     1      -2.969  14.015  23.285  0.00  0.00    +0.000 A 
ATOM      9  C   UNL     1      -3.325  12.754  23.758  0.00  0.00    +0.000 A 
ATOM     10  C   UNL     1      -4.662  12.394  23.911  0.00  0.00    +0.000 A 
ATOM     11  C   UNL     1      -5.675  13.346  23.746  0.00  0.00    +0.000 A 
ATOM     12  C   UNL     1      -5.312  14.659  23.413  0.00  0.00    +0.000 A 
ATOM     13  C   UNL     1      -3.972  14.982  23.169  0.00  0.00    +0.000 A 
BRANCH  11  14
ATOM     14  C   UNL     1      -7.116  12.973  23.986  0.00  0.00    +0.000 C 
ATOM     15  F   UNL     1      -7.917  13.208  22.907  0.00  0.00    +0.000 F 
ATOM     16  F   UNL     1      -7.267  11.653  24.279  0.00  0.00    +0.000 F 
ATOM     17  F   UNL     1      -7.678  13.657  25.019  0.00  0.00    +0.000 F 
ENDBRANCH  11  14
ENDBRANCH   5   8
BRANCH   1  18
ATOM     18  C   UNL     1      -0.160  12.701  18.551  0.00  0.00    +0.000 C 
BRANCH  18  20
ATOM     19  N   UNL     1       1.274  10.755  18.893  0.00  0.00    +0.000 N 
ATOM     20  C   UNL     1      -0.034  11.208  18.795  0.00  0.00    +0.000 C 
ATOM     21  O   UNL     1      -1.041  10.521  18.917  0.00  0.00    +0.000 OA
ATOM     22  H   UNL     1       2.010  11.434  19.045  0.00  0.00    +0.000 HD
BRANCH  19  26
ATOM     23  C   UNL     1       2.459   6.707  19.207  0.00  0.00    +0.000 A 
ATOM     24  C   UNL     1       1.813   7.347  20.269  0.00  0.00    +0.000 A 
ATOM     25  C   UNL     1       1.404   8.667  20.159  0.00  0.00    +0.000 A 
ATOM     26  C   UNL     1       1.633   9.395  18.997  0.00  0.00    +0.000 A 
ATOM     27  C   UNL     1       2.232   8.754  17.908  0.00  0.00    +0.000 A 
ATOM     28  C   UNL     1       2.656   7.422  18.020  0.00  0.00    +0.000 A 
BRANCH  23  29
ATOM     29  O   UNL     1       2.918   5.412  19.239  0.00  0.00    +0.000 OA
BRANCH  29  30
ATOM     30  C   UNL     1       2.201   4.530  18.367  0.00  0.00    +0.000 C 
BRANCH  30  31
ATOM     31  C   UNL     1       1.197   3.689  19.137  0.00  0.00    +0.000 C 
BRANCH  31  33
ATOM     32  C   UNL     1       2.845   2.005  18.226  0.00  0.00    +0.000 C 
ATOM     33  C   UNL     1       1.538   2.208  18.964  0.00  0.00    +0.000 C 
ENDBRANCH  31  33
ENDBRANCH  30  31
ENDBRANCH  29  30
ENDBRANCH  23  29
ENDBRANCH  19  26
ENDBRANCH  18  20
ENDBRANCH   1  18
TORSDOF 9
ENDMDL
MODEL 6
REMARK VINA RESULT:      -6.8      3.311      5.857
REMARK  Name = 
REMARK  11 active torsions:
REMARK  status: ('A' for Active; 'I' for Inactive)
REMARK    1  A    between atoms: C_1  and  C_2
REMARK    2  A    between atoms: C_2  and  C_3
REMARK    3  A    between atoms: C_3  and  C_4
REMARK    4  A    between atoms: C_4  and  O_5
REMARK    5  A    between atoms: O_5  and  C_6
REMARK    6  A    between atoms: C_9  and  N_10
REMARK    7  A    between atoms: C_11  and  C_13
REMARK    8  A    between atoms: C_13  and  C_14
REMARK    9  A    between atoms: N_18  and  C_19
REMARK   10  A    between atoms: C_22  and  C_23
REMARK   11  A    between atoms: N_29  and  C_30
REMARK                            x       y       z     vdW  Elec       q    Type
REMARK                         _______ _______ _______ _____ _____    ______ ____
ROOT
ATOM      1  C   UNL     1       5.409   4.771  19.070  0.00  0.00    +0.000 A 
ATOM      2  C   UNL     1       6.414   5.550  19.502  0.00  0.00    +0.000 A 
ATOM      3  S   UNL     1       7.622   5.806  18.283  0.00  0.00    +0.000 S 
ATOM      4  C   UNL     1       6.636   4.917  17.054  0.00  0.00    +0.000 A 
ATOM      5  N   UNL     1       7.078   5.032  15.854  0.00  0.00    +0.000 NA
ATOM      6  N   UNL     1       5.555   4.330  17.732  0.00  0.00    +0.000 N 
ATOM      7  C   UNL     1       4.704   3.297  17.162  0.00  0.00    +0.000 C 
ENDROOT
BRANCH   5   8
ATOM      8  C   UNL     1       6.447   4.540  14.710  0.00  0.00    +0.000 A 
ATOM      9  C   UNL     1       7.143   4.006  13.627  0.00  0.00    +0.000 A 
ATOM     10  C   UNL     1       6.480   3.624  12.463  0.00  0.00    +0.000 A 
ATOM     11  C   UNL     1       5.081   3.617  12.415  0.00  0.00    +0.000 A 
ATOM     12  C   UNL     1       4.370   4.014  13.556  0.00  0.00    +0.000 A 
ATOM     13  C   UNL     1       5.050   4.486  14.685  0.00  0.00    +0.000 A 
BRANCH  11  14
ATOM     14  C   UNL     1       4.365   3.131  11.180  0.00  0.00    +0.000 C 
ATOM     15  F   UNL     1       3.068   2.782  11.416  0.00  0.00    +0.000 F 
ATOM     16  F   UNL     1       4.322   4.075  10.202  0.00  0.00    +0.000 F 
ATOM     17  F   UNL     1       4.947   2.035  10.623  0.00  0.00    +0.000 F 
ENDBRANCH  11  14
ENDBRANCH   5   8
BRANCH   1  18
ATOM     18  C   UNL     1       4.189   4.495  19.899  0.00  0.00    +0.000 C 
BRANCH  18  20
ATOM     19  N   UNL     1       3.255   6.739  19.679  0.00  0.00    +0.000 N 
ATOM     20  C   UNL     1       3.026   5.383  19.496  0.00  0.00    +0.000 C 
ATOM     21  O   UNL     1       2.011   4.885  19.026  0.00  0.00    +0.000 OA
ATOM     22  H   UNL     1       4.208   7.054  19.817  0.00  0.00    +0.000 HD
BRANCH  19  26
ATOM     23  C   UNL     1       0.387   9.805  19.167  0.00  0.00    +0.000 A 
ATOM     24  C   UNL     1       1.158   9.361  18.089  0.00  0.00    +0.000 A 
ATOM     25  C   UNL     1       2.082   8.341  18.250  0.00  0.00    +0.000 A 
ATOM     26  C   UNL     1       2.278   7.738  19.488  0.00  0.00    +0.000 A 
ATOM     27  C   UNL     1       1.478   8.137  20.564  0.00  0.00    +0.000 A 
ATOM     28  C   UNL     1       0.549   9.176  20.406  0.00  0.00    +0.000 A 
BRANCH  23  29
ATOM     29  O   UNL     1      -0.534  10.824  19.101  0.00  0.00    +0.000 OA
BRANCH  29  30
ATOM     30  C   UNL     1      -1.242  10.876  17.857  0.00  0.00    +0.000 C 
BRANCH  30  31
ATOM     31  C   UNL     1      -2.409   9.904  17.846  0.00  0.00    +0.000 C 
BRANCH  31  33
ATOM     32  C   UNL     1      -2.877  10.406  15.415  0.00  0.00    +0.000 C 
ATOM     33  C   UNL     1      -3.445  10.367  16.819  0.00  0.00    +0.000 C 
ENDBRANCH  31  33
ENDBRANCH  30  31
ENDBRANCH  29  30
ENDBRANCH  23  29
ENDBRANCH  19  26
ENDBRANCH  18  20
ENDBRANCH   1  18
TORSDOF 9
ENDMDL
MODEL 7
REMARK VINA RESULT:      -6.7      6.213     11.458
REMARK  Name = 
REMARK  11 active torsions:
REMARK  status: ('A' for Active; 'I' for Inactive)
REMARK    1  A    between atoms: C_1  and  C_2
REMARK    2  A    between atoms: C_2  and  C_3
REMARK    3  A    between atoms: C_3  and  C_4
REMARK    4  A    between atoms: C_4  and  O_5
REMARK    5  A    between atoms: O_5  and  C_6
REMARK    6  A    between atoms: C_9  and  N_10
REMARK    7  A    between atoms: C_11  and  C_13
REMARK    8  A    between atoms: C_13  and  C_14
REMARK    9  A    between atoms: N_18  and  C_19
REMARK   10  A    between atoms: C_22  and  C_23
REMARK   11  A    between atoms: N_29  and  C_30
REMARK                            x       y       z     vdW  Elec       q    Type
REMARK                         _______ _______ _______ _____ _____    ______ ____
ROOT
ATOM      1  C   UNL     1       1.204   8.725  20.083  0.00  0.00    +0.000 A 
ATOM      2  C   UNL     1       1.841   9.240  19.019  0.00  0.00    +0.000 A 
ATOM      3  S   UNL     1       1.117  10.718  18.470  0.00  0.00    +0.000 S 
ATOM      4  C   UNL     1      -0.042  10.721  19.858  0.00  0.00    +0.000 A 
ATOM      5  N   UNL     1      -0.696  11.819  19.984  0.00  0.00    +0.000 NA
ATOM      6  N   UNL     1       0.093   9.488  20.516  0.00  0.00    +0.000 N 
ATOM      7  C   UNL     1      -0.860   8.981  21.492  0.00  0.00    +0.000 C 
ENDROOT
BRANCH   5   8
ATOM      8  C   UNL     1      -1.568  12.124  21.032  0.00  0.00    +0.000 A 
ATOM      9  C   UNL     1      -1.161  12.203  22.362  0.00  0.00    +0.000 A 
ATOM     10  C   UNL     1      -2.083  12.406  23.386  0.00  0.00    +0.000 A 
ATOM     11  C   UNL     1      -3.420  12.695  23.088  0.00  0.00    +0.000 A 
ATOM     12  C   UNL     1      -3.806  12.763  21.742  0.00  0.00    +0.000 A 
ATOM     13  C   UNL     1      -2.890  12.463  20.727  0.00  0.00    +0.000 A 
BRANCH  11  14
ATOM     14  C   UNL     1      -4.400  12.989  24.195  0.00  0.00    +0.000 C 
ATOM     15  F   UNL     1      -4.420  14.304  24.558  0.00  0.00    +0.000 F 
ATOM     16  F   UNL     1      -5.679  12.681  23.849  0.00  0.00    +0.000 F 
ATOM     17  F   UNL     1      -4.139  12.295  25.336  0.00  0.00    +0.000 F 
ENDBRANCH  11  14
ENDBRANCH   5   8
BRANCH   1  18
ATOM     18  C   UNL     1       1.704   7.512  20.813  0.00  0.00    +0.000 C 
BRANCH  18  20
ATOM     19  N   UNL     1       3.553   6.723  19.428  0.00  0.00    +0.000 N 
ATOM     20  C   UNL     1       2.257   6.473  19.855  0.00  0.00    +0.000 C 
ATOM     21  O   UNL     1       1.577   5.502  19.548  0.00  0.00    +0.000 OA
ATOM     22  H   UNL     1       4.110   7.395  19.944  0.00  0.00    +0.000 HD
BRANCH  19  26
ATOM     23  C   UNL     1       5.474   4.377  16.480  0.00  0.00    +0.000 A 
ATOM     24  C   UNL     1       5.111   5.700  16.215  0.00  0.00    +0.000 A 
ATOM     25  C   UNL     1       4.502   6.478  17.187  0.00  0.00    +0.000 A 
ATOM     26  C   UNL     1       4.224   5.962  18.449  0.00  0.00    +0.000 A 
ATOM     27  C   UNL     1       4.627   4.657  18.746  0.00  0.00    +0.000 A 
ATOM     28  C   UNL     1       5.234   3.865  17.760  0.00  0.00    +0.000 A 
BRANCH  23  29
ATOM     29  O   UNL     1       6.059   3.530  15.570  0.00  0.00    +0.000 OA
BRANCH  29  30
ATOM     30  C   UNL     1       6.465   4.182  14.360  0.00  0.00    +0.000 C 
BRANCH  30  31
ATOM     31  C   UNL     1       5.534   3.837  13.210  0.00  0.00    +0.000 C 
BRANCH  31  33
ATOM     32  C   UNL     1       5.600   2.032  11.445  0.00  0.00    +0.000 C 
ATOM     33  C   UNL     1       6.340   3.190  12.082  0.00  0.00    +0.000 C 
ENDBRANCH  31  33
ENDBRANCH  30  31
ENDBRANCH  29  30
ENDBRANCH  23  29
ENDBRANCH  19  26
ENDBRANCH  18  20
ENDBRANCH   1  18
TORSDOF 9
ENDMDL
MODEL 8
REMARK VINA RESULT:      -6.7      6.423     11.480
REMARK  Name = 
REMARK  11 active torsions:
REMARK  status: ('A' for Active; 'I' for Inactive)
REMARK    1  A    between atoms: C_1  and  C_2
REMARK    2  A    between atoms: C_2  and  C_3
REMARK    3  A    between atoms: C_3  and  C_4
REMARK    4  A    between atoms: C_4  and  O_5
REMARK    5  A    between atoms: O_5  and  C_6
REMARK    6  A    between atoms: C_9  and  N_10
REMARK    7  A    between atoms: C_11  and  C_13
REMARK    8  A    between atoms: C_13  and  C_14
REMARK    9  A    between atoms: N_18  and  C_19
REMARK   10  A    between atoms: C_22  and  C_23
REMARK   11  A    between atoms: N_29  and  C_30
REMARK                            x       y       z     vdW  Elec       q    Type
REMARK                         _______ _______ _______ _____ _____    ______ ____
ROOT
ATOM      1  C   UNL     1       0.329   9.873  20.171  0.00  0.00    +0.000 A 
ATOM      2  C   UNL     1       0.804   8.932  21.004  0.00  0.00    +0.000 A 
ATOM      3  S   UNL     1       0.529   9.329  22.671  0.00  0.00    +0.000 S 
ATOM      4  C   UNL     1      -0.419  10.801  22.213  0.00  0.00    +0.000 A 
ATOM      5  N   UNL     1      -1.038  11.344  23.198  0.00  0.00    +0.000 NA
ATOM      6  N   UNL     1      -0.279  10.971  20.827  0.00  0.00    +0.000 N 
ATOM      7  C   UNL     1      -0.637  12.191  20.119  0.00  0.00    +0.000 C 
ENDROOT
BRANCH   5   8
ATOM      8  C   UNL     1      -1.923  12.420  23.100  0.00  0.00    +0.000 A 
ATOM      9  C   UNL     1      -3.266  12.271  22.756  0.00  0.00    +0.000 A 
ATOM     10  C   UNL     1      -4.088  13.380  22.567  0.00  0.00    +0.000 A 
ATOM     11  C   UNL     1      -3.625  14.664  22.875  0.00  0.00    +0.000 A 
ATOM     12  C   UNL     1      -2.319  14.806  23.364  0.00  0.00    +0.000 A 
ATOM     13  C   UNL     1      -1.473  13.694  23.458  0.00  0.00    +0.000 A 
BRANCH  11  14
ATOM     14  C   UNL     1      -4.541  15.854  22.742  0.00  0.00    +0.000 C 
ATOM     15  F   UNL     1      -4.780  16.481  23.929  0.00  0.00    +0.000 F 
ATOM     16  F   UNL     1      -4.033  16.808  21.916  0.00  0.00    +0.000 F 
ATOM     17  F   UNL     1      -5.764  15.532  22.241  0.00  0.00    +0.000 F 
ENDBRANCH  11  14
ENDBRANCH   5   8
BRANCH   1  18
ATOM     18  C   UNL     1       0.343   9.709  18.679  0.00  0.00    +0.000 C 
BRANCH  18  20
ATOM     19  N   UNL     1       1.652   7.711  18.175  0.00  0.00    +0.000 N 
ATOM     20  C   UNL     1       1.645   9.098  18.196  0.00  0.00    +0.000 C 
ATOM     21  O   UNL     1       2.566   9.824  17.840  0.00  0.00    +0.000 OA
ATOM     22  H   UNL     1       0.765   7.224  18.230  0.00  0.00    +0.000 HD
BRANCH  19  26
ATOM     23  C   UNL     1       5.002   5.321  17.203  0.00  0.00    +0.000 A 
ATOM     24  C   UNL     1       5.018   6.699  16.974  0.00  0.00    +0.000 A 
ATOM     25  C   UNL     1       3.929   7.488  17.313  0.00  0.00    +0.000 A 
ATOM     26  C   UNL     1       2.788   6.930  17.879  0.00  0.00    +0.000 A 
ATOM     27  C   UNL     1       2.777   5.561  18.161  0.00  0.00    +0.000 A 
ATOM     28  C   UNL     1       3.873   4.759  17.810  0.00  0.00    +0.000 A 
BRANCH  23  29
ATOM     29  O   UNL     1       6.026   4.464  16.878  0.00  0.00    +0.000 OA
BRANCH  29  30
ATOM     30  C   UNL     1       6.598   4.717  15.589  0.00  0.00    +0.000 C 
BRANCH  30  31
ATOM     31  C   UNL     1       5.629   4.357  14.476  0.00  0.00    +0.000 C 
BRANCH  31  33
ATOM     32  C   UNL     1       5.533   3.258  12.204  0.00  0.00    +0.000 C 
ATOM     33  C   UNL     1       6.416   3.927  13.237  0.00  0.00    +0.000 C 
ENDBRANCH  31  33
ENDBRANCH  30  31
ENDBRANCH  29  30
ENDBRANCH  23  29
ENDBRANCH  19  26
ENDBRANCH  18  20
ENDBRANCH   1  18
TORSDOF 9
ENDMDL
MODEL 9
REMARK VINA RESULT:      -6.6      3.272      4.108
REMARK  Name = 
REMARK  11 active torsions:
REMARK  status: ('A' for Active; 'I' for Inactive)
REMARK    1  A    between atoms: C_1  and  C_2
REMARK    2  A    between atoms: C_2  and  C_3
REMARK    3  A    between atoms: C_3  and  C_4
REMARK    4  A    between atoms: C_4  and  O_5
REMARK    5  A    between atoms: O_5  and  C_6
REMARK    6  A    between atoms: C_9  and  N_10
REMARK    7  A    between atoms: C_11  and  C_13
REMARK    8  A    between atoms: C_13  and  C_14
REMARK    9  A    between atoms: N_18  and  C_19
REMARK   10  A    between atoms: C_22  and  C_23
REMARK   11  A    between atoms: N_29  and  C_30
REMARK                            x       y       z     vdW  Elec       q    Type
REMARK                         _______ _______ _______ _____ _____    ______ ____
ROOT
ATOM      1  C   UNL     1       1.369   9.057  19.768  0.00  0.00    +0.000 A 
ATOM      2  C   UNL     1       0.913   8.641  20.960  0.00  0.00    +0.000 A 
ATOM      3  S   UNL     1       1.253   6.963  21.246  0.00  0.00    +0.000 S 
ATOM      4  C   UNL     1       2.203   6.846  19.711  0.00  0.00    +0.000 A 
ATOM      5  N   UNL     1       2.865   5.752  19.595  0.00  0.00    +0.000 NA
ATOM      6  N   UNL     1       2.015   8.049  19.012  0.00  0.00    +0.000 N 
ATOM      7  C   UNL     1       2.364   8.237  17.612  0.00  0.00    +0.000 C 
ENDROOT
BRANCH   5   8
ATOM      8  C   UNL     1       3.760   5.456  18.565  0.00  0.00    +0.000 A 
ATOM      9  C   UNL     1       5.045   5.993  18.496  0.00  0.00    +0.000 A 
ATOM     10  C   UNL     1       5.867   5.753  17.397  0.00  0.00    +0.000 A 
ATOM     11  C   UNL     1       5.482   4.838  16.411  0.00  0.00    +0.000 A 
ATOM     12  C   UNL     1       4.251   4.181  16.551  0.00  0.00    +0.000 A 
ATOM     13  C   UNL     1       3.394   4.503  17.610  0.00  0.00    +0.000 A 
BRANCH  11  14
ATOM     14  C   UNL     1       6.406   4.524  15.262  0.00  0.00    +0.000 C 
ATOM     15  F   UNL     1       6.179   3.296  14.713  0.00  0.00    +0.000 F 
ATOM     16  F   UNL     1       6.284   5.415  14.242  0.00  0.00    +0.000 F 
ATOM     17  F   UNL     1       7.720   4.533  15.617  0.00  0.00    +0.000 F 
ENDBRANCH  11  14
ENDBRANCH   5   8
BRANCH   1  18
ATOM     18  C   UNL     1       1.299  10.493  19.335  0.00  0.00    +0.000 C 
BRANCH  18  20
ATOM     19  N   UNL     1      -0.705  11.367  20.421  0.00  0.00    +0.000 N 
ATOM     20  C   UNL     1       0.682  11.371  20.408  0.00  0.00    +0.000 C 
ATOM     21  O   UNL     1       1.404  11.983  21.186  0.00  0.00    +0.000 OA
ATOM     22  H   UNL     1      -1.190  10.631  19.921  0.00  0.00    +0.000 HD
BRANCH  19  26
ATOM     23  C   UNL     1      -3.146  13.839  22.832  0.00  0.00    +0.000 A 
ATOM     24  C   UNL     1      -2.723  12.589  23.290  0.00  0.00    +0.000 A 
ATOM     25  C   UNL     1      -1.905  11.786  22.510  0.00  0.00    +0.000 A 
ATOM     26  C   UNL     1      -1.490  12.196  21.248  0.00  0.00    +0.000 A 
ATOM     27  C   UNL     1      -1.863  13.466  20.797  0.00  0.00    +0.000 A 
ATOM     28  C   UNL     1      -2.700  14.275  21.580  0.00  0.00    +0.000 A 
BRANCH  23  29
ATOM     29  O   UNL     1      -3.975  14.686  23.528  0.00  0.00    +0.000 OA
BRANCH  29  30
ATOM     30  C   UNL     1      -3.282  15.756  24.182  0.00  0.00    +0.000 C 
BRANCH  30  31
ATOM     31  C   UNL     1      -2.753  15.323  25.538  0.00  0.00    +0.000 C 
BRANCH  31  33
ATOM     32  C   UNL     1      -0.703  16.120  24.296  0.00  0.00    +0.000 C 
ATOM     33  C   UNL     1      -1.252  15.609  25.613  0.00  0.00    +0.000 C 
ENDBRANCH  31  33
ENDBRANCH  30  31
ENDBRANCH  29  30
ENDBRANCH  23  29
ENDBRANCH  19  26
ENDBRANCH  18  20
ENDBRANCH   1  18
TORSDOF 9
ENDMDL
