MODEL 1
REMARK VINA RESULT:      -8.8      0.000      0.000
REMARK  Name = 
REMARK  8 active torsions:
REMARK  status: ('A' for Active; 'I' for Inactive)
REMARK    1  A    between atoms: C_4  and  O_5
REMARK    2  A    between atoms: O_5  and  C_6
REMARK    3  A    between atoms: C_6  and  C_7
REMARK    4  A    between atoms: C_7  and  N_8
REMARK    5  A    between atoms: N_8  and  C_9
REMARK    6  A    between atoms: C_9  and  C_10
REMARK    7  A    between atoms: C_13  and  C_14
REMARK    8  A    between atoms: C_13  and  C_20
REMARK                            x       y       z     vdW  Elec       q    Type
REMARK                         _______ _______ _______ _____ _____    ______ ____
ROOT
ATOM      1  C   UNL     1       5.312   6.087  18.097  0.00  0.00    +0.000 C 
ATOM      2  C   UNL     1       4.647   5.197  17.084  0.00  0.00    +0.000 C 
ATOM      3  O   UNL     1       3.252   5.353  17.382  0.00  0.00    +0.000 OA
ATOM      4  C   UNL     1       3.187   5.715  18.785  0.00  0.00    +0.000 C 
ATOM      5  O   UNL     1       4.548   5.808  19.269  0.00  0.00    +0.000 OA
ENDROOT
BRANCH   4   6
ATOM      6  C   UNL     1       2.566   7.111  18.923  0.00  0.00    +0.000 A 
ATOM      7  C   UNL     1       2.011   7.551  20.134  0.00  0.00    +0.000 A 
ATOM      8  C   UNL     1       1.293   8.750  20.195  0.00  0.00    +0.000 A 
ATOM      9  C   UNL     1       1.125   9.530  19.051  0.00  0.00    +0.000 A 
ATOM     10  C   UNL     1       1.705   9.134  17.852  0.00  0.00    +0.000 A 
ATOM     11  C   UNL     1       2.433   7.945  17.793  0.00  0.00    +0.000 A 
ENDBRANCH   4   6
BRANCH   4  12
ATOM     12  C   UNL     1       2.485   4.620  19.581  0.00  0.00    +0.000 A 
ATOM     13  C   UNL     1       1.392   3.924  19.030  0.00  0.00    +0.000 A 
ATOM     14  C   UNL     1       0.699   2.962  19.767  0.00  0.00    +0.000 A 
ATOM     15  C   UNL     1       1.092   2.671  21.070  0.00  0.00    +0.000 A 
ATOM     16  C   UNL     1       2.180   3.335  21.631  0.00  0.00    +0.000 A 
ATOM     17  C   UNL     1       2.874   4.298  20.893  0.00  0.00    +0.000 A 
ENDBRANCH   4  12
BRANCH   1  18
ATOM     18  C   UNL     1       6.783   5.834  18.399  0.00  0.00    +0.000 C 
BRANCH  18  19
ATOM     19  N   UNL     1       7.748   6.462  17.497  0.00  0.00    +0.000 NA
ATOM     20  H   UNL     1       8.681   6.295  17.877  0.00  0.00    +0.000 HD
BRANCH  19  21
ATOM     21  C   UNL     1       7.537   7.910  17.384  0.00  0.00    +0.000 C 
BRANCH  21  22
ATOM     22  C   UNL     1       8.358   8.664  18.433  0.00  0.00    +0.000 C 
BRANCH  22  23
ATOM     23  O   UNL     1       8.657   9.962  17.915  0.00  0.00    +0.000 OA
BRANCH  23  27
ATOM     24  C   UNL     1      11.401  12.280  20.014  0.00  0.00    +0.000 A 
ATOM     25  C   UNL     1      11.502  12.101  18.635  0.00  0.00    +0.000 A 
ATOM     26  C   UNL     1      10.560  11.317  17.964  0.00  0.00    +0.000 A 
ATOM     27  C   UNL     1       9.530  10.696  18.670  0.00  0.00    +0.000 A 
ATOM     28  C   UNL     1       9.423  10.889  20.049  0.00  0.00    +0.000 A 
ATOM     29  C   UNL     1      10.360  11.678  20.717  0.00  0.00    +0.000 A 
ENDBRANCH  23  27
ENDBRANCH  22  23
ENDBRANCH  21  22
ENDBRANCH  19  21
ENDBRANCH  18  19
ENDBRANCH   1  18
TORSDOF 8
ENDMDL
MODEL 2
REMARK VINA RESULT:      -8.5      0.539      1.054
REMARK  Name = 
REMARK  8 active torsions:
REMARK  status: ('A' for Active; 'I' for Inactive)
REMARK    1  A    between atoms: C_4  and  O_5
REMARK    2  A    between atoms: O_5  and  C_6
REMARK    3  A    between atoms: C_6  and  C_7
REMARK    4  A    between atoms: C_7  and  N_8
REMARK    5  A    between atoms: N_8  and  C_9
REMARK    6  A    between atoms: C_9  and  C_10
REMARK    7  A    between atoms: C_13  and  C_14
REMARK    8  A    between atoms: C_13  and  C_20
REMARK                            x       y       z     vdW  Elec       q    Type
REMARK                         _______ _______ _______ _____ _____    ______ ____
ROOT
ATOM      1  C   UNL     1       5.597   6.009  18.088  0.00  0.00    +0.000 C 
ATOM      2  C   UNL     1       5.017   5.186  16.972  0.00  0.00    +0.000 C 
ATOM      3  O   UNL     1       3.602   5.333  17.161  0.00  0.00    +0.000 OA
ATOM      4  C   UNL     1       3.421   5.612  18.574  0.00  0.00    +0.000 C 
ATOM      5  O   UNL     1       4.737   5.667  19.174  0.00  0.00    +0.000 OA
ENDROOT
BRANCH   4   6
ATOM      6  C   UNL     1       2.793   7.001  18.742  0.00  0.00    +0.000 A 
ATOM      7  C   UNL     1       2.168   7.384  19.939  0.00  0.00    +0.000 A 
ATOM      8  C   UNL     1       1.447   8.580  20.015  0.00  0.00    +0.000 A 
ATOM      9  C   UNL     1       1.346   9.414  18.902  0.00  0.00    +0.000 A 
ATOM     10  C   UNL     1       1.995   9.075  17.721  0.00  0.00    +0.000 A 
ATOM     11  C   UNL     1       2.726   7.889  17.648  0.00  0.00    +0.000 A 
ENDBRANCH   4   6
BRANCH   4  12
ATOM     12  C   UNL     1       2.653   4.476  19.242  0.00  0.00    +0.000 A 
ATOM     13  C   UNL     1       3.093   3.938  20.467  0.00  0.00    +0.000 A 
ATOM     14  C   UNL     1       2.438   2.858  21.060  0.00  0.00    +0.000 A 
ATOM     15  C   UNL     1       1.321   2.299  20.445  0.00  0.00    +0.000 A 
ATOM     16  C   UNL     1       0.858   2.825  19.241  0.00  0.00    +0.000 A 
ATOM     17  C   UNL     1       1.514   3.907  18.646  0.00  0.00    +0.000 A 
ENDBRANCH   4  12
BRANCH   1  18
ATOM     18  C   UNL     1       7.036   5.729  18.496  0.00  0.00    +0.000 C 
BRANCH  18  19
ATOM     19  N   UNL     1       7.944   6.877  18.500  0.00  0.00    +0.000 NA
ATOM     20  H   UNL     1       8.049   7.184  19.469  0.00  0.00    +0.000 HD
BRANCH  19  21
ATOM     21  C   UNL     1       7.423   7.996  17.705  0.00  0.00    +0.000 C 
BRANCH  21  22
ATOM     22  C   UNL     1       8.464   9.112  17.587  0.00  0.00    +0.000 C 
BRANCH  22  23
ATOM     23  O   UNL     1       8.317   9.977  18.715  0.00  0.00    +0.000 OA
BRANCH  23  27
ATOM     24  C   UNL     1      11.740  12.222  19.459  0.00  0.00    +0.000 A 
ATOM     25  C   UNL     1      11.397  11.821  18.168  0.00  0.00    +0.000 A 
ATOM     26  C   UNL     1      10.238  11.070  17.957  0.00  0.00    +0.000 A 
ATOM     27  C   UNL     1       9.433  10.701  19.034  0.00  0.00    +0.000 A 
ATOM     28  C   UNL     1       9.771  11.115  20.324  0.00  0.00    +0.000 A 
ATOM     29  C   UNL     1      10.924  11.872  20.533  0.00  0.00    +0.000 A 
ENDBRANCH  23  27
ENDBRANCH  22  23
ENDBRANCH  21  22
ENDBRANCH  19  21
ENDBRANCH  18  19
ENDBRANCH   1  18
TORSDOF 8
ENDMDL
MODEL 3
REMARK VINA RESULT:      -8.4      4.162      7.209
REMARK  Name = 
REMARK  8 active torsions:
REMARK  status: ('A' for Active; 'I' for Inactive)
REMARK    1  A    between atoms: C_4  and  O_5
REMARK    2  A    between atoms: O_5  and  C_6
REMARK    3  A    between atoms: C_6  and  C_7
REMARK    4  A    between atoms: C_7  and  N_8
REMARK    5  A    between atoms: N_8  and  C_9
REMARK    6  A    between atoms: C_9  and  C_10
REMARK    7  A    between atoms: C_13  and  C_14
REMARK    8  A    between atoms: C_13  and  C_20
REMARK                            x       y       z     vdW  Elec       q    Type
REMARK                         _______ _______ _______ _____ _____    ______ ____
ROOT
ATOM      1  C   UNL     1       4.439   4.488  17.690  0.00  0.00    +0.000 C 
ATOM      2  C   UNL     1       5.325   5.407  18.484  0.00  0.00    +0.000 C 
ATOM      3  O   UNL     1       4.475   5.824  19.563  0.00  0.00    +0.000 OA
ATOM      4  C   UNL     1       3.118   5.714  19.061  0.00  0.00    +0.000 C 
ATOM      5  O   UNL     1       3.199   5.193  17.713  0.00  0.00    +0.000 OA
ENDROOT
BRANCH   4   6
ATOM      6  C   UNL     1       2.348   4.683  19.895  0.00  0.00    +0.000 A 
ATOM      7  C   UNL     1       2.761   4.328  21.188  0.00  0.00    +0.000 A 
ATOM      8  C   UNL     1       2.156   3.262  21.862  0.00  0.00    +0.000 A 
ATOM      9  C   UNL     1       1.125   2.541  21.259  0.00  0.00    +0.000 A 
ATOM     10  C   UNL     1       0.671   2.906  19.997  0.00  0.00    +0.000 A 
ATOM     11  C   UNL     1       1.265   3.977  19.330  0.00  0.00    +0.000 A 
ENDBRANCH   4   6
BRANCH   4  12
ATOM     12  C   UNL     1       2.470   7.092  18.988  0.00  0.00    +0.000 A 
ATOM     13  C   UNL     1       2.539   7.855  17.806  0.00  0.00    +0.000 A 
ATOM     14  C   UNL     1       2.005   9.143  17.742  0.00  0.00    +0.000 A 
ATOM     15  C   UNL     1       1.381   9.692  18.858  0.00  0.00    +0.000 A 
ATOM     16  C   UNL     1       1.286   8.950  20.034  0.00  0.00    +0.000 A 
ATOM     17  C   UNL     1       1.821   7.661  20.098  0.00  0.00    +0.000 A 
ENDBRANCH   4  12
BRANCH   1  18
ATOM     18  C   UNL     1       4.822   4.218  16.241  0.00  0.00    +0.000 C 
BRANCH  18  19
ATOM     19  N   UNL     1       6.066   3.478  16.026  0.00  0.00    +0.000 NA
ATOM     20  H   UNL     1       6.418   3.195  16.942  0.00  0.00    +0.000 HD
BRANCH  19  21
ATOM     21  C   UNL     1       7.087   4.296  15.359  0.00  0.00    +0.000 C 
BRANCH  21  22
ATOM     22  C   UNL     1       6.472   5.114  14.221  0.00  0.00    +0.000 C 
BRANCH  22  23
ATOM     23  O   UNL     1       7.167   4.788  13.015  0.00  0.00    +0.000 OA
BRANCH  23  27
ATOM     24  C   UNL     1       5.839   1.443  10.928  0.00  0.00    +0.000 A 
ATOM     25  C   UNL     1       7.198   1.707  11.094  0.00  0.00    +0.000 A 
ATOM     26  C   UNL     1       7.606   2.839  11.803  0.00  0.00    +0.000 A 
ATOM     27  C   UNL     1       6.661   3.719  12.329  0.00  0.00    +0.000 A 
ATOM     28  C   UNL     1       5.300   3.445  12.174  0.00  0.00    +0.000 A 
ATOM     29  C   UNL     1       4.894   2.310  11.472  0.00  0.00    +0.000 A 
ENDBRANCH  23  27
ENDBRANCH  22  23
ENDBRANCH  21  22
ENDBRANCH  19  21
ENDBRANCH  18  19
ENDBRANCH   1  18
TORSDOF 8
ENDMDL
MODEL 4
REMARK VINA RESULT:      -8.3      1.059      1.625
REMARK  Name = 
REMARK  8 active torsions:
REMARK  status: ('A' for Active; 'I' for Inactive)
REMARK    1  A    between atoms: C_4  and  O_5
REMARK    2  A    between atoms: O_5  and  C_6
REMARK    3  A    between atoms: C_6  and  C_7
REMARK    4  A    between atoms: C_7  and  N_8
REMARK    5  A    between atoms: N_8  and  C_9
REMARK    6  A    between atoms: C_9  and  C_10
REMARK    7  A    between atoms: C_13  and  C_14
REMARK    8  A    between atoms: C_13  and  C_20
REMARK                            x       y       z     vdW  Elec       q    Type
REMARK                         _______ _______ _______ _____ _____    ______ ____
ROOT
ATOM      1  C   UNL     1       5.793   6.186  18.263  0.00  0.00    +0.000 C 
ATOM      2  C   UNL     1       5.508   5.515  16.948  0.00  0.00    +0.000 C 
ATOM      3  O   UNL     1       4.073   5.490  16.901  0.00  0.00    +0.000 OA
ATOM      4  C   UNL     1       3.634   5.503  18.284  0.00  0.00    +0.000 C 
ATOM      5  O   UNL     1       4.818   5.580  19.112  0.00  0.00    +0.000 OA
ENDROOT
BRANCH   4   6
ATOM      6  C   UNL     1       2.819   6.774  18.548  0.00  0.00    +0.000 A 
ATOM      7  C   UNL     1       2.704   7.787  17.583  0.00  0.00    +0.000 A 
ATOM      8  C   UNL     1       2.109   9.012  17.903  0.00  0.00    +0.000 A 
ATOM      9  C   UNL     1       1.614   9.242  19.186  0.00  0.00    +0.000 A 
ATOM     10  C   UNL     1       1.678   8.236  20.143  0.00  0.00    +0.000 A 
ATOM     11  C   UNL     1       2.258   7.009  19.821  0.00  0.00    +0.000 A 
ENDBRANCH   4   6
BRANCH   4  12
ATOM     12  C   UNL     1       2.916   4.200  18.621  0.00  0.00    +0.000 A 
ATOM     13  C   UNL     1       3.555   3.209  19.390  0.00  0.00    +0.000 A 
ATOM     14  C   UNL     1       2.936   1.986  19.655  0.00  0.00    +0.000 A 
ATOM     15  C   UNL     1       1.659   1.734  19.164  0.00  0.00    +0.000 A 
ATOM     16  C   UNL     1       1.000   2.706  18.414  0.00  0.00    +0.000 A 
ATOM     17  C   UNL     1       1.620   3.930  18.148  0.00  0.00    +0.000 A 
ENDBRANCH   4  12
BRANCH   1  18
ATOM     18  C   UNL     1       7.171   5.979  18.876  0.00  0.00    +0.000 C 
BRANCH  18  19
ATOM     19  N   UNL     1       8.134   7.064  18.686  0.00  0.00    +0.000 NA
ATOM     20  H   UNL     1       8.151   7.616  19.545  0.00  0.00    +0.000 HD
BRANCH  19  21
ATOM     21  C   UNL     1       7.763   7.942  17.569  0.00  0.00    +0.000 C 
BRANCH  21  22
ATOM     22  C   UNL     1       8.226   9.378  17.827  0.00  0.00    +0.000 C 
BRANCH  22  23
ATOM     23  O   UNL     1       8.816   9.428  19.128  0.00  0.00    +0.000 OA
BRANCH  23  27
ATOM     24  C   UNL     1      11.087  12.871  19.672  0.00  0.00    +0.000 A 
ATOM     25  C   UNL     1      10.967  12.266  18.421  0.00  0.00    +0.000 A 
ATOM     26  C   UNL     1      10.194  11.112  18.277  0.00  0.00    +0.000 A 
ATOM     27  C   UNL     1       9.557  10.549  19.382  0.00  0.00    +0.000 A 
ATOM     28  C   UNL     1       9.666  11.164  20.631  0.00  0.00    +0.000 A 
ATOM     29  C   UNL     1      10.433  12.321  20.773  0.00  0.00    +0.000 A 
ENDBRANCH  23  27
ENDBRANCH  22  23
ENDBRANCH  21  22
ENDBRANCH  19  21
ENDBRANCH  18  19
ENDBRANCH   1  18
TORSDOF 8
ENDMDL
MODEL 5
REMARK VINA RESULT:      -8.3      0.267      1.599
REMARK  Name = 
REMARK  8 active torsions:
REMARK  status: ('A' for Active; 'I' for Inactive)
REMARK    1  A    between atoms: C_4  and  O_5
REMARK    2  A    between atoms: O_5  and  C_6
REMARK    3  A    between atoms: C_6  and  C_7
REMARK    4  A    between atoms: C_7  and  N_8
REMARK    5  A    between atoms: N_8  and  C_9
REMARK    6  A    between atoms: C_9  and  C_10
REMARK    7  A    between atoms: C_13  and  C_14
REMARK    8  A    between atoms: C_13  and  C_20
REMARK                            x       y       z     vdW  Elec       q    Type
REMARK                         _______ _______ _______ _____ _____    ______ ____
ROOT
ATOM      1  C   UNL     1       5.173   6.198  18.105  0.00  0.00    +0.000 C 
ATOM      2  C   UNL     1       4.588   5.248  17.097  0.00  0.00    +0.000 C 
ATOM      3  O   UNL     1       3.177   5.351  17.336  0.00  0.00    +0.000 OA
ATOM      4  C   UNL     1       3.040   5.756  18.723  0.00  0.00    +0.000 C 
ATOM      5  O   UNL     1       4.375   5.924  19.255  0.00  0.00    +0.000 OA
ENDROOT
BRANCH   4   6
ATOM      6  C   UNL     1       2.355   7.126  18.789  0.00  0.00    +0.000 A 
ATOM      7  C   UNL     1       2.324   7.986  17.680  0.00  0.00    +0.000 A 
ATOM      8  C   UNL     1       1.855   9.298  17.808  0.00  0.00    +0.000 A 
ATOM      9  C   UNL     1       1.403   9.767  19.041  0.00  0.00    +0.000 A 
ATOM     10  C   UNL     1       1.383   8.917  20.141  0.00  0.00    +0.000 A 
ATOM     11  C   UNL     1       1.838   7.605  20.011  0.00  0.00    +0.000 A 
ENDBRANCH   4   6
BRANCH   4  12
ATOM     12  C   UNL     1       2.354   4.657  19.527  0.00  0.00    +0.000 A 
ATOM     13  C   UNL     1       2.723   4.413  20.864  0.00  0.00    +0.000 A 
ATOM     14  C   UNL     1       2.150   3.371  21.596  0.00  0.00    +0.000 A 
ATOM     15  C   UNL     1       1.186   2.558  21.007  0.00  0.00    +0.000 A 
ATOM     16  C   UNL     1       0.792   2.791  19.691  0.00  0.00    +0.000 A 
ATOM     17  C   UNL     1       1.367   3.834  18.958  0.00  0.00    +0.000 A 
ENDBRANCH   4  12
BRANCH   1  18
ATOM     18  C   UNL     1       6.640   6.020  18.473  0.00  0.00    +0.000 C 
BRANCH  18  19
ATOM     19  N   UNL     1       7.608   6.222  17.394  0.00  0.00    +0.000 NA
ATOM     20  H   UNL     1       8.491   5.800  17.688  0.00  0.00    +0.000 HD
BRANCH  19  21
ATOM     21  C   UNL     1       7.835   7.646  17.116  0.00  0.00    +0.000 C 
BRANCH  21  22
ATOM     22  C   UNL     1       8.371   8.365  18.357  0.00  0.00    +0.000 C 
BRANCH  22  23
ATOM     23  O   UNL     1       8.236   9.772  18.148  0.00  0.00    +0.000 OA
BRANCH  23  27
ATOM     24  C   UNL     1      11.319  12.010  19.819  0.00  0.00    +0.000 A 
ATOM     25  C   UNL     1      10.285  11.494  20.601  0.00  0.00    +0.000 A 
ATOM     26  C   UNL     1       9.269  10.746  20.004  0.00  0.00    +0.000 A 
ATOM     27  C   UNL     1       9.270  10.528  18.627  0.00  0.00    +0.000 A 
ATOM     28  C   UNL     1      10.314  11.033  17.848  0.00  0.00    +0.000 A 
ATOM     29  C   UNL     1      11.333  11.774  18.446  0.00  0.00    +0.000 A 
ENDBRANCH  23  27
ENDBRANCH  22  23
ENDBRANCH  21  22
ENDBRANCH  19  21
ENDBRANCH  18  19
ENDBRANCH   1  18
TORSDOF 8
ENDMDL
MODEL 6
REMARK VINA RESULT:      -8.3      3.717      7.871
REMARK  Name = 
REMARK  8 active torsions:
REMARK  status: ('A' for Active; 'I' for Inactive)
REMARK    1  A    between atoms: C_4  and  O_5
REMARK    2  A    between atoms: O_5  and  C_6
REMARK    3  A    between atoms: C_6  and  C_7
REMARK    4  A    between atoms: C_7  and  N_8
REMARK    5  A    between atoms: N_8  and  C_9
REMARK    6  A    between atoms: C_9  and  C_10
REMARK    7  A    between atoms: C_13  and  C_14
REMARK    8  A    between atoms: C_13  and  C_20
REMARK                            x       y       z     vdW  Elec       q    Type
REMARK                         _______ _______ _______ _____ _____    ______ ____
ROOT
ATOM      1  C   UNL     1       2.434   8.042  18.455  0.00  0.00    +0.000 C 
ATOM      2  C   UNL     1       2.112   7.681  19.878  0.00  0.00    +0.000 C 
ATOM      3  O   UNL     1       2.907   6.507  20.103  0.00  0.00    +0.000 OA
ATOM      4  C   UNL     1       3.095   5.904  18.797  0.00  0.00    +0.000 C 
ATOM      5  O   UNL     1       2.445   6.761  17.829  0.00  0.00    +0.000 OA
ENDROOT
BRANCH   4   6
ATOM      6  C   UNL     1       4.590   5.891  18.452  0.00  0.00    +0.000 A 
ATOM      7  C   UNL     1       5.543   5.366  19.338  0.00  0.00    +0.000 A 
ATOM      8  C   UNL     1       6.910   5.524  19.089  0.00  0.00    +0.000 A 
ATOM      9  C   UNL     1       7.346   6.200  17.949  0.00  0.00    +0.000 A 
ATOM     10  C   UNL     1       6.418   6.687  17.036  0.00  0.00    +0.000 A 
ATOM     11  C   UNL     1       5.055   6.519  17.277  0.00  0.00    +0.000 A 
ENDBRANCH   4   6
BRANCH   4  12
ATOM     12  C   UNL     1       2.414   4.540  18.742  0.00  0.00    +0.000 A 
ATOM     13  C   UNL     1       1.447   4.185  19.702  0.00  0.00    +0.000 A 
ATOM     14  C   UNL     1       0.859   2.918  19.704  0.00  0.00    +0.000 A 
ATOM     15  C   UNL     1       1.221   1.984  18.738  0.00  0.00    +0.000 A 
ATOM     16  C   UNL     1       2.163   2.319  17.767  0.00  0.00    +0.000 A 
ATOM     17  C   UNL     1       2.752   3.587  17.766  0.00  0.00    +0.000 A 
ENDBRANCH   4  12
BRANCH   1  18
ATOM     18  C   UNL     1       1.452   8.940  17.716  0.00  0.00    +0.000 C 
BRANCH  18  19
ATOM     19  N   UNL     1       1.802  10.359  17.638  0.00  0.00    +0.000 NA
ATOM     20  H   UNL     1       2.822  10.424  17.627  0.00  0.00    +0.000 HD
BRANCH  19  21
ATOM     21  C   UNL     1       1.293  11.117  18.787  0.00  0.00    +0.000 C 
BRANCH  21  22
ATOM     22  C   UNL     1      -0.086  10.606  19.209  0.00  0.00    +0.000 C 
BRANCH  22  23
ATOM     23  O   UNL     1      -1.042  11.636  18.947  0.00  0.00    +0.000 OA
BRANCH  23  27
ATOM     24  C   UNL     1      -4.266  10.709  16.487  0.00  0.00    +0.000 A 
ATOM     25  C   UNL     1      -4.418  11.509  17.618  0.00  0.00    +0.000 A 
ATOM     26  C   UNL     1      -3.312  11.801  18.419  0.00  0.00    +0.000 A 
ATOM     27  C   UNL     1      -2.058  11.279  18.105  0.00  0.00    +0.000 A 
ATOM     28  C   UNL     1      -1.904  10.489  16.963  0.00  0.00    +0.000 A 
ATOM     29  C   UNL     1      -3.009  10.204  16.160  0.00  0.00    +0.000 A 
ENDBRANCH  23  27
ENDBRANCH  22  23
ENDBRANCH  21  22
ENDBRANCH  19  21
ENDBRANCH  18  19
ENDBRANCH   1  18
TORSDOF 8
ENDMDL
MODEL 7
REMARK VINA RESULT:      -8.3      4.008      8.026
REMARK  Name = 
REMARK  8 active torsions:
REMARK  status: ('A' for Active; 'I' for Inactive)
REMARK    1  A    between atoms: C_4  and  O_5
REMARK    2  A    between atoms: O_5  and  C_6
REMARK    3  A    between atoms: C_6  and  C_7
REMARK    4  A    between atoms: C_7  and  N_8
REMARK    5  A    between atoms: N_8  and  C_9
REMARK    6  A    between atoms: C_9  and  C_10
REMARK    7  A    between atoms: C_13  and  C_14
REMARK    8  A    between atoms: C_13  and  C_20
REMARK                            x       y       z     vdW  Elec       q    Type
REMARK                         _______ _______ _______ _____ _____    ______ ____
ROOT
ATOM      1  C   UNL     1       2.379   8.062  18.448  0.00  0.00    +0.000 C 
ATOM      2  C   UNL     1       2.142   7.706  19.889  0.00  0.00    +0.000 C 
ATOM      3  O   UNL     1       2.965   6.546  20.077  0.00  0.00    +0.000 OA
ATOM      4  C   UNL     1       3.089   5.935  18.766  0.00  0.00    +0.000 C 
ATOM      5  O   UNL     1       2.374   6.775  17.830  0.00  0.00    +0.000 OA
ENDROOT
BRANCH   4   6
ATOM      6  C   UNL     1       4.562   5.941  18.339  0.00  0.00    +0.000 A 
ATOM      7  C   UNL     1       4.947   6.287  17.035  0.00  0.00    +0.000 A 
ATOM      8  C   UNL     1       6.269   6.115  16.612  0.00  0.00    +0.000 A 
ATOM      9  C   UNL     1       7.228   5.604  17.487  0.00  0.00    +0.000 A 
ATOM     10  C   UNL     1       6.877   5.297  18.797  0.00  0.00    +0.000 A 
ATOM     11  C   UNL     1       5.561   5.481  19.222  0.00  0.00    +0.000 A 
ENDBRANCH   4   6
BRANCH   4  12
ATOM     12  C   UNL     1       2.426   4.562  18.759  0.00  0.00    +0.000 A 
ATOM     13  C   UNL     1       2.768   3.607  17.782  0.00  0.00    +0.000 A 
ATOM     14  C   UNL     1       2.126   2.369  17.724  0.00  0.00    +0.000 A 
ATOM     15  C   UNL     1       1.134   2.056  18.648  0.00  0.00    +0.000 A 
ATOM     16  C   UNL     1       0.790   2.979  19.634  0.00  0.00    +0.000 A 
ATOM     17  C   UNL     1       1.432   4.219  19.693  0.00  0.00    +0.000 A 
ENDBRANCH   4  12
BRANCH   1  18
ATOM     18  C   UNL     1       1.344   8.940  17.758  0.00  0.00    +0.000 C 
BRANCH  18  19
ATOM     19  N   UNL     1       1.514  10.385  17.914  0.00  0.00    +0.000 NA
ATOM     20  H   UNL     1       2.503  10.561  18.101  0.00  0.00    +0.000 HD
BRANCH  19  21
ATOM     21  C   UNL     1       0.721  10.918  19.029  0.00  0.00    +0.000 C 
BRANCH  21  22
ATOM     22  C   UNL     1      -0.624  10.195  19.135  0.00  0.00    +0.000 C 
BRANCH  22  23
ATOM     23  O   UNL     1      -1.662  11.170  19.015  0.00  0.00    +0.000 OA
BRANCH  23  27
ATOM     24  C   UNL     1      -4.007  10.515  15.640  0.00  0.00    +0.000 A 
ATOM     25  C   UNL     1      -2.759   9.910  15.790  0.00  0.00    +0.000 A 
ATOM     26  C   UNL     1      -2.001  10.153  16.939  0.00  0.00    +0.000 A 
ATOM     27  C   UNL     1      -2.477  11.012  17.928  0.00  0.00    +0.000 A 
ATOM     28  C   UNL     1      -3.734  11.605  17.782  0.00  0.00    +0.000 A 
ATOM     29  C   UNL     1      -4.493  11.357  16.638  0.00  0.00    +0.000 A 
ENDBRANCH  23  27
ENDBRANCH  22  23
ENDBRANCH  21  22
ENDBRANCH  19  21
ENDBRANCH  18  19
ENDBRANCH   1  18
TORSDOF 8
ENDMDL
MODEL 8
REMARK VINA RESULT:      -8.3      1.305      1.616
REMARK  Name = 
REMARK  8 active torsions:
REMARK  status: ('A' for Active; 'I' for Inactive)
REMARK    1  A    between atoms: C_4  and  O_5
REMARK    2  A    between atoms: O_5  and  C_6
REMARK    3  A    between atoms: C_6  and  C_7
REMARK    4  A    between atoms: C_7  and  N_8
REMARK    5  A    between atoms: N_8  and  C_9
REMARK    6  A    between atoms: C_9  and  C_10
REMARK    7  A    between atoms: C_13  and  C_14
REMARK    8  A    between atoms: C_13  and  C_20
REMARK                            x       y       z     vdW  Elec       q    Type
REMARK                         _______ _______ _______ _____ _____    ______ ____
ROOT
ATOM      1  C   UNL     1       6.009   6.382  17.973  0.00  0.00    +0.000 C 
ATOM      2  C   UNL     1       5.613   5.764  16.661  0.00  0.00    +0.000 C 
ATOM      3  O   UNL     1       4.179   5.758  16.726  0.00  0.00    +0.000 OA
ATOM      4  C   UNL     1       3.849   5.724  18.138  0.00  0.00    +0.000 C 
ATOM      5  O   UNL     1       5.095   5.757  18.873  0.00  0.00    +0.000 OA
ENDROOT
BRANCH   4   6
ATOM      6  C   UNL     1       3.075   6.995  18.511  0.00  0.00    +0.000 A 
ATOM      7  C   UNL     1       2.446   7.133  19.758  0.00  0.00    +0.000 A 
ATOM      8  C   UNL     1       1.599   8.217  20.013  0.00  0.00    +0.000 A 
ATOM      9  C   UNL     1       1.375   9.182  19.032  0.00  0.00    +0.000 A 
ATOM     10  C   UNL     1       2.025   9.089  17.806  0.00  0.00    +0.000 A 
ATOM     11  C   UNL     1       2.879   8.015  17.556  0.00  0.00    +0.000 A 
ENDBRANCH   4   6
BRANCH   4  12
ATOM     12  C   UNL     1       3.140   4.419  18.483  0.00  0.00    +0.000 A 
ATOM     13  C   UNL     1       1.874   4.127  17.938  0.00  0.00    +0.000 A 
ATOM     14  C   UNL     1       1.184   2.966  18.292  0.00  0.00    +0.000 A 
ATOM     15  C   UNL     1       1.751   2.068  19.191  0.00  0.00    +0.000 A 
ATOM     16  C   UNL     1       3.009   2.327  19.730  0.00  0.00    +0.000 A 
ATOM     17  C   UNL     1       3.700   3.490  19.376  0.00  0.00    +0.000 A 
ENDBRANCH   4  12
BRANCH   1  18
ATOM     18  C   UNL     1       7.428   6.136  18.468  0.00  0.00    +0.000 C 
BRANCH  18  19
ATOM     19  N   UNL     1       8.270   7.321  18.636  0.00  0.00    +0.000 NA
ATOM     20  H   UNL     1       8.043   7.735  19.542  0.00  0.00    +0.000 HD
BRANCH  19  21
ATOM     21  C   UNL     1       8.032   8.320  17.587  0.00  0.00    +0.000 C 
BRANCH  21  22
ATOM     22  C   UNL     1       8.035   9.735  18.171  0.00  0.00    +0.000 C 
BRANCH  22  23
ATOM     23  O   UNL     1       9.359  10.027  18.622  0.00  0.00    +0.000 OA
BRANCH  23  27
ATOM     24  C   UNL     1      10.666  13.787  17.410  0.00  0.00    +0.000 A 
ATOM     25  C   UNL     1       9.317  13.524  17.647  0.00  0.00    +0.000 A 
ATOM     26  C   UNL     1       8.916  12.250  18.055  0.00  0.00    +0.000 A 
ATOM     27  C   UNL     1       9.856  11.232  18.208  0.00  0.00    +0.000 A 
ATOM     28  C   UNL     1      11.209  11.500  17.984  0.00  0.00    +0.000 A 
ATOM     29  C   UNL     1      11.608  12.775  17.583  0.00  0.00    +0.000 A 
ENDBRANCH  23  27
ENDBRANCH  22  23
ENDBRANCH  21  22
ENDBRANCH  19  21
ENDBRANCH  18  19
ENDBRANCH   1  18
TORSDOF 8
ENDMDL
MODEL 9
REMARK VINA RESULT:      -8.0      4.013      7.957
REMARK  Name = 
REMARK  8 active torsions:
REMARK  status: ('A' for Active; 'I' for Inactive)
REMARK    1  A    between atoms: C_4  and  O_5
REMARK    2  A    between atoms: O_5  and  C_6
REMARK    3  A    between atoms: C_6  and  C_7
REMARK    4  A    between atoms: C_7  and  N_8
REMARK    5  A    between atoms: N_8  and  C_9
REMARK    6  A    between atoms: C_9  and  C_10
REMARK    7  A    between atoms: C_13  and  C_14
REMARK    8  A    between atoms: C_13  and  C_20
REMARK                            x       y       z     vdW  Elec       q    Type
REMARK                         _______ _______ _______ _____ _____    ______ ____
ROOT
ATOM      1  C   UNL     1       2.532   7.698  18.310  0.00  0.00    +0.000 C 
ATOM      2  C   UNL     1       2.508   7.340  19.770  0.00  0.00    +0.000 C 
ATOM      3  O   UNL     1       3.389   6.210  19.841  0.00  0.00    +0.000 OA
ATOM      4  C   UNL     1       3.353   5.599  18.526  0.00  0.00    +0.000 C 
ATOM      5  O   UNL     1       2.487   6.410  17.698  0.00  0.00    +0.000 OA
ENDROOT
BRANCH   4   6
ATOM      6  C   UNL     1       4.752   5.654  17.899  0.00  0.00    +0.000 A 
ATOM      7  C   UNL     1       4.935   5.631  16.508  0.00  0.00    +0.000 A 
ATOM      8  C   UNL     1       6.216   5.502  15.960  0.00  0.00    +0.000 A 
ATOM      9  C   UNL     1       7.332   5.403  16.791  0.00  0.00    +0.000 A 
ATOM     10  C   UNL     1       7.176   5.470  18.171  0.00  0.00    +0.000 A 
ATOM     11  C   UNL     1       5.901   5.612  18.718  0.00  0.00    +0.000 A 
ENDBRANCH   4   6
BRANCH   4  12
ATOM     12  C   UNL     1       2.744   4.203  18.609  0.00  0.00    +0.000 A 
ATOM     13  C   UNL     1       3.559   3.059  18.509  0.00  0.00    +0.000 A 
ATOM     14  C   UNL     1       3.011   1.776  18.521  0.00  0.00    +0.000 A 
ATOM     15  C   UNL     1       1.635   1.610  18.643  0.00  0.00    +0.000 A 
ATOM     16  C   UNL     1       0.809   2.726  18.761  0.00  0.00    +0.000 A 
ATOM     17  C   UNL     1       1.358   4.012  18.748  0.00  0.00    +0.000 A 
ENDBRANCH   4  12
BRANCH   1  18
ATOM     18  C   UNL     1       1.382   8.537  17.770  0.00  0.00    +0.000 C 
BRANCH  18  19
ATOM     19  N   UNL     1       1.624   9.976  17.662  0.00  0.00    +0.000 NA
ATOM     20  H   UNL     1       2.619  10.107  17.468  0.00  0.00    +0.000 HD
BRANCH  19  21
ATOM     21  C   UNL     1       1.287  10.688  18.901  0.00  0.00    +0.000 C 
BRANCH  21  22
ATOM     22  C   UNL     1      -0.020  11.468  18.742  0.00  0.00    +0.000 C 
BRANCH  22  23
ATOM     23  O   UNL     1      -1.107  10.560  18.936  0.00  0.00    +0.000 OA
BRANCH  23  27
ATOM     24  C   UNL     1      -4.064  10.780  16.018  0.00  0.00    +0.000 A 
ATOM     25  C   UNL     1      -4.120  11.560  17.174  0.00  0.00    +0.000 A 
ATOM     26  C   UNL     1      -3.107  11.460  18.130  0.00  0.00    +0.000 A 
ATOM     27  C   UNL     1      -2.049  10.570  17.946  0.00  0.00    +0.000 A 
ATOM     28  C   UNL     1      -1.988   9.800  16.781  0.00  0.00    +0.000 A 
ATOM     29  C   UNL     1      -2.997   9.906  15.823  0.00  0.00    +0.000 A 
ENDBRANCH  23  27
ENDBRANCH  22  23
ENDBRANCH  21  22
ENDBRANCH  19  21
ENDBRANCH  18  19
ENDBRANCH   1  18
TORSDOF 8
ENDMDL
