MODEL 1
REMARK VINA RESULT:      -7.6      0.000      0.000
REMARK  Name = 
REMARK  7 active torsions:
REMARK  status: ('A' for Active; 'I' for Inactive)
REMARK    1  A    between atoms: C_1  and  S_2
REMARK    2  A    between atoms: S_2  and  C_3
REMARK    3  A    between atoms: C_8  and  C_9
REMARK    4  A    between atoms: C_15  and  S_16
REMARK    5  A    between atoms: S_16  and  C_17
REMARK    6  A    between atoms: C_17  and  C_18
REMARK    7  A    between atoms: C_19  and  C_20
REMARK                            x       y       z     vdW  Elec       q    Type
REMARK                         _______ _______ _______ _____ _____    ______ ____
ROOT
ATOM      1  C   UNL     1       2.508   7.085  19.446  0.00  0.00    +0.000 C 
ATOM      2  O   UNL     1       2.448   7.827  18.471  0.00  0.00    +0.000 OA
ATOM      3  N   UNL     1       2.034   7.402  20.706  0.00  0.00    +0.000 N 
ATOM      4  C   UNL     1       1.429   8.587  21.064  0.00  0.00    +0.000 A 
ATOM      5  N   UNL     1       1.295   8.979  22.317  0.00  0.00    +0.000 NA
ATOM      6  N   UNL     1       0.698  10.225  22.419  0.00  0.00    +0.000 NA
ATOM      7  C   UNL     1       0.340  10.699  21.244  0.00  0.00    +0.000 A 
ATOM      8  S   UNL     1       0.713   9.656  19.935  0.00  0.00    +0.000 S 
ATOM      9  H   UNL     1       2.274   6.782  21.473  0.00  0.00    +0.000 HD
ENDROOT
BRANCH   1  15
ATOM     10  C   UNL     1       5.071   4.613  18.656  0.00  0.00    +0.000 A 
ATOM     11  N   UNL     1       4.563   3.424  19.016  0.00  0.00    +0.000 NA
ATOM     12  C   UNL     1       3.325   3.422  19.541  0.00  0.00    +0.000 A 
ATOM     13  C   UNL     1       2.570   4.558  19.731  0.00  0.00    +0.000 A 
ATOM     14 CL   UNL     1       1.004   4.369  20.406  0.00  0.00    +0.000 Cl
ATOM     15  C   UNL     1       3.181   5.737  19.331  0.00  0.00    +0.000 A 
ATOM     16  N   UNL     1       4.430   5.787  18.787  0.00  0.00    +0.000 NA
BRANCH  10  18
ATOM     17  C   UNL     1       7.518   5.773  19.087  0.00  0.00    +0.000 C 
ATOM     18  S   UNL     1       6.686   4.655  17.927  0.00  0.00    +0.000 S 
ENDBRANCH  10  18
ENDBRANCH   1  15
BRANCH   7  19
ATOM     19  S   UNL     1      -0.475  12.238  21.041  0.00  0.00    +0.000 S 
BRANCH  19  20
ATOM     20  C   UNL     1      -0.959  12.148  19.294  0.00  0.00    +0.000 C 
BRANCH  20  21
ATOM     21  C   UNL     1      -2.430  11.849  19.182  0.00  0.00    +0.000 C 
ATOM     22  C   UNL     1      -3.395  12.548  19.807  0.00  0.00    +0.000 C 
BRANCH  22  23
ATOM     23  C   UNL     1      -4.827  12.196  19.787  0.00  0.00    +0.000 A 
ATOM     24  C   UNL     1      -5.605  12.439  20.928  0.00  0.00    +0.000 A 
ATOM     25  C   UNL     1      -6.956  12.079  20.965  0.00  0.00    +0.000 A 
ATOM     26  C   UNL     1      -7.551  11.485  19.855  0.00  0.00    +0.000 A 
ATOM     27  C   UNL     1      -6.800  11.267  18.703  0.00  0.00    +0.000 A 
ATOM     28  C   UNL     1      -5.449  11.627  18.667  0.00  0.00    +0.000 A 
ENDBRANCH  22  23
ENDBRANCH  20  21
ENDBRANCH  19  20
ENDBRANCH   7  19
TORSDOF 6
ENDMDL
MODEL 2
REMARK VINA RESULT:      -7.6      2.379      2.690
REMARK  Name = 
REMARK  7 active torsions:
REMARK  status: ('A' for Active; 'I' for Inactive)
REMARK    1  A    between atoms: C_1  and  S_2
REMARK    2  A    between atoms: S_2  and  C_3
REMARK    3  A    between atoms: C_8  and  C_9
REMARK    4  A    between atoms: C_15  and  S_16
REMARK    5  A    between atoms: S_16  and  C_17
REMARK    6  A    between atoms: C_17  and  C_18
REMARK    7  A    between atoms: C_19  and  C_20
REMARK                            x       y       z     vdW  Elec       q    Type
REMARK                         _______ _______ _______ _____ _____    ______ ____
ROOT
ATOM      1  C   UNL     1       2.414   7.025  19.485  0.00  0.00    +0.000 C 
ATOM      2  O   UNL     1       2.158   7.732  18.515  0.00  0.00    +0.000 OA
ATOM      3  N   UNL     1       2.063   7.322  20.789  0.00  0.00    +0.000 N 
ATOM      4  C   UNL     1       1.383   8.446  21.204  0.00  0.00    +0.000 A 
ATOM      5  N   UNL     1       1.359   8.853  22.458  0.00  0.00    +0.000 NA
ATOM      6  N   UNL     1       0.649  10.032  22.618  0.00  0.00    +0.000 NA
ATOM      7  C   UNL     1       0.104  10.436  21.489  0.00  0.00    +0.000 A 
ATOM      8  S   UNL     1       0.426   9.406  20.157  0.00  0.00    +0.000 S 
ATOM      9  H   UNL     1       2.458   6.750  21.529  0.00  0.00    +0.000 HD
ENDROOT
BRANCH   1  15
ATOM     10  C   UNL     1       5.224   4.849  18.662  0.00  0.00    +0.000 A 
ATOM     11  N   UNL     1       4.802   3.596  18.893  0.00  0.00    +0.000 NA
ATOM     12  C   UNL     1       3.541   3.447  19.337  0.00  0.00    +0.000 A 
ATOM     13  C   UNL     1       2.681   4.496  19.570  0.00  0.00    +0.000 A 
ATOM     14 CL   UNL     1       1.101   4.122  20.127  0.00  0.00    +0.000 Cl
ATOM     15  C   UNL     1       3.208   5.752  19.305  0.00  0.00    +0.000 A 
ATOM     16  N   UNL     1       4.476   5.951  18.847  0.00  0.00    +0.000 NA
BRANCH  10  18
ATOM     17  C   UNL     1       6.705   6.765  17.377  0.00  0.00    +0.000 C 
ATOM     18  S   UNL     1       6.867   5.086  18.043  0.00  0.00    +0.000 S 
ENDBRANCH  10  18
ENDBRANCH   1  15
BRANCH   7  19
ATOM     19  S   UNL     1      -0.888  11.877  21.369  0.00  0.00    +0.000 S 
BRANCH  19  20
ATOM     20  C   UNL     1      -1.611  11.943  23.033  0.00  0.00    +0.000 C 
BRANCH  20  21
ATOM     21  C   UNL     1      -2.911  12.699  23.000  0.00  0.00    +0.000 C 
ATOM     22  C   UNL     1      -3.795  12.731  24.014  0.00  0.00    +0.000 C 
BRANCH  22  23
ATOM     23  C   UNL     1      -5.117  13.382  23.949  0.00  0.00    +0.000 A 
ATOM     24  C   UNL     1      -6.270  12.603  24.125  0.00  0.00    +0.000 A 
ATOM     25  C   UNL     1      -7.542  13.173  24.026  0.00  0.00    +0.000 A 
ATOM     26  C   UNL     1      -7.679  14.535  23.768  0.00  0.00    +0.000 A 
ATOM     27  C   UNL     1      -6.543  15.328  23.624  0.00  0.00    +0.000 A 
ATOM     28  C   UNL     1      -5.271  14.756  23.722  0.00  0.00    +0.000 A 
ENDBRANCH  22  23
ENDBRANCH  20  21
ENDBRANCH  19  20
ENDBRANCH   7  19
TORSDOF 6
ENDMDL
MODEL 3
REMARK VINA RESULT:      -7.5      5.649      8.866
REMARK  Name = 
REMARK  7 active torsions:
REMARK  status: ('A' for Active; 'I' for Inactive)
REMARK    1  A    between atoms: C_1  and  S_2
REMARK    2  A    between atoms: S_2  and  C_3
REMARK    3  A    between atoms: C_8  and  C_9
REMARK    4  A    between atoms: C_15  and  S_16
REMARK    5  A    between atoms: S_16  and  C_17
REMARK    6  A    between atoms: C_17  and  C_18
REMARK    7  A    between atoms: C_19  and  C_20
REMARK                            x       y       z     vdW  Elec       q    Type
REMARK                         _______ _______ _______ _____ _____    ______ ____
ROOT
ATOM      1  C   UNL     1       8.611   9.708  18.342  0.00  0.00    +0.000 C 
ATOM      2  O   UNL     1       7.686   9.965  17.578  0.00  0.00    +0.000 OA
ATOM      3  N   UNL     1       8.881   8.454  18.857  0.00  0.00    +0.000 N 
ATOM      4  C   UNL     1       8.163   7.306  18.600  0.00  0.00    +0.000 A 
ATOM      5  N   UNL     1       8.242   6.223  19.349  0.00  0.00    +0.000 NA
ATOM      6  N   UNL     1       7.391   5.219  18.917  0.00  0.00    +0.000 NA
ATOM      7  C   UNL     1       6.750   5.555  17.816  0.00  0.00    +0.000 A 
ATOM      8  S   UNL     1       7.142   7.120  17.239  0.00  0.00    +0.000 S 
ATOM      9  H   UNL     1       9.571   8.383  19.598  0.00  0.00    +0.000 HD
ENDROOT
BRANCH   1  15
ATOM     10  C   UNL     1      11.081  12.389  18.214  0.00  0.00    +0.000 A 
ATOM     11  N   UNL     1      11.235  12.813  19.479  0.00  0.00    +0.000 NA
ATOM     12  C   UNL     1      10.501  12.196  20.423  0.00  0.00    +0.000 A 
ATOM     13  C   UNL     1       9.612  11.178  20.161  0.00  0.00    +0.000 A 
ATOM     14 CL   UNL     1       8.766  10.498  21.491  0.00  0.00    +0.000 Cl
ATOM     15  C   UNL     1       9.521  10.813  18.826  0.00  0.00    +0.000 A 
ATOM     16  N   UNL     1      10.249  11.403  17.836  0.00  0.00    +0.000 NA
BRANCH  10  18
ATOM     17  C   UNL     1      11.379  14.833  17.007  0.00  0.00    +0.000 C 
ATOM     18  S   UNL     1      12.055  13.152  16.945  0.00  0.00    +0.000 S 
ENDBRANCH  10  18
ENDBRANCH   1  15
BRANCH   7  19
ATOM     19  S   UNL     1       5.627   4.484  16.998  0.00  0.00    +0.000 S 
BRANCH  19  20
ATOM     20  C   UNL     1       4.258   4.441  18.189  0.00  0.00    +0.000 C 
BRANCH  20  21
ATOM     21  C   UNL     1       3.493   5.736  18.141  0.00  0.00    +0.000 C 
ATOM     22  C   UNL     1       3.097   6.423  19.228  0.00  0.00    +0.000 C 
BRANCH  22  23
ATOM     23  C   UNL     1       2.257   7.635  19.190  0.00  0.00    +0.000 A 
ATOM     24  C   UNL     1       1.636   8.071  20.370  0.00  0.00    +0.000 A 
ATOM     25  C   UNL     1       0.796   9.189  20.366  0.00  0.00    +0.000 A 
ATOM     26  C   UNL     1       0.579   9.895  19.186  0.00  0.00    +0.000 A 
ATOM     27  C   UNL     1       1.215   9.494  18.014  0.00  0.00    +0.000 A 
ATOM     28  C   UNL     1       2.054   8.376  18.019  0.00  0.00    +0.000 A 
ENDBRANCH  22  23
ENDBRANCH  20  21
ENDBRANCH  19  20
ENDBRANCH   7  19
TORSDOF 6
ENDMDL
MODEL 4
REMARK VINA RESULT:      -7.5      1.756      2.319
REMARK  Name = 
REMARK  7 active torsions:
REMARK  status: ('A' for Active; 'I' for Inactive)
REMARK    1  A    between atoms: C_1  and  S_2
REMARK    2  A    between atoms: S_2  and  C_3
REMARK    3  A    between atoms: C_8  and  C_9
REMARK    4  A    between atoms: C_15  and  S_16
REMARK    5  A    between atoms: S_16  and  C_17
REMARK    6  A    between atoms: C_17  and  C_18
REMARK    7  A    between atoms: C_19  and  C_20
REMARK                            x       y       z     vdW  Elec       q    Type
REMARK                         _______ _______ _______ _____ _____    ______ ____
ROOT
ATOM      1  C   UNL     1       2.156   7.469  19.632  0.00  0.00    +0.000 C 
ATOM      2  O   UNL     1       1.728   8.211  18.753  0.00  0.00    +0.000 OA
ATOM      3  N   UNL     1       1.945   7.649  20.986  0.00  0.00    +0.000 N 
ATOM      4  C   UNL     1       1.232   8.680  21.560  0.00  0.00    +0.000 A 
ATOM      5  N   UNL     1       1.330   9.002  22.835  0.00  0.00    +0.000 NA
ATOM      6  N   UNL     1       0.552  10.101  23.164  0.00  0.00    +0.000 NA
ATOM      7  C   UNL     1      -0.158  10.527  22.139  0.00  0.00    +0.000 A 
ATOM      8  S   UNL     1       0.081   9.617  20.706  0.00  0.00    +0.000 S 
ATOM      9  H   UNL     1       2.472   7.069  21.631  0.00  0.00    +0.000 HD
ENDROOT
BRANCH   1  15
ATOM     10  C   UNL     1       4.919   5.592  18.166  0.00  0.00    +0.000 A 
ATOM     11  N   UNL     1       4.705   4.306  18.486  0.00  0.00    +0.000 NA
ATOM     12  C   UNL     1       3.607   4.032  19.214  0.00  0.00    +0.000 A 
ATOM     13  C   UNL     1       2.714   4.987  19.645  0.00  0.00    +0.000 A 
ATOM     14 CL   UNL     1       1.360   4.456  20.556  0.00  0.00    +0.000 Cl
ATOM     15  C   UNL     1       3.022   6.285  19.267  0.00  0.00    +0.000 A 
ATOM     16  N   UNL     1       4.118   6.610  18.524  0.00  0.00    +0.000 NA
BRANCH  10  18
ATOM     17  C   UNL     1       7.536   4.828  17.879  0.00  0.00    +0.000 C 
ATOM     18  S   UNL     1       6.335   5.991  17.178  0.00  0.00    +0.000 S 
ENDBRANCH  10  18
ENDBRANCH   1  15
BRANCH   7  19
ATOM     19  S   UNL     1      -1.270  11.878  22.242  0.00  0.00    +0.000 S 
BRANCH  19  20
ATOM     20  C   UNL     1      -0.623  12.962  20.937  0.00  0.00    +0.000 C 
BRANCH  20  21
ATOM     21  C   UNL     1      -1.118  12.502  19.593  0.00  0.00    +0.000 C 
ATOM     22  C   UNL     1      -2.361  12.041  19.361  0.00  0.00    +0.000 C 
BRANCH  22  23
ATOM     23  C   UNL     1      -2.820  11.490  18.072  0.00  0.00    +0.000 A 
ATOM     24  C   UNL     1      -4.128  11.757  17.643  0.00  0.00    +0.000 A 
ATOM     25  C   UNL     1      -4.616  11.216  16.449  0.00  0.00    +0.000 A 
ATOM     26  C   UNL     1      -3.796  10.414  15.660  0.00  0.00    +0.000 A 
ATOM     27  C   UNL     1      -2.484  10.166  16.056  0.00  0.00    +0.000 A 
ATOM     28  C   UNL     1      -1.997  10.707  17.250  0.00  0.00    +0.000 A 
ENDBRANCH  22  23
ENDBRANCH  20  21
ENDBRANCH  19  20
ENDBRANCH   7  19
TORSDOF 6
ENDMDL
MODEL 5
REMARK VINA RESULT:      -7.4      3.397      4.656
REMARK  Name = 
REMARK  7 active torsions:
REMARK  status: ('A' for Active; 'I' for Inactive)
REMARK    1  A    between atoms: C_1  and  S_2
REMARK    2  A    between atoms: S_2  and  C_3
REMARK    3  A    between atoms: C_8  and  C_9
REMARK    4  A    between atoms: C_15  and  S_16
REMARK    5  A    between atoms: S_16  and  C_17
REMARK    6  A    between atoms: C_17  and  C_18
REMARK    7  A    between atoms: C_19  and  C_20
REMARK                            x       y       z     vdW  Elec       q    Type
REMARK                         _______ _______ _______ _____ _____    ______ ____
ROOT
ATOM      1  C   UNL     1       2.401   7.168  19.388  0.00  0.00    +0.000 C 
ATOM      2  O   UNL     1       2.172   7.746  18.330  0.00  0.00    +0.000 OA
ATOM      3  N   UNL     1       2.057   7.648  20.638  0.00  0.00    +0.000 N 
ATOM      4  C   UNL     1       1.413   8.840  20.894  0.00  0.00    +0.000 A 
ATOM      5  N   UNL     1       1.399   9.412  22.082  0.00  0.00    +0.000 NA
ATOM      6  N   UNL     1       0.728  10.624  22.077  0.00  0.00    +0.000 NA
ATOM      7  C   UNL     1       0.200  10.891  20.900  0.00  0.00    +0.000 A 
ATOM      8  S   UNL     1       0.492   9.682  19.721  0.00  0.00    +0.000 S 
ATOM      9  H   UNL     1       2.430   7.169  21.451  0.00  0.00    +0.000 HD
ENDROOT
BRANCH   1  15
ATOM     10  C   UNL     1       5.121   4.801  18.838  0.00  0.00    +0.000 A 
ATOM     11  N   UNL     1       4.672   3.613  19.271  0.00  0.00    +0.000 NA
ATOM     12  C   UNL     1       3.422   3.575  19.765  0.00  0.00    +0.000 A 
ATOM     13  C   UNL     1       2.599   4.675  19.855  0.00  0.00    +0.000 A 
ATOM     14 CL   UNL     1       1.027   4.443  20.504  0.00  0.00    +0.000 Cl
ATOM     15  C   UNL     1       3.152   5.857  19.386  0.00  0.00    +0.000 A 
ATOM     16  N   UNL     1       4.411   5.942  18.870  0.00  0.00    +0.000 NA
BRANCH  10  18
ATOM     17  C   UNL     1       6.391   4.370  16.447  0.00  0.00    +0.000 C 
ATOM     18  S   UNL     1       6.751   4.887  18.147  0.00  0.00    +0.000 S 
ENDBRANCH  10  18
ENDBRANCH   1  15
BRANCH   7  19
ATOM     19  S   UNL     1      -0.743  12.334  20.580  0.00  0.00    +0.000 S 
BRANCH  19  20
ATOM     20  C   UNL     1       0.338  13.618  21.271  0.00  0.00    +0.000 C 
BRANCH  20  21
ATOM     21  C   UNL     1       0.718  14.603  20.199  0.00  0.00    +0.000 C 
ATOM     22  C   UNL     1      -0.021  15.674  19.858  0.00  0.00    +0.000 C 
BRANCH  22  23
ATOM     23  C   UNL     1       0.292  16.582  18.738  0.00  0.00    +0.000 A 
ATOM     24  C   UNL     1       1.617  16.682  18.291  0.00  0.00    +0.000 A 
ATOM     25  C   UNL     1       1.962  17.564  17.262  0.00  0.00    +0.000 A 
ATOM     26  C   UNL     1       0.982  18.346  16.655  0.00  0.00    +0.000 A 
ATOM     27  C   UNL     1      -0.344  18.234  17.066  0.00  0.00    +0.000 A 
ATOM     28  C   UNL     1      -0.687  17.352  18.095  0.00  0.00    +0.000 A 
ENDBRANCH  22  23
ENDBRANCH  20  21
ENDBRANCH  19  20
ENDBRANCH   7  19
TORSDOF 6
ENDMDL
MODEL 6
REMARK VINA RESULT:      -7.4      0.507      1.041
REMARK  Name = 
REMARK  7 active torsions:
REMARK  status: ('A' for Active; 'I' for Inactive)
REMARK    1  A    between atoms: C_1  and  S_2
REMARK    2  A    between atoms: S_2  and  C_3
REMARK    3  A    between atoms: C_8  and  C_9
REMARK    4  A    between atoms: C_15  and  S_16
REMARK    5  A    between atoms: S_16  and  C_17
REMARK    6  A    between atoms: C_17  and  C_18
REMARK    7  A    between atoms: C_19  and  C_20
REMARK                            x       y       z     vdW  Elec       q    Type
REMARK                         _______ _______ _______ _____ _____    ______ ____
ROOT
ATOM      1  C   UNL     1       2.375   7.162  19.574  0.00  0.00    +0.000 C 
ATOM      2  O   UNL     1       2.225   7.895  18.601  0.00  0.00    +0.000 OA
ATOM      3  N   UNL     1       1.985   7.476  20.863  0.00  0.00    +0.000 N 
ATOM      4  C   UNL     1       1.378   8.648  21.258  0.00  0.00    +0.000 A 
ATOM      5  N   UNL     1       1.325   9.046  22.514  0.00  0.00    +0.000 NA
ATOM      6  N   UNL     1       0.705  10.277  22.653  0.00  0.00    +0.000 NA
ATOM      7  C   UNL     1       0.251  10.733  21.504  0.00  0.00    +0.000 A 
ATOM      8  S   UNL     1       0.555   9.691  20.177  0.00  0.00    +0.000 S 
ATOM      9  H   UNL     1       2.296   6.868  21.614  0.00  0.00    +0.000 HD
ENDROOT
BRANCH   1  15
ATOM     10  C   UNL     1       4.978   4.760  18.703  0.00  0.00    +0.000 A 
ATOM     11  N   UNL     1       4.494   3.552  19.032  0.00  0.00    +0.000 NA
ATOM     12  C   UNL     1       3.258   3.513  19.562  0.00  0.00    +0.000 A 
ATOM     13  C   UNL     1       2.484   4.629  19.787  0.00  0.00    +0.000 A 
ATOM     14 CL   UNL     1       0.925   4.393  20.463  0.00  0.00    +0.000 Cl
ATOM     15  C   UNL     1       3.072   5.830  19.418  0.00  0.00    +0.000 A 
ATOM     16  N   UNL     1       4.317   5.918  18.870  0.00  0.00    +0.000 NA
BRANCH  10  18
ATOM     17  C   UNL     1       6.669   6.631  17.625  0.00  0.00    +0.000 C 
ATOM     18  S   UNL     1       6.588   4.852  17.968  0.00  0.00    +0.000 S 
ENDBRANCH  10  18
ENDBRANCH   1  15
BRANCH   7  19
ATOM     19  S   UNL     1      -0.616  12.250  21.352  0.00  0.00    +0.000 S 
BRANCH  19  20
ATOM     20  C   UNL     1      -0.845  12.341  19.553  0.00  0.00    +0.000 C 
BRANCH  20  21
ATOM     21  C   UNL     1      -2.293  12.121  19.208  0.00  0.00    +0.000 C 
ATOM     22  C   UNL     1      -3.325  12.587  19.934  0.00  0.00    +0.000 C 
BRANCH  22  23
ATOM     23  C   UNL     1      -4.743  12.285  19.661  0.00  0.00    +0.000 A 
ATOM     24  C   UNL     1      -5.134  11.975  18.350  0.00  0.00    +0.000 A 
ATOM     25  C   UNL     1      -6.475  11.727  18.042  0.00  0.00    +0.000 A 
ATOM     26  C   UNL     1      -7.441  11.769  19.044  0.00  0.00    +0.000 A 
ATOM     27  C   UNL     1      -7.064  12.043  20.357  0.00  0.00    +0.000 A 
ATOM     28  C   UNL     1      -5.723  12.291  20.663  0.00  0.00    +0.000 A 
ENDBRANCH  22  23
ENDBRANCH  20  21
ENDBRANCH  19  20
ENDBRANCH   7  19
TORSDOF 6
ENDMDL
MODEL 7
REMARK VINA RESULT:      -7.4      2.731      4.998
REMARK  Name = 
REMARK  7 active torsions:
REMARK  status: ('A' for Active; 'I' for Inactive)
REMARK    1  A    between atoms: C_1  and  S_2
REMARK    2  A    between atoms: S_2  and  C_3
REMARK    3  A    between atoms: C_8  and  C_9
REMARK    4  A    between atoms: C_15  and  S_16
REMARK    5  A    between atoms: S_16  and  C_17
REMARK    6  A    between atoms: C_17  and  C_18
REMARK    7  A    between atoms: C_19  and  C_20
REMARK                            x       y       z     vdW  Elec       q    Type
REMARK                         _______ _______ _______ _____ _____    ______ ____
ROOT
ATOM      1  C   UNL     1       2.475   6.947  19.536  0.00  0.00    +0.000 C 
ATOM      2  O   UNL     1       2.223   7.558  18.502  0.00  0.00    +0.000 OA
ATOM      3  N   UNL     1       2.088   7.347  20.801  0.00  0.00    +0.000 N 
ATOM      4  C   UNL     1       1.369   8.484  21.102  0.00  0.00    +0.000 A 
ATOM      5  N   UNL     1       1.307   8.998  22.315  0.00  0.00    +0.000 NA
ATOM      6  N   UNL     1       0.562  10.166  22.356  0.00  0.00    +0.000 NA
ATOM      7  C   UNL     1       0.032  10.454  21.185  0.00  0.00    +0.000 A 
ATOM      8  S   UNL     1       0.411   9.321  19.956  0.00  0.00    +0.000 S 
ATOM      9  H   UNL     1       2.481   6.854  21.597  0.00  0.00    +0.000 HD
ENDROOT
BRANCH   1  15
ATOM     10  C   UNL     1       5.317   4.765  18.852  0.00  0.00    +0.000 A 
ATOM     11  N   UNL     1       4.958   3.543  19.278  0.00  0.00    +0.000 NA
ATOM     12  C   UNL     1       3.730   3.419  19.813  0.00  0.00    +0.000 A 
ATOM     13  C   UNL     1       2.844   4.464  19.951  0.00  0.00    +0.000 A 
ATOM     14 CL   UNL     1       1.313   4.123  20.648  0.00  0.00    +0.000 Cl
ATOM     15  C   UNL     1       3.306   5.686  19.485  0.00  0.00    +0.000 A 
ATOM     16  N   UNL     1       4.539   5.858  18.928  0.00  0.00    +0.000 NA
BRANCH  10  18
ATOM     17  C   UNL     1       6.784   6.686  17.560  0.00  0.00    +0.000 C 
ATOM     18  S   UNL     1       6.913   4.963  18.107  0.00  0.00    +0.000 S 
ENDBRANCH  10  18
ENDBRANCH   1  15
BRANCH   7  19
ATOM     19  S   UNL     1      -0.995  11.850  20.917  0.00  0.00    +0.000 S 
BRANCH  19  20
ATOM     20  C   UNL     1      -0.861  12.041  19.117  0.00  0.00    +0.000 C 
BRANCH  20  21
ATOM     21  C   UNL     1       0.042  13.199  18.789  0.00  0.00    +0.000 C 
ATOM     22  C   UNL     1       1.382  13.114  18.699  0.00  0.00    +0.000 C 
BRANCH  22  23
ATOM     23  C   UNL     1       2.279  14.264  18.483  0.00  0.00    +0.000 A 
ATOM     24  C   UNL     1       1.775  15.562  18.646  0.00  0.00    +0.000 A 
ATOM     25  C   UNL     1       2.582  16.679  18.407  0.00  0.00    +0.000 A 
ATOM     26  C   UNL     1       3.909  16.512  18.018  0.00  0.00    +0.000 A 
ATOM     27  C   UNL     1       4.433  15.229  17.884  0.00  0.00    +0.000 A 
ATOM     28  C   UNL     1       3.626  14.113  18.123  0.00  0.00    +0.000 A 
ENDBRANCH  22  23
ENDBRANCH  20  21
ENDBRANCH  19  20
ENDBRANCH   7  19
TORSDOF 6
ENDMDL
MODEL 8
REMARK VINA RESULT:      -7.4      2.995      3.495
REMARK  Name = 
REMARK  7 active torsions:
REMARK  status: ('A' for Active; 'I' for Inactive)
REMARK    1  A    between atoms: C_1  and  S_2
REMARK    2  A    between atoms: S_2  and  C_3
REMARK    3  A    between atoms: C_8  and  C_9
REMARK    4  A    between atoms: C_15  and  S_16
REMARK    5  A    between atoms: S_16  and  C_17
REMARK    6  A    between atoms: C_17  and  C_18
REMARK    7  A    between atoms: C_19  and  C_20
REMARK                            x       y       z     vdW  Elec       q    Type
REMARK                         _______ _______ _______ _____ _____    ______ ____
ROOT
ATOM      1  C   UNL     1       2.348   7.223  18.813  0.00  0.00    +0.000 C 
ATOM      2  O   UNL     1       2.142   8.089  17.968  0.00  0.00    +0.000 OA
ATOM      3  N   UNL     1       2.045   7.347  20.156  0.00  0.00    +0.000 N 
ATOM      4  C   UNL     1       1.473   8.448  20.755  0.00  0.00    +0.000 A 
ATOM      5  N   UNL     1       1.504   8.660  22.057  0.00  0.00    +0.000 NA
ATOM      6  N   UNL     1       0.903   9.857  22.412  0.00  0.00    +0.000 NA
ATOM      7  C   UNL     1       0.379  10.473  21.373  0.00  0.00    +0.000 A 
ATOM      8  S   UNL     1       0.589   9.635  19.893  0.00  0.00    +0.000 S 
ATOM      9  H   UNL     1       2.399   6.637  20.791  0.00  0.00    +0.000 HD
ENDROOT
BRANCH   1  15
ATOM     10  C   UNL     1       2.914   3.633  18.500  0.00  0.00    +0.000 A 
ATOM     11  N   UNL     1       4.072   3.497  17.835  0.00  0.00    +0.000 NA
ATOM     12  C   UNL     1       4.704   4.627  17.470  0.00  0.00    +0.000 A 
ATOM     13  C   UNL     1       4.227   5.892  17.732  0.00  0.00    +0.000 A 
ATOM     14 CL   UNL     1       5.170   7.224  17.201  0.00  0.00    +0.000 Cl
ATOM     15  C   UNL     1       3.024   5.930  18.421  0.00  0.00    +0.000 A 
ATOM     16  N   UNL     1       2.352   4.812  18.818  0.00  0.00    +0.000 NA
BRANCH  10  18
ATOM     17  C   UNL     1       1.699   2.631  20.744  0.00  0.00    +0.000 C 
ATOM     18  S   UNL     1       2.068   2.169  19.031  0.00  0.00    +0.000 S 
ENDBRANCH  10  18
ENDBRANCH   1  15
BRANCH   7  19
ATOM     19  S   UNL     1      -0.484  11.995  21.498  0.00  0.00    +0.000 S 
BRANCH  19  20
ATOM     20  C   UNL     1      -1.431  11.733  23.024  0.00  0.00    +0.000 C 
BRANCH  20  21
ATOM     21  C   UNL     1      -2.709  12.525  22.979  0.00  0.00    +0.000 C 
ATOM     22  C   UNL     1      -3.556  12.657  24.017  0.00  0.00    +0.000 C 
BRANCH  22  23
ATOM     23  C   UNL     1      -4.860  13.342  23.948  0.00  0.00    +0.000 A 
ATOM     24  C   UNL     1      -6.030  12.606  24.184  0.00  0.00    +0.000 A 
ATOM     25  C   UNL     1      -7.288  13.208  24.085  0.00  0.00    +0.000 A 
ATOM     26  C   UNL     1      -7.392  14.560  23.764  0.00  0.00    +0.000 A 
ATOM     27  C   UNL     1      -6.238  15.312  23.560  0.00  0.00    +0.000 A 
ATOM     28  C   UNL     1      -4.981  14.708  23.659  0.00  0.00    +0.000 A 
ENDBRANCH  22  23
ENDBRANCH  20  21
ENDBRANCH  19  20
ENDBRANCH   7  19
TORSDOF 6
ENDMDL
MODEL 9
REMARK VINA RESULT:      -7.4      2.578      4.759
REMARK  Name = 
REMARK  7 active torsions:
REMARK  status: ('A' for Active; 'I' for Inactive)
REMARK    1  A    between atoms: C_1  and  S_2
REMARK    2  A    between atoms: S_2  and  C_3
REMARK    3  A    between atoms: C_8  and  C_9
REMARK    4  A    between atoms: C_15  and  S_16
REMARK    5  A    between atoms: S_16  and  C_17
REMARK    6  A    between atoms: C_17  and  C_18
REMARK    7  A    between atoms: C_19  and  C_20
REMARK                            x       y       z     vdW  Elec       q    Type
REMARK                         _______ _______ _______ _____ _____    ______ ____
ROOT
ATOM      1  C   UNL     1       2.298   7.266  19.717  0.00  0.00    +0.000 C 
ATOM      2  O   UNL     1       2.076   7.956  18.727  0.00  0.00    +0.000 OA
ATOM      3  N   UNL     1       1.911   7.588  21.004  0.00  0.00    +0.000 N 
ATOM      4  C   UNL     1       1.226   8.724  21.378  0.00  0.00    +0.000 A 
ATOM      5  N   UNL     1       1.168   9.154  22.624  0.00  0.00    +0.000 NA
ATOM      6  N   UNL     1       0.461  10.340  22.741  0.00  0.00    +0.000 NA
ATOM      7  C   UNL     1      -0.048  10.727  21.589  0.00  0.00    +0.000 A 
ATOM      8  S   UNL     1       0.307   9.670  20.287  0.00  0.00    +0.000 S 
ATOM      9  H   UNL     1       2.281   7.028  21.766  0.00  0.00    +0.000 HD
ENDROOT
BRANCH   1  15
ATOM     10  C   UNL     1       5.106   5.056  18.982  0.00  0.00    +0.000 A 
ATOM     11  N   UNL     1       4.679   3.812  19.253  0.00  0.00    +0.000 NA
ATOM     12  C   UNL     1       3.416   3.682  19.695  0.00  0.00    +0.000 A 
ATOM     13  C   UNL     1       2.557   4.740  19.888  0.00  0.00    +0.000 A 
ATOM     14 CL   UNL     1       0.974   4.390  20.449  0.00  0.00    +0.000 Cl
ATOM     15  C   UNL     1       3.089   5.985  19.583  0.00  0.00    +0.000 A 
ATOM     16  N   UNL     1       4.360   6.165  19.126  0.00  0.00    +0.000 NA
BRANCH  10  18
ATOM     17  C   UNL     1       6.605   4.381  16.789  0.00  0.00    +0.000 C 
ATOM     18  S   UNL     1       6.753   5.267  18.363  0.00  0.00    +0.000 S 
ENDBRANCH  10  18
ENDBRANCH   1  15
BRANCH   7  19
ATOM     19  S   UNL     1      -1.027  12.171  21.413  0.00  0.00    +0.000 S 
BRANCH  19  20
ATOM     20  C   UNL     1      -1.284  12.200  19.616  0.00  0.00    +0.000 C 
BRANCH  20  21
ATOM     21  C   UNL     1      -0.220  13.036  18.958  0.00  0.00    +0.000 C 
ATOM     22  C   UNL     1       0.306  14.152  19.495  0.00  0.00    +0.000 C 
BRANCH  22  23
ATOM     23  C   UNL     1       1.270  15.034  18.810  0.00  0.00    +0.000 A 
ATOM     24  C   UNL     1       2.456  14.484  18.302  0.00  0.00    +0.000 A 
ATOM     25  C   UNL     1       3.415  15.293  17.686  0.00  0.00    +0.000 A 
ATOM     26  C   UNL     1       3.194  16.662  17.555  0.00  0.00    +0.000 A 
ATOM     27  C   UNL     1       2.007  17.218  18.025  0.00  0.00    +0.000 A 
ATOM     28  C   UNL     1       1.049  16.408  18.641  0.00  0.00    +0.000 A 
ENDBRANCH  22  23
ENDBRANCH  20  21
ENDBRANCH  19  20
ENDBRANCH   7  19
TORSDOF 6
ENDMDL
