MODEL 1
REMARK VINA RESULT:      -7.7      0.000      0.000
REMARK  Name = 
REMARK  7 active torsions:
REMARK  status: ('A' for Active; 'I' for Inactive)
REMARK    1  A    between atoms: C_1  and  C_2
REMARK    2  A    between atoms: N_4  and  C_5
REMARK    3  A    between atoms: N_12  and  C_13
REMARK    4  A    between atoms: C_16  and  O_17
REMARK    5  A    between atoms: O_17  and  C_18
REMARK    6  A    between atoms: C_18  and  C_19
REMARK    7  A    between atoms: C_18  and  C_20
REMARK                            x       y       z     vdW  Elec       q    Type
REMARK                         _______ _______ _______ _____ _____    ______ ____
ROOT
ATOM      1  C   UNL     1       3.920   5.323  17.620  0.00  0.00    +0.000 A 
ATOM      2  C   UNL     1       3.770   4.649  18.837  0.00  0.00    +0.000 A 
ATOM      3  C   UNL     1       3.113   5.249  19.912  0.00  0.00    +0.000 A 
ATOM      4  C   UNL     1       2.584   6.525  19.762  0.00  0.00    +0.000 A 
ATOM      5  N   UNL     1       1.853   7.089  20.795  0.00  0.00    +0.000 N 
ATOM      6  C   UNL     1       1.209   8.286  20.710  0.00  0.00    +0.000 A 
ATOM      7  O   UNL     1       0.536   8.645  21.675  0.00  0.00    +0.000 OA
ATOM      8  N   UNL     1       1.353   8.998  19.526  0.00  0.00    +0.000 N 
ATOM      9  C   UNL     1       2.127   8.553  18.449  0.00  0.00    +0.000 A 
ATOM     10  O   UNL     1       2.301   9.181  17.407  0.00  0.00    +0.000 OA
ATOM     11  C   UNL     1       2.752   7.220  18.576  0.00  0.00    +0.000 A 
ATOM     12  C   UNL     1       3.448   6.636  17.508  0.00  0.00    +0.000 A 
ATOM     13  H   UNL     1       1.705   6.583  21.659  0.00  0.00    +0.000 HD
ENDROOT
BRANCH   8  14
ATOM     14  C   UNL     1       0.604  10.261  19.362  0.00  0.00    +0.000 C 
ATOM     15  C   UNL     1      -0.893   9.998  19.135  0.00  0.00    +0.000 C 
ATOM     16  C   UNL     1      -1.699  11.283  19.030  0.00  0.00    +0.000 C 
ATOM     17  C   UNL     1      -1.490  12.163  20.266  0.00  0.00    +0.000 C 
ATOM     18  C   UNL     1      -0.002  12.513  20.396  0.00  0.00    +0.000 C 
ATOM     19  C   UNL     1       0.863  11.257  20.510  0.00  0.00    +0.000 C 
BRANCH  17  20
ATOM     20  O   UNL     1      -2.226  13.387  20.200  0.00  0.00    +0.000 OA
BRANCH  20  21
ATOM     21  C   UNL     1      -3.401  13.467  21.018  0.00  0.00    +0.000 C 
ATOM     22  C   UNL     1      -4.669  13.027  20.289  0.00  0.00    +0.000 C 
ATOM     23  C   UNL     1      -3.165  12.576  22.234  0.00  0.00    +0.000 C 
ENDBRANCH  20  21
ENDBRANCH  17  20
ENDBRANCH   8  14
BRANCH   1  27
ATOM     24  C   UNL     1       6.154   3.893  14.945  0.00  0.00    +0.000 C 
ATOM     25  C   UNL     1       5.861   4.551  16.268  0.00  0.00    +0.000 C 
ATOM     26  O   UNL     1       6.770   4.858  17.030  0.00  0.00    +0.000 OA
ATOM     27  N   UNL     1       4.504   4.732  16.481  0.00  0.00    +0.000 N 
ATOM     28  H   UNL     1       3.874   4.269  15.837  0.00  0.00    +0.000 HD
ENDBRANCH   1  27
TORSDOF 4
ENDMDL
MODEL 2
REMARK VINA RESULT:      -7.6      2.304      8.922
REMARK  Name = 
REMARK  7 active torsions:
REMARK  status: ('A' for Active; 'I' for Inactive)
REMARK    1  A    between atoms: C_1  and  C_2
REMARK    2  A    between atoms: N_4  and  C_5
REMARK    3  A    between atoms: N_12  and  C_13
REMARK    4  A    between atoms: C_16  and  O_17
REMARK    5  A    between atoms: O_17  and  C_18
REMARK    6  A    between atoms: C_18  and  C_19
REMARK    7  A    between atoms: C_18  and  C_20
REMARK                            x       y       z     vdW  Elec       q    Type
REMARK                         _______ _______ _______ _____ _____    ______ ____
ROOT
ATOM      1  C   UNL     1       0.446  10.578  20.594  0.00  0.00    +0.000 A 
ATOM      2  C   UNL     1       0.421   9.836  21.779  0.00  0.00    +0.000 A 
ATOM      3  C   UNL     1       0.959   8.549  21.829  0.00  0.00    +0.000 A 
ATOM      4  C   UNL     1       1.544   8.009  20.690  0.00  0.00    +0.000 A 
ATOM      5  N   UNL     1       2.160   6.770  20.757  0.00  0.00    +0.000 N 
ATOM      6  C   UNL     1       2.848   6.202  19.729  0.00  0.00    +0.000 A 
ATOM      7  O   UNL     1       3.407   5.126  19.937  0.00  0.00    +0.000 OA
ATOM      8  N   UNL     1       2.875   6.898  18.526  0.00  0.00    +0.000 N 
ATOM      9  C   UNL     1       2.226   8.122  18.329  0.00  0.00    +0.000 A 
ATOM     10  O   UNL     1       2.203   8.737  17.267  0.00  0.00    +0.000 OA
ATOM     11  C   UNL     1       1.547   8.718  19.499  0.00  0.00    +0.000 A 
ATOM     12  C   UNL     1       0.970   9.994  19.436  0.00  0.00    +0.000 A 
ATOM     13  H   UNL     1       2.183   6.251  21.626  0.00  0.00    +0.000 HD
ENDROOT
BRANCH   8  14
ATOM     14  C   UNL     1       3.679   6.357  17.411  0.00  0.00    +0.000 C 
ATOM     15  C   UNL     1       5.127   6.872  17.464  0.00  0.00    +0.000 C 
ATOM     16  C   UNL     1       5.995   6.278  16.366  0.00  0.00    +0.000 C 
ATOM     17  C   UNL     1       5.968   4.747  16.415  0.00  0.00    +0.000 C 
ATOM     18  C   UNL     1       4.525   4.258  16.234  0.00  0.00    +0.000 C 
ATOM     19  C   UNL     1       3.601   4.820  17.315  0.00  0.00    +0.000 C 
BRANCH  17  20
ATOM     20  O   UNL     1       6.768   4.150  15.391  0.00  0.00    +0.000 OA
BRANCH  20  21
ATOM     21  C   UNL     1       6.597   4.672  14.066  0.00  0.00    +0.000 C 
ATOM     22  C   UNL     1       7.882   5.252  13.481  0.00  0.00    +0.000 C 
ATOM     23  C   UNL     1       6.099   3.526  13.191  0.00  0.00    +0.000 C 
ENDBRANCH  20  21
ENDBRANCH  17  20
ENDBRANCH   8  14
BRANCH   1  27
ATOM     24  C   UNL     1      -0.068  14.310  20.661  0.00  0.00    +0.000 C 
ATOM     25  C   UNL     1       0.714  13.038  20.861  0.00  0.00    +0.000 C 
ATOM     26  O   UNL     1       1.866  13.069  21.279  0.00  0.00    +0.000 OA
ATOM     27  N   UNL     1      -0.012  11.910  20.513  0.00  0.00    +0.000 N 
ATOM     28  H   UNL     1      -0.884  12.061  20.022  0.00  0.00    +0.000 HD
ENDBRANCH   1  27
TORSDOF 4
ENDMDL
MODEL 3
REMARK VINA RESULT:      -7.5      1.855      8.983
REMARK  Name = 
REMARK  7 active torsions:
REMARK  status: ('A' for Active; 'I' for Inactive)
REMARK    1  A    between atoms: C_1  and  C_2
REMARK    2  A    between atoms: N_4  and  C_5
REMARK    3  A    between atoms: N_12  and  C_13
REMARK    4  A    between atoms: C_16  and  O_17
REMARK    5  A    between atoms: O_17  and  C_18
REMARK    6  A    between atoms: C_18  and  C_19
REMARK    7  A    between atoms: C_18  and  C_20
REMARK                            x       y       z     vdW  Elec       q    Type
REMARK                         _______ _______ _______ _____ _____    ______ ____
ROOT
ATOM      1  C   UNL     1       0.453  10.451  20.590  0.00  0.00    +0.000 A 
ATOM      2  C   UNL     1       0.426   9.685  21.761  0.00  0.00    +0.000 A 
ATOM      3  C   UNL     1       0.978   8.404  21.791  0.00  0.00    +0.000 A 
ATOM      4  C   UNL     1       1.579   7.892  20.647  0.00  0.00    +0.000 A 
ATOM      5  N   UNL     1       2.208   6.659  20.696  0.00  0.00    +0.000 N 
ATOM      6  C   UNL     1       2.911   6.118  19.663  0.00  0.00    +0.000 A 
ATOM      7  O   UNL     1       3.481   5.045  19.856  0.00  0.00    +0.000 OA
ATOM      8  N   UNL     1       2.941   6.837  18.474  0.00  0.00    +0.000 N 
ATOM      9  C   UNL     1       2.281   8.057  18.295  0.00  0.00    +0.000 A 
ATOM     10  O   UNL     1       2.260   8.693  17.244  0.00  0.00    +0.000 OA
ATOM     11  C   UNL     1       1.585   8.624  19.470  0.00  0.00    +0.000 A 
ATOM     12  C   UNL     1       0.994   9.894  19.426  0.00  0.00    +0.000 A 
ATOM     13  H   UNL     1       2.229   6.124  21.555  0.00  0.00    +0.000 HD
ENDROOT
BRANCH   8  14
ATOM     14  C   UNL     1       3.761   6.327  17.356  0.00  0.00    +0.000 C 
ATOM     15  C   UNL     1       5.203   6.855  17.433  0.00  0.00    +0.000 C 
ATOM     16  C   UNL     1       6.087   6.292  16.333  0.00  0.00    +0.000 C 
ATOM     17  C   UNL     1       6.075   4.760  16.350  0.00  0.00    +0.000 C 
ATOM     18  C   UNL     1       4.639   4.260  16.146  0.00  0.00    +0.000 C 
ATOM     19  C   UNL     1       3.699   4.792  17.229  0.00  0.00    +0.000 C 
BRANCH  17  20
ATOM     20  O   UNL     1       6.890   4.191  15.322  0.00  0.00    +0.000 OA
BRANCH  20  21
ATOM     21  C   UNL     1       6.649   4.660  13.989  0.00  0.00    +0.000 C 
ATOM     22  C   UNL     1       7.885   5.279  13.339  0.00  0.00    +0.000 C 
ATOM     23  C   UNL     1       6.176   3.463  13.169  0.00  0.00    +0.000 C 
ENDBRANCH  20  21
ENDBRANCH  17  20
ENDBRANCH   8  14
BRANCH   1  27
ATOM     24  C   UNL     1      -1.382  13.688  20.000  0.00  0.00    +0.000 C 
ATOM     25  C   UNL     1      -1.165  12.203  19.877  0.00  0.00    +0.000 C 
ATOM     26  O   UNL     1      -1.960  11.502  19.261  0.00  0.00    +0.000 OA
ATOM     27  N   UNL     1      -0.019  11.779  20.530  0.00  0.00    +0.000 N 
ATOM     28  H   UNL     1       0.437  12.449  21.137  0.00  0.00    +0.000 HD
ENDBRANCH   1  27
TORSDOF 4
ENDMDL
MODEL 4
REMARK VINA RESULT:      -7.5      2.267      8.926
REMARK  Name = 
REMARK  7 active torsions:
REMARK  status: ('A' for Active; 'I' for Inactive)
REMARK    1  A    between atoms: C_1  and  C_2
REMARK    2  A    between atoms: N_4  and  C_5
REMARK    3  A    between atoms: N_12  and  C_13
REMARK    4  A    between atoms: C_16  and  O_17
REMARK    5  A    between atoms: O_17  and  C_18
REMARK    6  A    between atoms: C_18  and  C_19
REMARK    7  A    between atoms: C_18  and  C_20
REMARK                            x       y       z     vdW  Elec       q    Type
REMARK                         _______ _______ _______ _____ _____    ______ ____
ROOT
ATOM      1  C   UNL     1       0.777  10.136  19.805  0.00  0.00    +0.000 A 
ATOM      2  C   UNL     1       0.378   9.534  21.003  0.00  0.00    +0.000 A 
ATOM      3  C   UNL     1       0.779   8.235  21.320  0.00  0.00    +0.000 A 
ATOM      4  C   UNL     1       1.601   7.540  20.441  0.00  0.00    +0.000 A 
ATOM      5  N   UNL     1       2.075   6.286  20.791  0.00  0.00    +0.000 N 
ATOM      6  C   UNL     1       2.964   5.571  20.048  0.00  0.00    +0.000 A 
ATOM      7  O   UNL     1       3.360   4.499  20.502  0.00  0.00    +0.000 OA
ATOM      8  N   UNL     1       3.366   6.125  18.838  0.00  0.00    +0.000 N 
ATOM      9  C   UNL     1       2.894   7.350  18.357  0.00  0.00    +0.000 A 
ATOM     10  O   UNL     1       3.204   7.842  17.275  0.00  0.00    +0.000 OA
ATOM     11  C   UNL     1       1.978   8.109  19.235  0.00  0.00    +0.000 A 
ATOM     12  C   UNL     1       1.543   9.398  18.895  0.00  0.00    +0.000 A 
ATOM     13  H   UNL     1       1.824   5.869  21.678  0.00  0.00    +0.000 HD
ENDROOT
BRANCH   8  14
ATOM     14  C   UNL     1       4.393   5.421  18.042  0.00  0.00    +0.000 C 
ATOM     15  C   UNL     1       3.751   4.468  17.020  0.00  0.00    +0.000 C 
ATOM     16  C   UNL     1       4.783   3.780  16.141  0.00  0.00    +0.000 C 
ATOM     17  C   UNL     1       5.672   4.807  15.433  0.00  0.00    +0.000 C 
ATOM     18  C   UNL     1       6.396   5.662  16.482  0.00  0.00    +0.000 C 
ATOM     19  C   UNL     1       5.407   6.385  17.397  0.00  0.00    +0.000 C 
BRANCH  17  20
ATOM     20  O   UNL     1       6.663   4.197  14.602  0.00  0.00    +0.000 OA
BRANCH  20  21
ATOM     21  C   UNL     1       6.704   4.633  13.237  0.00  0.00    +0.000 C 
ATOM     22  C   UNL     1       8.059   5.206  12.831  0.00  0.00    +0.000 C 
ATOM     23  C   UNL     1       6.370   3.423  12.368  0.00  0.00    +0.000 C 
ENDBRANCH  20  21
ENDBRANCH  17  20
ENDBRANCH   8  14
BRANCH   1  27
ATOM     24  C   UNL     1      -0.636  13.382  18.517  0.00  0.00    +0.000 C 
ATOM     25  C   UNL     1      -0.587  11.885  18.676  0.00  0.00    +0.000 C 
ATOM     26  O   UNL     1      -1.423  11.169  18.138  0.00  0.00    +0.000 OA
ATOM     27  N   UNL     1       0.467  11.471  19.476  0.00  0.00    +0.000 N 
ATOM     28  H   UNL     1       0.964  12.191  19.986  0.00  0.00    +0.000 HD
ENDBRANCH   1  27
TORSDOF 4
ENDMDL
MODEL 5
REMARK VINA RESULT:      -7.4      2.413      8.914
REMARK  Name = 
REMARK  7 active torsions:
REMARK  status: ('A' for Active; 'I' for Inactive)
REMARK    1  A    between atoms: C_1  and  C_2
REMARK    2  A    between atoms: N_4  and  C_5
REMARK    3  A    between atoms: N_12  and  C_13
REMARK    4  A    between atoms: C_16  and  O_17
REMARK    5  A    between atoms: O_17  and  C_18
REMARK    6  A    between atoms: C_18  and  C_19
REMARK    7  A    between atoms: C_18  and  C_20
REMARK                            x       y       z     vdW  Elec       q    Type
REMARK                         _______ _______ _______ _____ _____    ______ ____
ROOT
ATOM      1  C   UNL     1       0.724  10.149  19.839  0.00  0.00    +0.000 A 
ATOM      2  C   UNL     1       0.309   9.530  21.023  0.00  0.00    +0.000 A 
ATOM      3  C   UNL     1       0.711   8.229  21.329  0.00  0.00    +0.000 A 
ATOM      4  C   UNL     1       1.549   7.549  20.453  0.00  0.00    +0.000 A 
ATOM      5  N   UNL     1       2.023   6.292  20.794  0.00  0.00    +0.000 N 
ATOM      6  C   UNL     1       2.926   5.591  20.055  0.00  0.00    +0.000 A 
ATOM      7  O   UNL     1       3.319   4.514  20.501  0.00  0.00    +0.000 OA
ATOM      8  N   UNL     1       3.345   6.162  18.860  0.00  0.00    +0.000 N 
ATOM      9  C   UNL     1       2.875   7.392  18.388  0.00  0.00    +0.000 A 
ATOM     10  O   UNL     1       3.200   7.900  17.317  0.00  0.00    +0.000 OA
ATOM     11  C   UNL     1       1.942   8.135  19.261  0.00  0.00    +0.000 A 
ATOM     12  C   UNL     1       1.507   9.427  18.932  0.00  0.00    +0.000 A 
ATOM     13  H   UNL     1       1.760   5.862  21.671  0.00  0.00    +0.000 HD
ENDROOT
BRANCH   8  14
ATOM     14  C   UNL     1       4.386   5.473  18.070  0.00  0.00    +0.000 C 
ATOM     15  C   UNL     1       3.765   4.582  16.982  0.00  0.00    +0.000 C 
ATOM     16  C   UNL     1       4.816   3.912  16.110  0.00  0.00    +0.000 C 
ATOM     17  C   UNL     1       5.752   4.951  15.484  0.00  0.00    +0.000 C 
ATOM     18  C   UNL     1       6.452   5.742  16.598  0.00  0.00    +0.000 C 
ATOM     19  C   UNL     1       5.444   6.444  17.509  0.00  0.00    +0.000 C 
BRANCH  17  20
ATOM     20  O   UNL     1       6.761   4.359  14.663  0.00  0.00    +0.000 OA
BRANCH  20  21
ATOM     21  C   UNL     1       6.736   4.709  13.273  0.00  0.00    +0.000 C 
ATOM     22  C   UNL     1       8.061   5.282  12.776  0.00  0.00    +0.000 C 
ATOM     23  C   UNL     1       6.394   3.441  12.496  0.00  0.00    +0.000 C 
ENDBRANCH  20  21
ENDBRANCH  17  20
ENDBRANCH   8  14
BRANCH   1  27
ATOM     24  C   UNL     1       0.363  13.892  19.600  0.00  0.00    +0.000 C 
ATOM     25  C   UNL     1       0.895  12.609  20.182  0.00  0.00    +0.000 C 
ATOM     26  O   UNL     1       1.675  12.625  21.127  0.00  0.00    +0.000 OA
ATOM     27  N   UNL     1       0.413  11.488  19.524  0.00  0.00    +0.000 N 
ATOM     28  H   UNL     1      -0.084  11.646  18.656  0.00  0.00    +0.000 HD
ENDBRANCH   1  27
TORSDOF 4
ENDMDL
MODEL 6
REMARK VINA RESULT:      -7.3      0.907      1.061
REMARK  Name = 
REMARK  7 active torsions:
REMARK  status: ('A' for Active; 'I' for Inactive)
REMARK    1  A    between atoms: C_1  and  C_2
REMARK    2  A    between atoms: N_4  and  C_5
REMARK    3  A    between atoms: N_12  and  C_13
REMARK    4  A    between atoms: C_16  and  O_17
REMARK    5  A    between atoms: O_17  and  C_18
REMARK    6  A    between atoms: C_18  and  C_19
REMARK    7  A    between atoms: C_18  and  C_20
REMARK                            x       y       z     vdW  Elec       q    Type
REMARK                         _______ _______ _______ _____ _____    ______ ____
ROOT
ATOM      1  C   UNL     1       3.852   5.206  17.690  0.00  0.00    +0.000 A 
ATOM      2  C   UNL     1       3.685   4.554  18.917  0.00  0.00    +0.000 A 
ATOM      3  C   UNL     1       3.038   5.186  19.980  0.00  0.00    +0.000 A 
ATOM      4  C   UNL     1       2.538   6.471  19.810  0.00  0.00    +0.000 A 
ATOM      5  N   UNL     1       1.817   7.067  20.832  0.00  0.00    +0.000 N 
ATOM      6  C   UNL     1       1.201   8.277  20.726  0.00  0.00    +0.000 A 
ATOM      7  O   UNL     1       0.534   8.667  21.683  0.00  0.00    +0.000 OA
ATOM      8  N   UNL     1       1.364   8.967  19.531  0.00  0.00    +0.000 N 
ATOM      9  C   UNL     1       2.130   8.488  18.463  0.00  0.00    +0.000 A 
ATOM     10  O   UNL     1       2.321   9.095  17.412  0.00  0.00    +0.000 OA
ATOM     11  C   UNL     1       2.725   7.143  18.613  0.00  0.00    +0.000 A 
ATOM     12  C   UNL     1       3.411   6.527  17.557  0.00  0.00    +0.000 A 
ATOM     13  H   UNL     1       1.656   6.579  21.703  0.00  0.00    +0.000 HD
ENDROOT
BRANCH   8  14
ATOM     14  C   UNL     1       0.644  10.244  19.345  0.00  0.00    +0.000 C 
ATOM     15  C   UNL     1      -0.869  10.016  19.195  0.00  0.00    +0.000 C 
ATOM     16  C   UNL     1      -1.643  11.319  19.069  0.00  0.00    +0.000 C 
ATOM     17  C   UNL     1      -1.354  12.244  20.256  0.00  0.00    +0.000 C 
ATOM     18  C   UNL     1       0.148  12.554  20.306  0.00  0.00    +0.000 C 
ATOM     19  C   UNL     1       0.982  11.279  20.436  0.00  0.00    +0.000 C 
BRANCH  17  20
ATOM     20  O   UNL     1      -2.058  13.485  20.169  0.00  0.00    +0.000 OA
BRANCH  20  21
ATOM     21  C   UNL     1      -1.535  14.568  20.950  0.00  0.00    +0.000 C 
ATOM     22  C   UNL     1      -1.476  15.887  20.182  0.00  0.00    +0.000 C 
ATOM     23  C   UNL     1      -2.437  14.719  22.172  0.00  0.00    +0.000 C 
ENDBRANCH  20  21
ENDBRANCH  17  20
ENDBRANCH   8  14
BRANCH   1  27
ATOM     24  C   UNL     1       6.014   3.966  14.865  0.00  0.00    +0.000 C 
ATOM     25  C   UNL     1       5.716   4.779  16.098  0.00  0.00    +0.000 C 
ATOM     26  O   UNL     1       6.571   5.506  16.591  0.00  0.00    +0.000 OA
ATOM     27  N   UNL     1       4.425   4.583  16.563  0.00  0.00    +0.000 N 
ATOM     28  H   UNL     1       3.900   3.823  16.149  0.00  0.00    +0.000 HD
ENDBRANCH   1  27
TORSDOF 4
ENDMDL
MODEL 7
REMARK VINA RESULT:      -7.2      2.296      8.655
REMARK  Name = 
REMARK  7 active torsions:
REMARK  status: ('A' for Active; 'I' for Inactive)
REMARK    1  A    between atoms: C_1  and  C_2
REMARK    2  A    between atoms: N_4  and  C_5
REMARK    3  A    between atoms: N_12  and  C_13
REMARK    4  A    between atoms: C_16  and  O_17
REMARK    5  A    between atoms: O_17  and  C_18
REMARK    6  A    between atoms: C_18  and  C_19
REMARK    7  A    between atoms: C_18  and  C_20
REMARK                            x       y       z     vdW  Elec       q    Type
REMARK                         _______ _______ _______ _____ _____    ______ ____
ROOT
ATOM      1  C   UNL     1       0.801  10.562  19.934  0.00  0.00    +0.000 A 
ATOM      2  C   UNL     1       0.272  10.166  21.167  0.00  0.00    +0.000 A 
ATOM      3  C   UNL     1       0.425   8.855  21.623  0.00  0.00    +0.000 A 
ATOM      4  C   UNL     1       1.129   7.941  20.849  0.00  0.00    +0.000 A 
ATOM      5  N   UNL     1       1.361   6.665  21.337  0.00  0.00    +0.000 N 
ATOM      6  C   UNL     1       2.124   5.732  20.704  0.00  0.00    +0.000 A 
ATOM      7  O   UNL     1       2.309   4.658  21.274  0.00  0.00    +0.000 OA
ATOM      8  N   UNL     1       2.647   6.080  19.464  0.00  0.00    +0.000 N 
ATOM      9  C   UNL     1       2.414   7.314  18.848  0.00  0.00    +0.000 A 
ATOM     10  O   UNL     1       2.833   7.631  17.738  0.00  0.00    +0.000 OA
ATOM     11  C   UNL     1       1.630   8.308  19.611  0.00  0.00    +0.000 A 
ATOM     12  C   UNL     1       1.442   9.612  19.132  0.00  0.00    +0.000 A 
ATOM     13  H   UNL     1       1.018   6.390  22.249  0.00  0.00    +0.000 HD
ENDROOT
BRANCH   8  14
ATOM     14  C   UNL     1       3.548   5.128  18.782  0.00  0.00    +0.000 C 
ATOM     15  C   UNL     1       2.891   4.539  17.523  0.00  0.00    +0.000 C 
ATOM     16  C   UNL     1       3.821   3.607  16.763  0.00  0.00    +0.000 C 
ATOM     17  C   UNL     1       5.132   4.314  16.404  0.00  0.00    +0.000 C 
ATOM     18  C   UNL     1       5.827   4.781  17.691  0.00  0.00    +0.000 C 
ATOM     19  C   UNL     1       4.939   5.728  18.499  0.00  0.00    +0.000 C 
BRANCH  17  20
ATOM     20  O   UNL     1       6.039   3.466  15.696  0.00  0.00    +0.000 OA
BRANCH  20  21
ATOM     21  C   UNL     1       6.524   3.960  14.441  0.00  0.00    +0.000 C 
ATOM     22  C   UNL     1       5.548   3.731  13.289  0.00  0.00    +0.000 C 
ATOM     23  C   UNL     1       6.781   5.455  14.615  0.00  0.00    +0.000 C 
ENDBRANCH  20  21
ENDBRANCH  17  20
ENDBRANCH   8  14
BRANCH   1  27
ATOM     24  C   UNL     1      -0.061  13.905  18.426  0.00  0.00    +0.000 C 
ATOM     25  C   UNL     1      -0.322  12.468  18.794  0.00  0.00    +0.000 C 
ATOM     26  O   UNL     1      -1.386  11.931  18.509  0.00  0.00    +0.000 OA
ATOM     27  N   UNL     1       0.743  11.891  19.467  0.00  0.00    +0.000 N 
ATOM     28  H   UNL     1       1.479  12.514  19.778  0.00  0.00    +0.000 HD
ENDBRANCH   1  27
TORSDOF 4
ENDMDL
MODEL 8
REMARK VINA RESULT:      -7.2      2.253      9.021
REMARK  Name = 
REMARK  7 active torsions:
REMARK  status: ('A' for Active; 'I' for Inactive)
REMARK    1  A    between atoms: C_1  and  C_2
REMARK    2  A    between atoms: N_4  and  C_5
REMARK    3  A    between atoms: N_12  and  C_13
REMARK    4  A    between atoms: C_16  and  O_17
REMARK    5  A    between atoms: O_17  and  C_18
REMARK    6  A    between atoms: C_18  and  C_19
REMARK    7  A    between atoms: C_18  and  C_20
REMARK                            x       y       z     vdW  Elec       q    Type
REMARK                         _______ _______ _______ _____ _____    ______ ____
ROOT
ATOM      1  C   UNL     1       0.889   9.782  19.588  0.00  0.00    +0.000 A 
ATOM      2  C   UNL     1       0.676   9.154  20.819  0.00  0.00    +0.000 A 
ATOM      3  C   UNL     1       1.233   7.904  21.091  0.00  0.00    +0.000 A 
ATOM      4  C   UNL     1       2.026   7.286  20.132  0.00  0.00    +0.000 A 
ATOM      5  N   UNL     1       2.655   6.088  20.430  0.00  0.00    +0.000 N 
ATOM      6  C   UNL     1       3.530   5.458  19.598  0.00  0.00    +0.000 A 
ATOM      7  O   UNL     1       4.074   4.433  20.008  0.00  0.00    +0.000 OA
ATOM      8  N   UNL     1       3.750   6.038  18.355  0.00  0.00    +0.000 N 
ATOM      9  C   UNL     1       3.113   7.207  17.927  0.00  0.00    +0.000 A 
ATOM     10  O   UNL     1       3.261   7.718  16.819  0.00  0.00    +0.000 OA
ATOM     11  C   UNL     1       2.220   7.879  18.894  0.00  0.00    +0.000 A 
ATOM     12  C   UNL     1       1.627   9.115  18.603  0.00  0.00    +0.000 A 
ATOM     13  H   UNL     1       2.538   5.655  21.336  0.00  0.00    +0.000 HD
ENDROOT
BRANCH   8  14
ATOM     14  C   UNL     1       4.755   5.432  17.457  0.00  0.00    +0.000 C 
ATOM     15  C   UNL     1       4.171   4.232  16.694  0.00  0.00    +0.000 C 
ATOM     16  C   UNL     1       5.164   3.630  15.712  0.00  0.00    +0.000 C 
ATOM     17  C   UNL     1       5.678   4.690  14.733  0.00  0.00    +0.000 C 
ATOM     18  C   UNL     1       6.366   5.815  15.517  0.00  0.00    +0.000 C 
ATOM     19  C   UNL     1       5.414   6.465  16.522  0.00  0.00    +0.000 C 
BRANCH  17  20
ATOM     20  O   UNL     1       6.622   4.163  13.797  0.00  0.00    +0.000 OA
BRANCH  20  21
ATOM     21  C   UNL     1       6.097   3.295  12.784  0.00  0.00    +0.000 C 
ATOM     22  C   UNL     1       4.793   3.805  12.176  0.00  0.00    +0.000 C 
ATOM     23  C   UNL     1       7.163   3.173  11.699  0.00  0.00    +0.000 C 
ENDBRANCH  20  21
ENDBRANCH  17  20
ENDBRANCH   8  14
BRANCH   1  27
ATOM     24  C   UNL     1      -0.970  12.862  18.469  0.00  0.00    +0.000 C 
ATOM     25  C   UNL     1      -0.759  11.379  18.625  0.00  0.00    +0.000 C 
ATOM     26  O   UNL     1      -1.582  10.580  18.192  0.00  0.00    +0.000 OA
ATOM     27  N   UNL     1       0.416  11.078  19.295  0.00  0.00    +0.000 N 
ATOM     28  H   UNL     1       0.899  11.848  19.739  0.00  0.00    +0.000 HD
ENDBRANCH   1  27
TORSDOF 4
ENDMDL
MODEL 9
REMARK VINA RESULT:      -7.0      2.647      8.597
REMARK  Name = 
REMARK  7 active torsions:
REMARK  status: ('A' for Active; 'I' for Inactive)
REMARK    1  A    between atoms: C_1  and  C_2
REMARK    2  A    between atoms: N_4  and  C_5
REMARK    3  A    between atoms: N_12  and  C_13
REMARK    4  A    between atoms: C_16  and  O_17
REMARK    5  A    between atoms: O_17  and  C_18
REMARK    6  A    between atoms: C_18  and  C_19
REMARK    7  A    between atoms: C_18  and  C_20
REMARK                            x       y       z     vdW  Elec       q    Type
REMARK                         _______ _______ _______ _____ _____    ______ ____
ROOT
ATOM      1  C   UNL     1       0.873  10.724  20.016  0.00  0.00    +0.000 A 
ATOM      2  C   UNL     1       0.335  10.331  21.246  0.00  0.00    +0.000 A 
ATOM      3  C   UNL     1       0.444   9.012  21.687  0.00  0.00    +0.000 A 
ATOM      4  C   UNL     1       1.114   8.082  20.900  0.00  0.00    +0.000 A 
ATOM      5  N   UNL     1       1.304   6.794  21.373  0.00  0.00    +0.000 N 
ATOM      6  C   UNL     1       2.033   5.843  20.727  0.00  0.00    +0.000 A 
ATOM      7  O   UNL     1       2.183   4.757  21.285  0.00  0.00    +0.000 OA
ATOM      8  N   UNL     1       2.563   6.186  19.489  0.00  0.00    +0.000 N 
ATOM      9  C   UNL     1       2.371   7.435  18.888  0.00  0.00    +0.000 A 
ATOM     10  O   UNL     1       2.797   7.749  17.779  0.00  0.00    +0.000 OA
ATOM     11  C   UNL     1       1.623   8.446  19.664  0.00  0.00    +0.000 A 
ATOM     12  C   UNL     1       1.478   9.761  19.200  0.00  0.00    +0.000 A 
ATOM     13  H   UNL     1       0.955   6.521  22.283  0.00  0.00    +0.000 HD
ENDROOT
BRANCH   8  14
ATOM     14  C   UNL     1       3.429   5.212  18.793  0.00  0.00    +0.000 C 
ATOM     15  C   UNL     1       2.708   4.582  17.590  0.00  0.00    +0.000 C 
ATOM     16  C   UNL     1       3.600   3.625  16.815  0.00  0.00    +0.000 C 
ATOM     17  C   UNL     1       4.889   4.320  16.365  0.00  0.00    +0.000 C 
ATOM     18  C   UNL     1       5.649   4.828  17.597  0.00  0.00    +0.000 C 
ATOM     19  C   UNL     1       4.803   5.802  18.418  0.00  0.00    +0.000 C 
BRANCH  17  20
ATOM     20  O   UNL     1       5.759   3.448  15.639  0.00  0.00    +0.000 OA
BRANCH  20  21
ATOM     21  C   UNL     1       6.460   4.027  14.531  0.00  0.00    +0.000 C 
ATOM     22  C   UNL     1       5.971   3.515  13.179  0.00  0.00    +0.000 C 
ATOM     23  C   UNL     1       6.266   5.538  14.616  0.00  0.00    +0.000 C 
ENDBRANCH  20  21
ENDBRANCH  17  20
ENDBRANCH   8  14
BRANCH   1  27
ATOM     24  C   UNL     1       1.335  14.411  19.397  0.00  0.00    +0.000 C 
ATOM     25  C   UNL     1       1.579  13.108  20.113  0.00  0.00    +0.000 C 
ATOM     26  O   UNL     1       2.349  13.050  21.064  0.00  0.00    +0.000 OA
ATOM     27  N   UNL     1       0.859  12.059  19.563  0.00  0.00    +0.000 N 
ATOM     28  H   UNL     1       0.403  12.233  18.676  0.00  0.00    +0.000 HD
ENDBRANCH   1  27
TORSDOF 4
ENDMDL
