MODEL 1
REMARK VINA RESULT:      -8.5      0.000      0.000
REMARK  Name = 
REMARK  5 active torsions:
REMARK  status: ('A' for Active; 'I' for Inactive)
REMARK    1  A    between atoms: C_2  and  C_3
REMARK    2  A    between atoms: C_3  and  O_4
REMARK    3  A    between atoms: O_4  and  C_5
REMARK    4  A    between atoms: N_14  and  C_15
REMARK    5  A    between atoms: C_15  and  C_16
REMARK                            x       y       z     vdW  Elec       q    Type
REMARK                         _______ _______ _______ _____ _____    ______ ____
ROOT
ATOM      1  O   UNL     1       7.523   4.428  18.148  0.00  0.00    +0.000 OA
ATOM      2  C   UNL     1       6.521   4.806  17.532  0.00  0.00    +0.000 C 
ATOM      3  N   UNL     1       5.280   4.331  17.891  0.00  0.00    +0.000 N 
ATOM      4  C   UNL     1       4.016   4.864  17.422  0.00  0.00    +0.000 C 
ATOM      5  C   UNL     1       2.943   3.853  17.885  0.00  0.00    +0.000 C 
ATOM      6  C   UNL     1       1.632   4.435  18.414  0.00  0.00    +0.000 C 
ATOM      7  N   UNL     1       1.513   5.009  19.756  0.00  0.00    +0.000 NA
ATOM      8  C   UNL     1       1.444   3.966  20.791  0.00  0.00    +0.000 C 
ATOM      9  C   UNL     1       2.693   3.093  20.970  0.00  0.00    +0.000 C 
ATOM     10  O   UNL     1       2.979   2.261  19.851  0.00  0.00    +0.000 OA
ATOM     11  C   UNL     1       3.673   2.807  18.742  0.00  0.00    +0.000 C 
ATOM     12  C   UNL     1       5.064   3.396  18.979  0.00  0.00    +0.000 C 
ENDROOT
BRANCH   2  13
ATOM     13  C   UNL     1       6.673   5.854  16.407  0.00  0.00    +0.000 C 
BRANCH  13  14
ATOM     14  O   UNL     1       7.566   5.633  15.329  0.00  0.00    +0.000 OA
BRANCH  14  15
ATOM     15  C   UNL     1       7.212   4.608  14.417  0.00  0.00    +0.000 C 
ATOM     16  C   UNL     1       5.721   4.399  14.143  0.00  0.00    +0.000 C 
ATOM     17  C   UNL     1       5.725   3.541  12.876  0.00  0.00    +0.000 C 
ATOM     18  C   UNL     1       6.967   3.975  12.096  0.00  0.00    +0.000 C 
ATOM     19  C   UNL     1       7.687   4.967  13.005  0.00  0.00    +0.000 C 
ENDBRANCH  14  15
ENDBRANCH  13  14
ENDBRANCH   2  13
BRANCH   7  20
ATOM     20  C   UNL     1       2.432   6.082  20.136  0.00  0.00    +0.000 C 
BRANCH  20  21
ATOM     21  C   UNL     1       2.061   7.415  19.576  0.00  0.00    +0.000 A 
ATOM     22  C   UNL     1       2.245   7.961  18.273  0.00  0.00    +0.000 A 
ATOM     23  C   UNL     1       1.734   9.238  18.303  0.00  0.00    +0.000 A 
ATOM     24  O   UNL     1       1.218   9.511  19.527  0.00  0.00    +0.000 OA
ATOM     25  C   UNL     1       1.404   8.404  20.283  0.00  0.00    +0.000 A 
ENDBRANCH  20  21
ENDBRANCH   7  20
TORSDOF 5
ENDMDL
MODEL 2
REMARK VINA RESULT:      -8.0      0.505      1.161
REMARK  Name = 
REMARK  5 active torsions:
REMARK  status: ('A' for Active; 'I' for Inactive)
REMARK    1  A    between atoms: C_2  and  C_3
REMARK    2  A    between atoms: C_3  and  O_4
REMARK    3  A    between atoms: O_4  and  C_5
REMARK    4  A    between atoms: N_14  and  C_15
REMARK    5  A    between atoms: C_15  and  C_16
REMARK                            x       y       z     vdW  Elec       q    Type
REMARK                         _______ _______ _______ _____ _____    ______ ____
ROOT
ATOM      1  O   UNL     1       7.329   4.286  18.090  0.00  0.00    +0.000 OA
ATOM      2  C   UNL     1       6.307   4.705  17.538  0.00  0.00    +0.000 C 
ATOM      3  N   UNL     1       5.074   4.235  17.933  0.00  0.00    +0.000 N 
ATOM      4  C   UNL     1       3.800   4.806  17.545  0.00  0.00    +0.000 C 
ATOM      5  C   UNL     1       2.732   3.794  18.015  0.00  0.00    +0.000 C 
ATOM      6  C   UNL     1       1.456   4.373  18.628  0.00  0.00    +0.000 C 
ATOM      7  N   UNL     1       1.408   4.892  19.996  0.00  0.00    +0.000 NA
ATOM      8  C   UNL     1       1.369   3.808  20.989  0.00  0.00    +0.000 C 
ATOM      9  C   UNL     1       2.608   2.909  21.075  0.00  0.00    +0.000 C 
ATOM     10  O   UNL     1       2.829   2.121  19.910  0.00  0.00    +0.000 OA
ATOM     11  C   UNL     1       3.482   2.701  18.794  0.00  0.00    +0.000 C 
ATOM     12  C   UNL     1       4.892   3.258  18.991  0.00  0.00    +0.000 C 
ENDROOT
BRANCH   2  13
ATOM     13  C   UNL     1       6.425   5.796  16.451  0.00  0.00    +0.000 C 
BRANCH  13  14
ATOM     14  O   UNL     1       7.372   5.675  15.404  0.00  0.00    +0.000 OA
BRANCH  14  15
ATOM     15  C   UNL     1       6.867   5.282  14.139  0.00  0.00    +0.000 C 
ATOM     16  C   UNL     1       7.883   5.054  13.020  0.00  0.00    +0.000 C 
ATOM     17  C   UNL     1       7.071   4.288  11.973  0.00  0.00    +0.000 C 
ATOM     18  C   UNL     1       6.062   3.460  12.770  0.00  0.00    +0.000 C 
ATOM     19  C   UNL     1       6.254   3.881  14.224  0.00  0.00    +0.000 C 
ENDBRANCH  14  15
ENDBRANCH  13  14
ENDBRANCH   2  13
BRANCH   7  20
ATOM     20  C   UNL     1       2.362   5.934  20.378  0.00  0.00    +0.000 C 
BRANCH  20  21
ATOM     21  C   UNL     1       1.858   7.320  20.147  0.00  0.00    +0.000 A 
ATOM     22  C   UNL     1       1.099   8.187  20.986  0.00  0.00    +0.000 A 
ATOM     23  C   UNL     1       0.891   9.344  20.273  0.00  0.00    +0.000 A 
ATOM     24  O   UNL     1       1.493   9.268  19.061  0.00  0.00    +0.000 OA
ATOM     25  C   UNL     1       2.087   8.053  18.998  0.00  0.00    +0.000 A 
ENDBRANCH  20  21
ENDBRANCH   7  20
TORSDOF 5
ENDMDL
MODEL 3
REMARK VINA RESULT:      -7.4      3.034      4.251
REMARK  Name = 
REMARK  5 active torsions:
REMARK  status: ('A' for Active; 'I' for Inactive)
REMARK    1  A    between atoms: C_2  and  C_3
REMARK    2  A    between atoms: C_3  and  O_4
REMARK    3  A    between atoms: O_4  and  C_5
REMARK    4  A    between atoms: N_14  and  C_15
REMARK    5  A    between atoms: C_15  and  C_16
REMARK                            x       y       z     vdW  Elec       q    Type
REMARK                         _______ _______ _______ _____ _____    ______ ____
ROOT
ATOM      1  O   UNL     1       8.235   6.080  19.188  0.00  0.00    +0.000 OA
ATOM      2  C   UNL     1       7.399   6.390  18.334  0.00  0.00    +0.000 C 
ATOM      3  N   UNL     1       6.226   5.675  18.235  0.00  0.00    +0.000 N 
ATOM      4  C   UNL     1       5.072   6.071  17.453  0.00  0.00    +0.000 C 
ATOM      5  C   UNL     1       4.133   4.844  17.450  0.00  0.00    +0.000 C 
ATOM      6  C   UNL     1       2.637   5.120  17.601  0.00  0.00    +0.000 C 
ATOM      7  N   UNL     1       2.026   5.447  18.890  0.00  0.00    +0.000 NA
ATOM      8  C   UNL     1       1.870   4.254  19.737  0.00  0.00    +0.000 C 
ATOM      9  C   UNL     1       3.160   3.570  20.205  0.00  0.00    +0.000 C 
ATOM     10  O   UNL     1       3.915   2.984  19.151  0.00  0.00    +0.000 OA
ATOM     11  C   UNL     1       4.778   3.802  18.377  0.00  0.00    +0.000 C 
ATOM     12  C   UNL     1       5.896   4.556  19.098  0.00  0.00    +0.000 C 
ENDROOT
BRANCH   2  13
ATOM     13  C   UNL     1       7.658   7.614  17.429  0.00  0.00    +0.000 C 
BRANCH  13  14
ATOM     14  O   UNL     1       7.450   8.929  17.915  0.00  0.00    +0.000 OA
BRANCH  14  15
ATOM     15  C   UNL     1       8.582   9.782  17.929  0.00  0.00    +0.000 C 
ATOM     16  C   UNL     1       8.336  11.274  17.700  0.00  0.00    +0.000 C 
ATOM     17  C   UNL     1       9.649  11.911  18.163  0.00  0.00    +0.000 C 
ATOM     18  C   UNL     1      10.161  11.009  19.288  0.00  0.00    +0.000 C 
ATOM     19  C   UNL     1       9.191   9.832  19.334  0.00  0.00    +0.000 C 
ENDBRANCH  14  15
ENDBRANCH  13  14
ENDBRANCH   2  13
BRANCH   7  20
ATOM     20  C   UNL     1       2.565   6.576  19.649  0.00  0.00    +0.000 C 
BRANCH  20  21
ATOM     21  C   UNL     1       2.069   7.904  19.179  0.00  0.00    +0.000 A 
ATOM     22  C   UNL     1       2.216   8.562  17.924  0.00  0.00    +0.000 A 
ATOM     23  C   UNL     1       1.579   9.775  18.036  0.00  0.00    +0.000 A 
ATOM     24  O   UNL     1       1.022   9.904  19.265  0.00  0.00    +0.000 OA
ATOM     25  C   UNL     1       1.307   8.767  19.942  0.00  0.00    +0.000 A 
ENDBRANCH  20  21
ENDBRANCH   7  20
TORSDOF 5
ENDMDL
MODEL 4
REMARK VINA RESULT:      -7.3      1.210      1.486
REMARK  Name = 
REMARK  5 active torsions:
REMARK  status: ('A' for Active; 'I' for Inactive)
REMARK    1  A    between atoms: C_2  and  C_3
REMARK    2  A    between atoms: C_3  and  O_4
REMARK    3  A    between atoms: O_4  and  C_5
REMARK    4  A    between atoms: N_14  and  C_15
REMARK    5  A    between atoms: C_15  and  C_16
REMARK                            x       y       z     vdW  Elec       q    Type
REMARK                         _______ _______ _______ _____ _____    ______ ____
ROOT
ATOM      1  O   UNL     1       7.773   4.398  16.641  0.00  0.00    +0.000 OA
ATOM      2  C   UNL     1       6.670   4.545  16.106  0.00  0.00    +0.000 C 
ATOM      3  N   UNL     1       5.526   4.207  16.793  0.00  0.00    +0.000 N 
ATOM      4  C   UNL     1       4.177   4.547  16.385  0.00  0.00    +0.000 C 
ATOM      5  C   UNL     1       3.247   3.739  17.318  0.00  0.00    +0.000 C 
ATOM      6  C   UNL     1       1.997   4.454  17.832  0.00  0.00    +0.000 C 
ATOM      7  N   UNL     1       2.046   5.439  18.914  0.00  0.00    +0.000 NA
ATOM      8  C   UNL     1       2.194   4.796  20.230  0.00  0.00    +0.000 C 
ATOM      9  C   UNL     1       3.505   4.039  20.481  0.00  0.00    +0.000 C 
ATOM     10  O   UNL     1       3.669   2.887  19.662  0.00  0.00    +0.000 OA
ATOM     11  C   UNL     1       4.157   3.039  18.340  0.00  0.00    +0.000 C 
ATOM     12  C   UNL     1       5.531   3.683  18.146  0.00  0.00    +0.000 C 
ENDROOT
BRANCH   2  13
ATOM     13  C   UNL     1       6.590   5.163  14.692  0.00  0.00    +0.000 C 
BRANCH  13  14
ATOM     14  O   UNL     1       7.029   4.435  13.559  0.00  0.00    +0.000 OA
BRANCH  14  15
ATOM     15  C   UNL     1       6.118   3.490  13.024  0.00  0.00    +0.000 C 
ATOM     16  C   UNL     1       4.932   4.036  12.226  0.00  0.00    +0.000 C 
ATOM     17  C   UNL     1       4.415   2.795  11.494  0.00  0.00    +0.000 C 
ATOM     18  C   UNL     1       5.651   1.933  11.234  0.00  0.00    +0.000 C 
ATOM     19  C   UNL     1       6.799   2.653  11.937  0.00  0.00    +0.000 C 
ENDBRANCH  14  15
ENDBRANCH  13  14
ENDBRANCH   2  13
BRANCH   7  20
ATOM     20  C   UNL     1       2.947   6.583  18.773  0.00  0.00    +0.000 C 
BRANCH  20  21
ATOM     21  C   UNL     1       2.244   7.901  18.769  0.00  0.00    +0.000 A 
ATOM     22  C   UNL     1       2.066   8.857  17.728  0.00  0.00    +0.000 A 
ATOM     23  C   UNL     1       1.357   9.904  18.270  0.00  0.00    +0.000 A 
ATOM     24  O   UNL     1       1.056   9.649  19.567  0.00  0.00    +0.000 OA
ATOM     25  C   UNL     1       1.580   8.435  19.856  0.00  0.00    +0.000 A 
ENDBRANCH  20  21
ENDBRANCH   7  20
TORSDOF 5
ENDMDL
MODEL 5
REMARK VINA RESULT:      -7.1      1.120      1.305
REMARK  Name = 
REMARK  5 active torsions:
REMARK  status: ('A' for Active; 'I' for Inactive)
REMARK    1  A    between atoms: C_2  and  C_3
REMARK    2  A    between atoms: C_3  and  O_4
REMARK    3  A    between atoms: O_4  and  C_5
REMARK    4  A    between atoms: N_14  and  C_15
REMARK    5  A    between atoms: C_15  and  C_16
REMARK                            x       y       z     vdW  Elec       q    Type
REMARK                         _______ _______ _______ _____ _____    ______ ____
ROOT
ATOM      1  O   UNL     1       7.509   4.887  19.181  0.00  0.00    +0.000 OA
ATOM      2  C   UNL     1       6.555   5.303  18.515  0.00  0.00    +0.000 C 
ATOM      3  N   UNL     1       5.324   4.697  18.631  0.00  0.00    +0.000 N 
ATOM      4  C   UNL     1       4.083   5.224  18.101  0.00  0.00    +0.000 C 
ATOM      5  C   UNL     1       3.052   4.083  18.253  0.00  0.00    +0.000 C 
ATOM      6  C   UNL     1       1.645   4.481  18.701  0.00  0.00    +0.000 C 
ATOM      7  N   UNL     1       1.327   4.805  20.093  0.00  0.00    +0.000 NA
ATOM      8  C   UNL     1       1.228   3.595  20.925  0.00  0.00    +0.000 C 
ATOM      9  C   UNL     1       2.516   2.784  21.113  0.00  0.00    +0.000 C 
ATOM     10  O   UNL     1       2.995   2.179  19.917  0.00  0.00    +0.000 OA
ATOM     11  C   UNL     1       3.764   2.951  19.010  0.00  0.00    +0.000 C 
ATOM     12  C   UNL     1       5.065   3.575  19.515  0.00  0.00    +0.000 C 
ENDROOT
BRANCH   2  13
ATOM     13  C   UNL     1       6.747   6.538  17.607  0.00  0.00    +0.000 C 
BRANCH  13  14
ATOM     14  O   UNL     1       7.544   6.460  16.438  0.00  0.00    +0.000 OA
BRANCH  14  15
ATOM     15  C   UNL     1       7.043   5.653  15.386  0.00  0.00    +0.000 C 
ATOM     16  C   UNL     1       7.066   4.138  15.594  0.00  0.00    +0.000 C 
ATOM     17  C   UNL     1       6.128   3.629  14.496  0.00  0.00    +0.000 C 
ATOM     18  C   UNL     1       5.081   4.730  14.316  0.00  0.00    +0.000 C 
ATOM     19  C   UNL     1       5.535   5.870  15.223  0.00  0.00    +0.000 C 
ENDBRANCH  14  15
ENDBRANCH  13  14
ENDBRANCH   2  13
BRANCH   7  20
ATOM     20  C   UNL     1       2.105   5.850  20.758  0.00  0.00    +0.000 C 
BRANCH  20  21
ATOM     21  C   UNL     1       1.719   7.234  20.352  0.00  0.00    +0.000 A 
ATOM     22  C   UNL     1       1.969   7.955  19.148  0.00  0.00    +0.000 A 
ATOM     23  C   UNL     1       1.406   9.199  19.308  0.00  0.00    +0.000 A 
ATOM     24  O   UNL     1       0.798   9.291  20.517  0.00  0.00    +0.000 OA
ATOM     25  C   UNL     1       0.977   8.099  21.133  0.00  0.00    +0.000 A 
ENDBRANCH  20  21
ENDBRANCH   7  20
TORSDOF 5
ENDMDL
MODEL 6
REMARK VINA RESULT:      -7.0      1.362      1.902
REMARK  Name = 
REMARK  5 active torsions:
REMARK  status: ('A' for Active; 'I' for Inactive)
REMARK    1  A    between atoms: C_2  and  C_3
REMARK    2  A    between atoms: C_3  and  O_4
REMARK    3  A    between atoms: O_4  and  C_5
REMARK    4  A    between atoms: N_14  and  C_15
REMARK    5  A    between atoms: C_15  and  C_16
REMARK                            x       y       z     vdW  Elec       q    Type
REMARK                         _______ _______ _______ _____ _____    ______ ____
ROOT
ATOM      1  O   UNL     1       7.845   4.594  16.507  0.00  0.00    +0.000 OA
ATOM      2  C   UNL     1       6.740   4.537  15.958  0.00  0.00    +0.000 C 
ATOM      3  N   UNL     1       5.622   4.227  16.700  0.00  0.00    +0.000 N 
ATOM      4  C   UNL     1       4.254   4.360  16.241  0.00  0.00    +0.000 C 
ATOM      5  C   UNL     1       3.389   3.655  17.309  0.00  0.00    +0.000 C 
ATOM      6  C   UNL     1       2.072   4.334  17.688  0.00  0.00    +0.000 C 
ATOM      7  N   UNL     1       2.016   5.500  18.570  0.00  0.00    +0.000 NA
ATOM      8  C   UNL     1       2.205   5.125  19.981  0.00  0.00    +0.000 C 
ATOM      9  C   UNL     1       3.575   4.552  20.362  0.00  0.00    +0.000 C 
ATOM     10  O   UNL     1       3.855   3.289  19.768  0.00  0.00    +0.000 OA
ATOM     11  C   UNL     1       4.345   3.241  18.439  0.00  0.00    +0.000 C 
ATOM     12  C   UNL     1       5.657   3.963  18.126  0.00  0.00    +0.000 C 
ENDROOT
BRANCH   2  13
ATOM     13  C   UNL     1       6.623   4.876  14.455  0.00  0.00    +0.000 C 
BRANCH  13  14
ATOM     14  O   UNL     1       7.251   4.063  13.479  0.00  0.00    +0.000 OA
BRANCH  14  15
ATOM     15  C   UNL     1       6.464   3.702  12.357  0.00  0.00    +0.000 C 
ATOM     16  C   UNL     1       6.420   2.220  11.981  0.00  0.00    +0.000 C 
ATOM     17  C   UNL     1       5.221   2.145  11.033  0.00  0.00    +0.000 C 
ATOM     18  C   UNL     1       4.246   3.215  11.528  0.00  0.00    +0.000 C 
ATOM     19  C   UNL     1       4.979   3.939  12.653  0.00  0.00    +0.000 C 
ENDBRANCH  14  15
ENDBRANCH  13  14
ENDBRANCH   2  13
BRANCH   7  20
ATOM     20  C   UNL     1       2.810   6.677  18.218  0.00  0.00    +0.000 C 
BRANCH  20  21
ATOM     21  C   UNL     1       2.150   7.970  18.566  0.00  0.00    +0.000 A 
ATOM     22  C   UNL     1       1.519   8.400  19.769  0.00  0.00    +0.000 A 
ATOM     23  C   UNL     1       1.060   9.676  19.541  0.00  0.00    +0.000 A 
ATOM     24  O   UNL     1       1.388  10.080  18.289  0.00  0.00    +0.000 OA
ATOM     25  C   UNL     1       2.058   9.054  17.713  0.00  0.00    +0.000 A 
ENDBRANCH  20  21
ENDBRANCH   7  20
TORSDOF 5
ENDMDL
MODEL 7
REMARK VINA RESULT:      -6.9      3.275      4.528
REMARK  Name = 
REMARK  5 active torsions:
REMARK  status: ('A' for Active; 'I' for Inactive)
REMARK    1  A    between atoms: C_2  and  C_3
REMARK    2  A    between atoms: C_3  and  O_4
REMARK    3  A    between atoms: O_4  and  C_5
REMARK    4  A    between atoms: N_14  and  C_15
REMARK    5  A    between atoms: C_15  and  C_16
REMARK                            x       y       z     vdW  Elec       q    Type
REMARK                         _______ _______ _______ _____ _____    ______ ____
ROOT
ATOM      1  O   UNL     1       8.315   6.498  18.982  0.00  0.00    +0.000 OA
ATOM      2  C   UNL     1       7.391   6.836  18.235  0.00  0.00    +0.000 C 
ATOM      3  N   UNL     1       6.287   6.024  18.103  0.00  0.00    +0.000 N 
ATOM      4  C   UNL     1       5.044   6.403  17.460  0.00  0.00    +0.000 C 
ATOM      5  C   UNL     1       4.229   5.097  17.332  0.00  0.00    +0.000 C 
ATOM      6  C   UNL     1       2.729   5.191  17.613  0.00  0.00    +0.000 C 
ATOM      7  N   UNL     1       2.188   5.267  18.972  0.00  0.00    +0.000 NA
ATOM      8  C   UNL     1       2.211   3.956  19.641  0.00  0.00    +0.000 C 
ATOM      9  C   UNL     1       3.592   3.352  19.923  0.00  0.00    +0.000 C 
ATOM     10  O   UNL     1       4.317   3.003  18.749  0.00  0.00    +0.000 OA
ATOM     11  C   UNL     1       5.037   4.007  18.054  0.00  0.00    +0.000 C 
ATOM     12  C   UNL     1       6.130   4.766  18.809  0.00  0.00    +0.000 C 
ENDROOT
BRANCH   2  13
ATOM     13  C   UNL     1       7.463   8.197  17.507  0.00  0.00    +0.000 C 
BRANCH  13  14
ATOM     14  O   UNL     1       8.618   9.011  17.610  0.00  0.00    +0.000 OA
BRANCH  14  15
ATOM     15  C   UNL     1       8.537  10.110  18.502  0.00  0.00    +0.000 C 
ATOM     16  C   UNL     1       9.456  10.087  19.725  0.00  0.00    +0.000 C 
ATOM     17  C   UNL     1       9.402  11.534  20.219  0.00  0.00    +0.000 C 
ATOM     18  C   UNL     1       9.215  12.384  18.961  0.00  0.00    +0.000 C 
ATOM     19  C   UNL     1       9.043  11.385  17.820  0.00  0.00    +0.000 C 
ENDBRANCH  14  15
ENDBRANCH  13  14
ENDBRANCH   2  13
BRANCH   7  20
ATOM     20  C   UNL     1       2.673   6.327  19.855  0.00  0.00    +0.000 C 
BRANCH  20  21
ATOM     21  C   UNL     1       2.055   7.659  19.586  0.00  0.00    +0.000 A 
ATOM     22  C   UNL     1       2.021   8.448  18.400  0.00  0.00    +0.000 A 
ATOM     23  C   UNL     1       1.334   9.599  18.710  0.00  0.00    +0.000 A 
ATOM     24  O   UNL     1       0.914   9.566  19.998  0.00  0.00    +0.000 OA
ATOM     25  C   UNL     1       1.338   8.389  20.515  0.00  0.00    +0.000 A 
ENDBRANCH  20  21
ENDBRANCH   7  20
TORSDOF 5
ENDMDL
MODEL 8
REMARK VINA RESULT:      -6.8      3.560      4.865
REMARK  Name = 
REMARK  5 active torsions:
REMARK  status: ('A' for Active; 'I' for Inactive)
REMARK    1  A    between atoms: C_2  and  C_3
REMARK    2  A    between atoms: C_3  and  O_4
REMARK    3  A    between atoms: O_4  and  C_5
REMARK    4  A    between atoms: N_14  and  C_15
REMARK    5  A    between atoms: C_15  and  C_16
REMARK                            x       y       z     vdW  Elec       q    Type
REMARK                         _______ _______ _______ _____ _____    ______ ____
ROOT
ATOM      1  O   UNL     1       8.569   6.937  19.147  0.00  0.00    +0.000 OA
ATOM      2  C   UNL     1       7.724   7.207  18.288  0.00  0.00    +0.000 C 
ATOM      3  N   UNL     1       6.658   6.358  18.087  0.00  0.00    +0.000 N 
ATOM      4  C   UNL     1       5.485   6.666  17.294  0.00  0.00    +0.000 C 
ATOM      5  C   UNL     1       4.716   5.333  17.158  0.00  0.00    +0.000 C 
ATOM      6  C   UNL     1       3.193   5.401  17.271  0.00  0.00    +0.000 C 
ATOM      7  N   UNL     1       2.507   5.537  18.558  0.00  0.00    +0.000 NA
ATOM      8  C   UNL     1       2.486   4.267  19.301  0.00  0.00    +0.000 C 
ATOM      9  C   UNL     1       3.841   3.719  19.763  0.00  0.00    +0.000 C 
ATOM     10  O   UNL     1       4.697   3.325  18.696  0.00  0.00    +0.000 OA
ATOM     11  C   UNL     1       5.466   4.308  18.024  0.00  0.00    +0.000 C 
ATOM     12  C   UNL     1       6.454   5.138  18.845  0.00  0.00    +0.000 C 
ENDROOT
BRANCH   2  13
ATOM     13  C   UNL     1       7.845   8.526  17.493  0.00  0.00    +0.000 C 
BRANCH  13  14
ATOM     14  O   UNL     1       7.970   9.767  18.166  0.00  0.00    +0.000 OA
BRANCH  14  15
ATOM     15  C   UNL     1       9.285  10.166  18.514  0.00  0.00    +0.000 C 
ATOM     16  C   UNL     1       9.862  11.382  17.788  0.00  0.00    +0.000 C 
ATOM     17  C   UNL     1      11.067  11.756  18.654  0.00  0.00    +0.000 C 
ATOM     18  C   UNL     1      10.673  11.373  20.082  0.00  0.00    +0.000 C 
ATOM     19  C   UNL     1       9.318  10.683  19.956  0.00  0.00    +0.000 C 
ENDBRANCH  14  15
ENDBRANCH  13  14
ENDBRANCH   2  13
BRANCH   7  20
ATOM     20  C   UNL     1       2.872   6.659  19.424  0.00  0.00    +0.000 C 
BRANCH  20  21
ATOM     21  C   UNL     1       2.131   7.918  19.116  0.00  0.00    +0.000 A 
ATOM     22  C   UNL     1       1.306   8.738  19.938  0.00  0.00    +0.000 A 
ATOM     23  C   UNL     1       0.857   9.769  19.145  0.00  0.00    +0.000 A 
ATOM     24  O   UNL     1       1.370   9.661  17.895  0.00  0.00    +0.000 OA
ATOM     25  C   UNL     1       2.149   8.554  17.889  0.00  0.00    +0.000 A 
ENDBRANCH  20  21
ENDBRANCH   7  20
TORSDOF 5
ENDMDL
MODEL 9
REMARK VINA RESULT:      -6.7      8.473     11.936
REMARK  Name = 
REMARK  5 active torsions:
REMARK  status: ('A' for Active; 'I' for Inactive)
REMARK    1  A    between atoms: C_2  and  C_3
REMARK    2  A    between atoms: C_3  and  O_4
REMARK    3  A    between atoms: O_4  and  C_5
REMARK    4  A    between atoms: N_14  and  C_15
REMARK    5  A    between atoms: C_15  and  C_16
REMARK                            x       y       z     vdW  Elec       q    Type
REMARK                         _______ _______ _______ _____ _____    ______ ____
ROOT
ATOM      1  O   UNL     1      -3.813  11.905  23.978  0.00  0.00    +0.000 OA
ATOM      2  C   UNL     1      -3.869  12.556  22.930  0.00  0.00    +0.000 C 
ATOM      3  N   UNL     1      -2.726  12.765  22.192  0.00  0.00    +0.000 N 
ATOM      4  C   UNL     1      -2.688  13.294  20.843  0.00  0.00    +0.000 C 
ATOM      5  C   UNL     1      -1.199  13.585  20.554  0.00  0.00    +0.000 C 
ATOM      6  C   UNL     1      -0.687  13.234  19.156  0.00  0.00    +0.000 C 
ATOM      7  N   UNL     1      -0.384  11.860  18.754  0.00  0.00    +0.000 NA
ATOM      8  C   UNL     1       0.895  11.398  19.316  0.00  0.00    +0.000 C 
ATOM      9  C   UNL     1       0.967  11.265  20.842  0.00  0.00    +0.000 C 
ATOM     10  O   UNL     1       0.869  12.505  21.533  0.00  0.00    +0.000 OA
ATOM     11  C   UNL     1      -0.411  13.068  21.768  0.00  0.00    +0.000 C 
ATOM     12  C   UNL     1      -1.423  12.251  22.573  0.00  0.00    +0.000 C 
ENDROOT
BRANCH   2  13
ATOM     13  C   UNL     1      -5.237  13.072  22.432  0.00  0.00    +0.000 C 
BRANCH  13  14
ATOM     14  O   UNL     1      -6.207  12.174  21.921  0.00  0.00    +0.000 OA
BRANCH  14  15
ATOM     15  C   UNL     1      -6.164  11.925  20.526  0.00  0.00    +0.000 C 
ATOM     16  C   UNL     1      -6.949  10.721  20.005  0.00  0.00    +0.000 C 
ATOM     17  C   UNL     1      -7.010  10.980  18.498  0.00  0.00    +0.000 C 
ATOM     18  C   UNL     1      -7.046  12.502  18.350  0.00  0.00    +0.000 C 
ATOM     19  C   UNL     1      -6.875  13.048  19.765  0.00  0.00    +0.000 C 
ENDBRANCH  14  15
ENDBRANCH  13  14
ENDBRANCH   2  13
BRANCH   7  20
ATOM     20  C   UNL     1      -1.429  10.846  18.897  0.00  0.00    +0.000 C 
BRANCH  20  21
ATOM     21  C   UNL     1      -2.334  10.749  17.714  0.00  0.00    +0.000 A 
ATOM     22  C   UNL     1      -2.236   9.964  16.529  0.00  0.00    +0.000 A 
ATOM     23  C   UNL     1      -3.332  10.274  15.758  0.00  0.00    +0.000 A 
ATOM     24  O   UNL     1      -4.119  11.175  16.395  0.00  0.00    +0.000 OA
ATOM     25  C   UNL     1      -3.521  11.444  17.579  0.00  0.00    +0.000 A 
ENDBRANCH  20  21
ENDBRANCH   7  20
TORSDOF 5
ENDMDL
