MODEL 1
REMARK VINA RESULT:      -6.9      0.000      0.000
REMARK  Name = 
REMARK  7 active torsions:
REMARK  status: ('A' for Active; 'I' for Inactive)
REMARK    1  A    between atoms: C_1  and  C_2
REMARK    2  A    between atoms: C_2  and  C_3
REMARK    3  A    between atoms: C_3  and  O_4
REMARK    4  A    between atoms: C_3  and  C_12
REMARK    5  A    between atoms: O_4  and  C_5
REMARK    6  A    between atoms: C_10  and  C_11
REMARK    7  A    between atoms: N_14  and  N_15
REMARK                            x       y       z     vdW  Elec       q    Type
REMARK                         _______ _______ _______ _____ _____    ______ ____
ROOT
ATOM      1  C   UNL     1       2.720   5.177  18.819  0.00  0.00    +0.000 C 
ENDROOT
BRANCH   1   2
ATOM      2  C   UNL     1       4.122   4.561  18.990  0.00  0.00    +0.000 C 
ATOM      3  O   UNL     1       4.323   3.474  19.520  0.00  0.00    +0.000 OA
ATOM      4  N   UNL     1       5.089   5.321  18.330  0.00  0.00    +0.000 N 
ATOM      5  H   UNL     1       4.842   6.305  18.226  0.00  0.00    +0.000 HD
BRANCH   4   6
ATOM      6  N   UNL     1       6.464   4.960  18.353  0.00  0.00    +0.000 NA
ATOM      7  C   UNL     1       7.308   6.148  18.621  0.00  0.00    +0.000 C 
ATOM      8  C   UNL     1       7.303   7.152  17.455  0.00  0.00    +0.000 C 
ATOM      9  O   UNL     1       7.722   6.541  16.230  0.00  0.00    +0.000 OA
ATOM     10  C   UNL     1       6.897   5.410  15.918  0.00  0.00    +0.000 C 
ATOM     11  C   UNL     1       6.909   4.383  17.058  0.00  0.00    +0.000 C 
ENDBRANCH   4   6
ENDBRANCH   1   2
BRANCH   1  13
ATOM     12  C   UNL     1       1.092   4.230  20.553  0.00  0.00    +0.000 C 
ATOM     13  C   UNL     1       1.604   4.169  19.117  0.00  0.00    +0.000 C 
ENDBRANCH   1  13
BRANCH   1  14
ATOM     14  O   UNL     1       2.636   6.296  19.725  0.00  0.00    +0.000 OA
BRANCH  14  15
ATOM     15  C   UNL     1       2.228   7.515  19.254  0.00  0.00    +0.000 A 
ATOM     16  C   UNL     1       2.555   8.042  18.002  0.00  0.00    +0.000 A 
ATOM     17  C   UNL     1       2.069   9.290  17.601  0.00  0.00    +0.000 A 
ATOM     18  C   UNL     1       1.248  10.028  18.448  0.00  0.00    +0.000 A 
ATOM     19  C   UNL     1       0.952   9.536  19.715  0.00  0.00    +0.000 A 
ATOM     20  C   UNL     1       1.460   8.297  20.141  0.00  0.00    +0.000 A 
ATOM     21  C   UNL     1       1.162   7.831  21.541  0.00  0.00    +0.000 C 
ENDBRANCH  14  15
ENDBRANCH   1  14
TORSDOF 5
ENDMDL
MODEL 2
REMARK VINA RESULT:      -6.7      0.681      1.659
REMARK  Name = 
REMARK  7 active torsions:
REMARK  status: ('A' for Active; 'I' for Inactive)
REMARK    1  A    between atoms: C_1  and  C_2
REMARK    2  A    between atoms: C_2  and  C_3
REMARK    3  A    between atoms: C_3  and  O_4
REMARK    4  A    between atoms: C_3  and  C_12
REMARK    5  A    between atoms: O_4  and  C_5
REMARK    6  A    between atoms: C_10  and  C_11
REMARK    7  A    between atoms: N_14  and  N_15
REMARK                            x       y       z     vdW  Elec       q    Type
REMARK                         _______ _______ _______ _____ _____    ______ ____
ROOT
ATOM      1  C   UNL     1       2.894   5.142  19.584  0.00  0.00    +0.000 C 
ENDROOT
BRANCH   1   2
ATOM      2  C   UNL     1       4.183   4.343  19.316  0.00  0.00    +0.000 C 
ATOM      3  O   UNL     1       4.238   3.118  19.338  0.00  0.00    +0.000 OA
ATOM      4  N   UNL     1       5.216   5.182  18.894  0.00  0.00    +0.000 N 
ATOM      5  H   UNL     1       5.128   6.143  19.223  0.00  0.00    +0.000 HD
BRANCH   4   6
ATOM      6  N   UNL     1       6.511   4.677  18.595  0.00  0.00    +0.000 NA
ATOM      7  C   UNL     1       7.547   5.687  18.914  0.00  0.00    +0.000 C 
ATOM      8  C   UNL     1       7.498   6.902  17.972  0.00  0.00    +0.000 C 
ATOM      9  O   UNL     1       7.623   6.513  16.599  0.00  0.00    +0.000 OA
ATOM     10  C   UNL     1       6.606   5.565  16.246  0.00  0.00    +0.000 C 
ATOM     11  C   UNL     1       6.656   4.332  17.158  0.00  0.00    +0.000 C 
ENDBRANCH   4   6
ENDBRANCH   1   2
BRANCH   1  13
ATOM     12  C   UNL     1       0.880   3.746  20.327  0.00  0.00    +0.000 C 
ATOM     13  C   UNL     1       2.091   4.569  20.758  0.00  0.00    +0.000 C 
ENDBRANCH   1  13
BRANCH   1  14
ATOM     14  O   UNL     1       3.288   6.500  19.866  0.00  0.00    +0.000 OA
BRANCH  14  15
ATOM     15  C   UNL     1       2.378   7.511  19.715  0.00  0.00    +0.000 A 
ATOM     16  C   UNL     1       1.496   7.951  20.706  0.00  0.00    +0.000 A 
ATOM     17  C   UNL     1       0.619   9.011  20.463  0.00  0.00    +0.000 A 
ATOM     18  C   UNL     1       0.611   9.647  19.225  0.00  0.00    +0.000 A 
ATOM     19  C   UNL     1       1.452   9.191  18.216  0.00  0.00    +0.000 A 
ATOM     20  C   UNL     1       2.317   8.106  18.438  0.00  0.00    +0.000 A 
ATOM     21  C   UNL     1       3.167   7.607  17.299  0.00  0.00    +0.000 C 
ENDBRANCH  14  15
ENDBRANCH   1  14
TORSDOF 5
ENDMDL
MODEL 3
REMARK VINA RESULT:      -6.6      1.438      2.407
REMARK  Name = 
REMARK  7 active torsions:
REMARK  status: ('A' for Active; 'I' for Inactive)
REMARK    1  A    between atoms: C_1  and  C_2
REMARK    2  A    between atoms: C_2  and  C_3
REMARK    3  A    between atoms: C_3  and  O_4
REMARK    4  A    between atoms: C_3  and  C_12
REMARK    5  A    between atoms: O_4  and  C_5
REMARK    6  A    between atoms: C_10  and  C_11
REMARK    7  A    between atoms: N_14  and  N_15
REMARK                            x       y       z     vdW  Elec       q    Type
REMARK                         _______ _______ _______ _____ _____    ______ ____
ROOT
ATOM      1  C   UNL     1       1.975   5.570  19.649  0.00  0.00    +0.000 C 
ENDROOT
BRANCH   1   2
ATOM      2  C   UNL     1       2.505   5.044  18.302  0.00  0.00    +0.000 C 
ATOM      3  O   UNL     1       1.837   4.363  17.531  0.00  0.00    +0.000 OA
ATOM      4  N   UNL     1       3.764   5.574  18.016  0.00  0.00    +0.000 N 
ATOM      5  H   UNL     1       4.299   5.839  18.843  0.00  0.00    +0.000 HD
BRANCH   4   6
ATOM      6  N   UNL     1       4.466   5.227  16.829  0.00  0.00    +0.000 NA
ATOM      7  C   UNL     1       5.493   4.198  17.117  0.00  0.00    +0.000 C 
ATOM      8  C   UNL     1       6.649   4.739  17.975  0.00  0.00    +0.000 C 
ATOM      9  O   UNL     1       7.274   5.875  17.366  0.00  0.00    +0.000 OA
ATOM     10  C   UNL     1       6.313   6.909  17.113  0.00  0.00    +0.000 C 
ATOM     11  C   UNL     1       5.165   6.396  16.234  0.00  0.00    +0.000 C 
ENDBRANCH   4   6
ENDBRANCH   1   2
BRANCH   1  13
ATOM     12  C   UNL     1       1.419   3.459  20.986  0.00  0.00    +0.000 C 
ATOM     13  C   UNL     1       2.353   4.654  20.819  0.00  0.00    +0.000 C 
ENDBRANCH   1  13
BRANCH   1  14
ATOM     14  O   UNL     1       2.540   6.883  19.843  0.00  0.00    +0.000 OA
BRANCH  14  15
ATOM     15  C   UNL     1       1.714   7.937  20.128  0.00  0.00    +0.000 A 
ATOM     16  C   UNL     1       1.005   8.101  21.322  0.00  0.00    +0.000 A 
ATOM     17  C   UNL     1       0.204   9.227  21.529  0.00  0.00    +0.000 A 
ATOM     18  C   UNL     1       0.101  10.206  20.546  0.00  0.00    +0.000 A 
ATOM     19  C   UNL     1       0.764  10.034  19.336  0.00  0.00    +0.000 A 
ATOM     20  C   UNL     1       1.548   8.891  19.103  0.00  0.00    +0.000 A 
ATOM     21  C   UNL     1       2.201   8.718  17.757  0.00  0.00    +0.000 C 
ENDBRANCH  14  15
ENDBRANCH   1  14
TORSDOF 5
ENDMDL
MODEL 4
REMARK VINA RESULT:      -6.6      1.625      4.390
REMARK  Name = 
REMARK  7 active torsions:
REMARK  status: ('A' for Active; 'I' for Inactive)
REMARK    1  A    between atoms: C_1  and  C_2
REMARK    2  A    between atoms: C_2  and  C_3
REMARK    3  A    between atoms: C_3  and  O_4
REMARK    4  A    between atoms: C_3  and  C_12
REMARK    5  A    between atoms: O_4  and  C_5
REMARK    6  A    between atoms: C_10  and  C_11
REMARK    7  A    between atoms: N_14  and  N_15
REMARK                            x       y       z     vdW  Elec       q    Type
REMARK                         _______ _______ _______ _____ _____    ______ ____
ROOT
ATOM      1  C   UNL     1       2.676   6.899  18.879  0.00  0.00    +0.000 C 
ENDROOT
BRANCH   1   2
ATOM      2  C   UNL     1       3.584   7.325  17.711  0.00  0.00    +0.000 C 
ATOM      3  O   UNL     1       3.347   8.284  16.984  0.00  0.00    +0.000 OA
ATOM      4  N   UNL     1       4.767   6.585  17.697  0.00  0.00    +0.000 N 
ATOM      5  H   UNL     1       4.683   5.662  18.124  0.00  0.00    +0.000 HD
BRANCH   4   6
ATOM      6  N   UNL     1       5.762   6.789  16.702  0.00  0.00    +0.000 NA
ATOM      7  C   UNL     1       5.853   5.608  15.810  0.00  0.00    +0.000 C 
ATOM      8  C   UNL     1       6.423   4.370  16.523  0.00  0.00    +0.000 C 
ATOM      9  O   UNL     1       7.710   4.633  17.093  0.00  0.00    +0.000 OA
ATOM     10  C   UNL     1       7.648   5.746  17.996  0.00  0.00    +0.000 C 
ATOM     11  C   UNL     1       7.108   6.999  17.296  0.00  0.00    +0.000 C 
ENDBRANCH   4   6
ENDBRANCH   1   2
BRANCH   1  13
ATOM     12  C   UNL     1       1.508   8.019  20.864  0.00  0.00    +0.000 C 
ATOM     13  C   UNL     1       1.776   8.043  19.361  0.00  0.00    +0.000 C 
ENDBRANCH   1  13
BRANCH   1  14
ATOM     14  O   UNL     1       1.873   5.797  18.411  0.00  0.00    +0.000 OA
BRANCH  14  15
ATOM     15  C   UNL     1       1.814   4.644  19.148  0.00  0.00    +0.000 A 
ATOM     16  C   UNL     1       1.399   4.563  20.480  0.00  0.00    +0.000 A 
ATOM     17  C   UNL     1       1.350   3.333  21.140  0.00  0.00    +0.000 A 
ATOM     18  C   UNL     1       1.716   2.165  20.478  0.00  0.00    +0.000 A 
ATOM     19  C   UNL     1       2.174   2.236  19.167  0.00  0.00    +0.000 A 
ATOM     20  C   UNL     1       2.257   3.471  18.501  0.00  0.00    +0.000 A 
ATOM     21  C   UNL     1       2.814   3.509  17.103  0.00  0.00    +0.000 C 
ENDBRANCH  14  15
ENDBRANCH   1  14
TORSDOF 5
ENDMDL
MODEL 5
REMARK VINA RESULT:      -6.6      2.091      5.402
REMARK  Name = 
REMARK  7 active torsions:
REMARK  status: ('A' for Active; 'I' for Inactive)
REMARK    1  A    between atoms: C_1  and  C_2
REMARK    2  A    between atoms: C_2  and  C_3
REMARK    3  A    between atoms: C_3  and  O_4
REMARK    4  A    between atoms: C_3  and  C_12
REMARK    5  A    between atoms: O_4  and  C_5
REMARK    6  A    between atoms: C_10  and  C_11
REMARK    7  A    between atoms: N_14  and  N_15
REMARK                            x       y       z     vdW  Elec       q    Type
REMARK                         _______ _______ _______ _____ _____    ______ ____
ROOT
ATOM      1  C   UNL     1       3.230   7.193  17.835  0.00  0.00    +0.000 C 
ENDROOT
BRANCH   1   2
ATOM      2  C   UNL     1       2.674   6.294  18.957  0.00  0.00    +0.000 C 
ATOM      3  O   UNL     1       2.314   6.719  20.049  0.00  0.00    +0.000 OA
ATOM      4  N   UNL     1       2.492   4.985  18.508  0.00  0.00    +0.000 N 
ATOM      5  H   UNL     1       3.106   4.723  17.737  0.00  0.00    +0.000 HD
BRANCH   4   6
ATOM      6  N   UNL     1       1.998   3.965  19.367  0.00  0.00    +0.000 NA
ATOM      7  C   UNL     1       3.099   3.395  20.179  0.00  0.00    +0.000 C 
ATOM      8  C   UNL     1       4.100   2.587  19.335  0.00  0.00    +0.000 C 
ATOM      9  O   UNL     1       3.453   1.536  18.609  0.00  0.00    +0.000 OA
ATOM     10  C   UNL     1       2.408   2.061  17.778  0.00  0.00    +0.000 C 
ATOM     11  C   UNL     1       1.383   2.847  18.606  0.00  0.00    +0.000 C 
ENDBRANCH   4   6
ENDBRANCH   1   2
BRANCH   1  13
ATOM     12  C   UNL     1       1.282   8.840  17.615  0.00  0.00    +0.000 C 
ATOM     13  C   UNL     1       2.754   8.644  17.967  0.00  0.00    +0.000 C 
ENDBRANCH   1  13
BRANCH   1  14
ATOM     14  O   UNL     1       4.668   7.131  17.917  0.00  0.00    +0.000 OA
BRANCH  14  15
ATOM     15  C   UNL     1       5.354   6.276  17.096  0.00  0.00    +0.000 A 
ATOM     16  C   UNL     1       5.144   6.144  15.720  0.00  0.00    +0.000 A 
ATOM     17  C   UNL     1       5.915   5.259  14.961  0.00  0.00    +0.000 A 
ATOM     18  C   UNL     1       6.906   4.493  15.567  0.00  0.00    +0.000 A 
ATOM     19  C   UNL     1       7.095   4.582  16.942  0.00  0.00    +0.000 A 
ATOM     20  C   UNL     1       6.306   5.445  17.721  0.00  0.00    +0.000 A 
ATOM     21  C   UNL     1       6.505   5.465  19.213  0.00  0.00    +0.000 C 
ENDBRANCH  14  15
ENDBRANCH   1  14
TORSDOF 5
ENDMDL
MODEL 6
REMARK VINA RESULT:      -6.6      1.649      4.104
REMARK  Name = 
REMARK  7 active torsions:
REMARK  status: ('A' for Active; 'I' for Inactive)
REMARK    1  A    between atoms: C_1  and  C_2
REMARK    2  A    between atoms: C_2  and  C_3
REMARK    3  A    between atoms: C_3  and  O_4
REMARK    4  A    between atoms: C_3  and  C_12
REMARK    5  A    between atoms: O_4  and  C_5
REMARK    6  A    between atoms: C_10  and  C_11
REMARK    7  A    between atoms: N_14  and  N_15
REMARK                            x       y       z     vdW  Elec       q    Type
REMARK                         _______ _______ _______ _____ _____    ______ ____
ROOT
ATOM      1  C   UNL     1       3.397   6.478  18.753  0.00  0.00    +0.000 C 
ENDROOT
BRANCH   1   2
ATOM      2  C   UNL     1       4.673   5.617  18.696  0.00  0.00    +0.000 C 
ATOM      3  O   UNL     1       5.361   5.360  19.678  0.00  0.00    +0.000 OA
ATOM      4  N   UNL     1       4.841   5.050  17.431  0.00  0.00    +0.000 N 
ATOM      5  H   UNL     1       4.408   5.585  16.678  0.00  0.00    +0.000 HD
BRANCH   4   6
ATOM      6  N   UNL     1       5.956   4.222  17.128  0.00  0.00    +0.000 NA
ATOM      7  C   UNL     1       7.224   4.952  17.366  0.00  0.00    +0.000 C 
ATOM      8  C   UNL     1       7.446   6.095  16.362  0.00  0.00    +0.000 C 
ATOM      9  O   UNL     1       7.418   5.624  15.009  0.00  0.00    +0.000 OA
ATOM     10  C   UNL     1       6.183   4.949  14.732  0.00  0.00    +0.000 C 
ATOM     11  C   UNL     1       5.956   3.787  15.708  0.00  0.00    +0.000 C 
ENDBRANCH   4   6
ENDBRANCH   1   2
BRANCH   1  13
ATOM     12  C   UNL     1       2.202   8.526  17.787  0.00  0.00    +0.000 C 
ATOM     13  C   UNL     1       3.385   7.568  17.675  0.00  0.00    +0.000 C 
ENDBRANCH   1  13
BRANCH   1  14
ATOM     14  O   UNL     1       2.277   5.587  18.572  0.00  0.00    +0.000 OA
BRANCH  14  15
ATOM     15  C   UNL     1       2.080   4.563  19.460  0.00  0.00    +0.000 A 
ATOM     16  C   UNL     1       2.051   4.701  20.850  0.00  0.00    +0.000 A 
ATOM     17  C   UNL     1       1.818   3.596  21.674  0.00  0.00    +0.000 A 
ATOM     18  C   UNL     1       1.611   2.338  21.118  0.00  0.00    +0.000 A 
ATOM     19  C   UNL     1       1.682   2.178  19.739  0.00  0.00    +0.000 A 
ATOM     20  C   UNL     1       1.946   3.275  18.901  0.00  0.00    +0.000 A 
ATOM     21  C   UNL     1       2.073   3.046  17.419  0.00  0.00    +0.000 C 
ENDBRANCH  14  15
ENDBRANCH   1  14
TORSDOF 5
ENDMDL
MODEL 7
REMARK VINA RESULT:      -6.4      1.039      1.110
REMARK  Name = 
REMARK  7 active torsions:
REMARK  status: ('A' for Active; 'I' for Inactive)
REMARK    1  A    between atoms: C_1  and  C_2
REMARK    2  A    between atoms: C_2  and  C_3
REMARK    3  A    between atoms: C_3  and  O_4
REMARK    4  A    between atoms: C_3  and  C_12
REMARK    5  A    between atoms: O_4  and  C_5
REMARK    6  A    between atoms: C_10  and  C_11
REMARK    7  A    between atoms: N_14  and  N_15
REMARK                            x       y       z     vdW  Elec       q    Type
REMARK                         _______ _______ _______ _____ _____    ______ ____
ROOT
ATOM      1  C   UNL     1       1.939   5.026  19.072  0.00  0.00    +0.000 C 
ENDROOT
BRANCH   1   2
ATOM      2  C   UNL     1       2.995   4.176  18.340  0.00  0.00    +0.000 C 
ATOM      3  O   UNL     1       2.742   3.115  17.781  0.00  0.00    +0.000 OA
ATOM      4  N   UNL     1       4.217   4.848  18.266  0.00  0.00    +0.000 N 
ATOM      5  H   UNL     1       4.362   5.525  19.014  0.00  0.00    +0.000 HD
BRANCH   4   6
ATOM      6  N   UNL     1       5.353   4.260  17.646  0.00  0.00    +0.000 NA
ATOM      7  C   UNL     1       6.599   4.886  18.148  0.00  0.00    +0.000 C 
ATOM      8  C   UNL     1       6.755   6.345  17.689  0.00  0.00    +0.000 C 
ATOM      9  O   UNL     1       6.710   6.459  16.261  0.00  0.00    +0.000 OA
ATOM     10  C   UNL     1       5.494   5.900  15.746  0.00  0.00    +0.000 C 
ATOM     11  C   UNL     1       5.333   4.434  16.170  0.00  0.00    +0.000 C 
ENDBRANCH   4   6
ENDBRANCH   1   2
BRANCH   1  13
ATOM     12  C   UNL     1       2.174   3.994  21.403  0.00  0.00    +0.000 C 
ATOM     13  C   UNL     1       1.260   4.253  20.209  0.00  0.00    +0.000 C 
ENDBRANCH   1  13
BRANCH   1  14
ATOM     14  O   UNL     1       2.617   6.187  19.594  0.00  0.00    +0.000 OA
BRANCH  14  15
ATOM     15  C   UNL     1       2.243   7.434  19.170  0.00  0.00    +0.000 A 
ATOM     16  C   UNL     1       2.582   7.997  17.936  0.00  0.00    +0.000 A 
ATOM     17  C   UNL     1       2.130   9.272  17.584  0.00  0.00    +0.000 A 
ATOM     18  C   UNL     1       1.332  10.001  18.459  0.00  0.00    +0.000 A 
ATOM     19  C   UNL     1       1.024   9.471  19.708  0.00  0.00    +0.000 A 
ATOM     20  C   UNL     1       1.498   8.203  20.087  0.00  0.00    +0.000 A 
ATOM     21  C   UNL     1       1.189   7.694  21.470  0.00  0.00    +0.000 C 
ENDBRANCH  14  15
ENDBRANCH   1  14
TORSDOF 5
ENDMDL
MODEL 8
REMARK VINA RESULT:      -6.4      1.770      4.385
REMARK  Name = 
REMARK  7 active torsions:
REMARK  status: ('A' for Active; 'I' for Inactive)
REMARK    1  A    between atoms: C_1  and  C_2
REMARK    2  A    between atoms: C_2  and  C_3
REMARK    3  A    between atoms: C_3  and  O_4
REMARK    4  A    between atoms: C_3  and  C_12
REMARK    5  A    between atoms: O_4  and  C_5
REMARK    6  A    between atoms: C_10  and  C_11
REMARK    7  A    between atoms: N_14  and  N_15
REMARK                            x       y       z     vdW  Elec       q    Type
REMARK                         _______ _______ _______ _____ _____    ______ ____
ROOT
ATOM      1  C   UNL     1       2.973   6.900  18.085  0.00  0.00    +0.000 C 
ENDROOT
BRANCH   1   2
ATOM      2  C   UNL     1       4.209   7.035  17.175  0.00  0.00    +0.000 C 
ATOM      3  O   UNL     1       4.159   7.444  16.021  0.00  0.00    +0.000 OA
ATOM      4  N   UNL     1       5.385   6.786  17.885  0.00  0.00    +0.000 N 
ATOM      5  H   UNL     1       5.260   6.173  18.691  0.00  0.00    +0.000 HD
BRANCH   4   6
ATOM      6  N   UNL     1       6.659   6.839  17.258  0.00  0.00    +0.000 NA
ATOM      7  C   UNL     1       6.888   5.620  16.446  0.00  0.00    +0.000 C 
ATOM      8  C   UNL     1       7.055   4.357  17.309  0.00  0.00    +0.000 C 
ATOM      9  O   UNL     1       8.119   4.501  18.257  0.00  0.00    +0.000 OA
ATOM     10  C   UNL     1       7.906   5.650  19.089  0.00  0.00    +0.000 C 
ATOM     11  C   UNL     1       7.764   6.925  18.247  0.00  0.00    +0.000 C 
ENDBRANCH   4   6
ENDBRANCH   1   2
BRANCH   1  13
ATOM     12  C   UNL     1       2.250   9.356  18.095  0.00  0.00    +0.000 C 
ATOM     13  C   UNL     1       1.882   7.920  17.735  0.00  0.00    +0.000 C 
ENDBRANCH   1  13
BRANCH   1  14
ATOM     14  O   UNL     1       2.472   5.558  17.921  0.00  0.00    +0.000 OA
BRANCH  14  15
ATOM     15  C   UNL     1       2.337   4.750  19.018  0.00  0.00    +0.000 A 
ATOM     16  C   UNL     1       2.268   5.197  20.341  0.00  0.00    +0.000 A 
ATOM     17  C   UNL     1       2.106   4.293  21.394  0.00  0.00    +0.000 A 
ATOM     18  C   UNL     1       2.010   2.929  21.139  0.00  0.00    +0.000 A 
ATOM     19  C   UNL     1       2.123   2.466  19.832  0.00  0.00    +0.000 A 
ATOM     20  C   UNL     1       2.317   3.363  18.768  0.00  0.00    +0.000 A 
ATOM     21  C   UNL     1       2.493   2.814  17.377  0.00  0.00    +0.000 C 
ENDBRANCH  14  15
ENDBRANCH   1  14
TORSDOF 5
ENDMDL
MODEL 9
REMARK VINA RESULT:      -6.4      1.719      4.209
REMARK  Name = 
REMARK  7 active torsions:
REMARK  status: ('A' for Active; 'I' for Inactive)
REMARK    1  A    between atoms: C_1  and  C_2
REMARK    2  A    between atoms: C_2  and  C_3
REMARK    3  A    between atoms: C_3  and  O_4
REMARK    4  A    between atoms: C_3  and  C_12
REMARK    5  A    between atoms: O_4  and  C_5
REMARK    6  A    between atoms: C_10  and  C_11
REMARK    7  A    between atoms: N_14  and  N_15
REMARK                            x       y       z     vdW  Elec       q    Type
REMARK                         _______ _______ _______ _____ _____    ______ ____
ROOT
ATOM      1  C   UNL     1       2.774   6.707  18.817  0.00  0.00    +0.000 C 
ENDROOT
BRANCH   1   2
ATOM      2  C   UNL     1       3.739   7.097  17.682  0.00  0.00    +0.000 C 
ATOM      3  O   UNL     1       3.450   7.885  16.788  0.00  0.00    +0.000 OA
ATOM      4  N   UNL     1       5.012   6.567  17.901  0.00  0.00    +0.000 N 
ATOM      5  H   UNL     1       5.015   5.718  18.466  0.00  0.00    +0.000 HD
BRANCH   4   6
ATOM      6  N   UNL     1       6.075   6.781  16.982  0.00  0.00    +0.000 NA
ATOM      7  C   UNL     1       6.146   5.669  16.004  0.00  0.00    +0.000 C 
ATOM      8  C   UNL     1       6.594   4.345  16.645  0.00  0.00    +0.000 C 
ATOM      9  O   UNL     1       7.859   4.477  17.303  0.00  0.00    +0.000 OA
ATOM     10  C   UNL     1       7.812   5.518  18.289  0.00  0.00    +0.000 C 
ATOM     11  C   UNL     1       7.393   6.855  17.664  0.00  0.00    +0.000 C 
ENDBRANCH   4   6
ENDBRANCH   1   2
BRANCH   1  13
ATOM     12  C   UNL     1       1.551   7.790  20.790  0.00  0.00    +0.000 C 
ATOM     13  C   UNL     1       1.961   7.905  19.324  0.00  0.00    +0.000 C 
ENDBRANCH   1  13
BRANCH   1  14
ATOM     14  O   UNL     1       1.892   5.693  18.294  0.00  0.00    +0.000 OA
BRANCH  14  15
ATOM     15  C   UNL     1       2.280   4.380  18.327  0.00  0.00    +0.000 A 
ATOM     16  C   UNL     1       3.035   3.741  17.339  0.00  0.00    +0.000 A 
ATOM     17  C   UNL     1       3.403   2.400  17.476  0.00  0.00    +0.000 A 
ATOM     18  C   UNL     1       3.021   1.679  18.602  0.00  0.00    +0.000 A 
ATOM     19  C   UNL     1       2.232   2.289  19.572  0.00  0.00    +0.000 A 
ATOM     20  C   UNL     1       1.829   3.628  19.431  0.00  0.00    +0.000 A 
ATOM     21  C   UNL     1       0.927   4.230  20.475  0.00  0.00    +0.000 C 
ENDBRANCH  14  15
ENDBRANCH   1  14
TORSDOF 5
ENDMDL
