MODEL 1
REMARK VINA RESULT:      -5.1      0.000      0.000
REMARK  Name = 
REMARK  11 active torsions:
REMARK  status: ('A' for Active; 'I' for Inactive)
REMARK    1  A    between atoms: C_1  and  C_2
REMARK    2  A    between atoms: C_2  and  C_3
REMARK    3  A    between atoms: C_2  and  C_4
REMARK    4  A    between atoms: C_2  and  N_5
REMARK    5  A    between atoms: N_5  and  C_6
REMARK    6  A    between atoms: C_6  and  C_7
REMARK    7  A    between atoms: C_7  and  N_8
REMARK    8  A    between atoms: N_8  and  C_9
REMARK    9  A    between atoms: C_9  and  C_10
REMARK   10  A    between atoms: C_9  and  C_11
REMARK   11  A    between atoms: C_9  and  C_12
REMARK                            x       y       z     vdW  Elec       q    Type
REMARK                         _______ _______ _______ _____ _____    ______ ____
ROOT
ATOM      1  C   UNL     1       4.656   3.845  18.064  0.00  0.00    +0.000 C 
ENDROOT
BRANCH   1   2
ATOM      2  N   UNL     1       5.092   3.455  16.721  0.00  0.00    +0.000 NA
ATOM      3  H   UNL     1       5.582   2.561  16.802  0.00  0.00    +0.000 HD
BRANCH   2   5
ATOM      4  C   UNL     1       5.215   5.826  15.983  0.00  0.00    +0.000 C 
ATOM      5  C   UNL     1       5.916   4.456  16.026  0.00  0.00    +0.000 C 
ATOM      6  C   UNL     1       6.251   3.985  14.600  0.00  0.00    +0.000 C 
ATOM      7  C   UNL     1       7.232   4.606  16.811  0.00  0.00    +0.000 C 
ENDBRANCH   2   5
ENDBRANCH   1   2
BRANCH   1   8
ATOM      8  C   UNL     1       3.315   3.197  18.424  0.00  0.00    +0.000 C 
BRANCH   8   9
ATOM      9  N   UNL     1       3.132   3.080  19.880  0.00  0.00    +0.000 NA
ATOM     10  H   UNL     1       3.735   3.769  20.342  0.00  0.00    +0.000 HD
BRANCH   9  11
ATOM     11  C   UNL     1       1.741   3.268  20.327  0.00  0.00    +0.000 C 
ATOM     12  C   UNL     1       1.499   2.577  21.684  0.00  0.00    +0.000 C 
ATOM     13  C   UNL     1       1.510   4.781  20.506  0.00  0.00    +0.000 C 
ATOM     14  C   UNL     1       0.739   2.747  19.281  0.00  0.00    +0.000 C 
ENDBRANCH   9  11
ENDBRANCH   8   9
ENDBRANCH   1   8
TORSDOF 5
ENDMDL
MODEL 2
REMARK VINA RESULT:      -5.1      0.830      5.649
REMARK  Name = 
REMARK  11 active torsions:
REMARK  status: ('A' for Active; 'I' for Inactive)
REMARK    1  A    between atoms: C_1  and  C_2
REMARK    2  A    between atoms: C_2  and  C_3
REMARK    3  A    between atoms: C_2  and  C_4
REMARK    4  A    between atoms: C_2  and  N_5
REMARK    5  A    between atoms: N_5  and  C_6
REMARK    6  A    between atoms: C_6  and  C_7
REMARK    7  A    between atoms: C_7  and  N_8
REMARK    8  A    between atoms: N_8  and  C_9
REMARK    9  A    between atoms: C_9  and  C_10
REMARK   10  A    between atoms: C_9  and  C_11
REMARK   11  A    between atoms: C_9  and  C_12
REMARK                            x       y       z     vdW  Elec       q    Type
REMARK                         _______ _______ _______ _____ _____    ______ ____
ROOT
ATOM      1  C   UNL     1       3.352   2.188  18.491  0.00  0.00    +0.000 C 
ENDROOT
BRANCH   1   2
ATOM      2  N   UNL     1       3.216   2.802  19.815  0.00  0.00    +0.000 NA
ATOM      3  H   UNL     1       3.606   2.149  20.499  0.00  0.00    +0.000 HD
BRANCH   2   5
ATOM      4  C   UNL     1       0.818   2.617  19.187  0.00  0.00    +0.000 C 
ATOM      5  C   UNL     1       1.847   3.200  20.172  0.00  0.00    +0.000 C 
ATOM      6  C   UNL     1       1.725   4.733  20.222  0.00  0.00    +0.000 C 
ATOM      7  C   UNL     1       1.548   2.643  21.576  0.00  0.00    +0.000 C 
ENDBRANCH   2   5
ENDBRANCH   1   2
BRANCH   1   8
ATOM      8  C   UNL     1       4.055   3.130  17.509  0.00  0.00    +0.000 C 
BRANCH   8   9
ATOM      9  N   UNL     1       5.253   3.749  18.099  0.00  0.00    +0.000 NA
ATOM     10  H   UNL     1       5.839   3.008  18.501  0.00  0.00    +0.000 HD
BRANCH   9  11
ATOM     11  C   UNL     1       6.051   4.541  17.147  0.00  0.00    +0.000 C 
ATOM     12  C   UNL     1       5.966   3.945  15.727  0.00  0.00    +0.000 C 
ATOM     13  C   UNL     1       5.458   5.962  17.112  0.00  0.00    +0.000 C 
ATOM     14  C   UNL     1       7.520   4.641  17.592  0.00  0.00    +0.000 C 
ENDBRANCH   9  11
ENDBRANCH   8   9
ENDBRANCH   1   8
TORSDOF 5
ENDMDL
MODEL 3
REMARK VINA RESULT:      -5.1      0.421      1.321
REMARK  Name = 
REMARK  11 active torsions:
REMARK  status: ('A' for Active; 'I' for Inactive)
REMARK    1  A    between atoms: C_1  and  C_2
REMARK    2  A    between atoms: C_2  and  C_3
REMARK    3  A    between atoms: C_2  and  C_4
REMARK    4  A    between atoms: C_2  and  N_5
REMARK    5  A    between atoms: N_5  and  C_6
REMARK    6  A    between atoms: C_6  and  C_7
REMARK    7  A    between atoms: C_7  and  N_8
REMARK    8  A    between atoms: N_8  and  C_9
REMARK    9  A    between atoms: C_9  and  C_10
REMARK   10  A    between atoms: C_9  and  C_11
REMARK   11  A    between atoms: C_9  and  C_12
REMARK                            x       y       z     vdW  Elec       q    Type
REMARK                         _______ _______ _______ _____ _____    ______ ____
ROOT
ATOM      1  C   UNL     1       3.794   3.748  17.415  0.00  0.00    +0.000 C 
ENDROOT
BRANCH   1   2
ATOM      2  N   UNL     1       5.203   3.440  17.158  0.00  0.00    +0.000 NA
ATOM      3  H   UNL     1       5.664   3.324  18.063  0.00  0.00    +0.000 HD
BRANCH   2   5
ATOM      4  C   UNL     1       5.166   5.772  16.299  0.00  0.00    +0.000 C 
ATOM      5  C   UNL     1       5.905   4.423  16.319  0.00  0.00    +0.000 C 
ATOM      6  C   UNL     1       6.077   3.888  14.887  0.00  0.00    +0.000 C 
ATOM      7  C   UNL     1       7.303   4.642  16.927  0.00  0.00    +0.000 C 
ENDBRANCH   2   5
ENDBRANCH   1   2
BRANCH   1   8
ATOM      8  C   UNL     1       3.142   2.680  18.298  0.00  0.00    +0.000 C 
BRANCH   8   9
ATOM      9  N   UNL     1       3.134   3.067  19.718  0.00  0.00    +0.000 NA
ATOM     10  H   UNL     1       3.734   3.891  19.836  0.00  0.00    +0.000 HD
BRANCH   9  11
ATOM     11  C   UNL     1       1.793   3.356  20.255  0.00  0.00    +0.000 C 
ATOM     12  C   UNL     1       0.696   2.821  19.313  0.00  0.00    +0.000 C 
ATOM     13  C   UNL     1       1.666   2.631  21.608  0.00  0.00    +0.000 C 
ATOM     14  C   UNL     1       1.597   4.864  20.494  0.00  0.00    +0.000 C 
ENDBRANCH   9  11
ENDBRANCH   8   9
ENDBRANCH   1   8
TORSDOF 5
ENDMDL
MODEL 4
REMARK VINA RESULT:      -5.1      0.530      5.805
REMARK  Name = 
REMARK  11 active torsions:
REMARK  status: ('A' for Active; 'I' for Inactive)
REMARK    1  A    between atoms: C_1  and  C_2
REMARK    2  A    between atoms: C_2  and  C_3
REMARK    3  A    between atoms: C_2  and  C_4
REMARK    4  A    between atoms: C_2  and  N_5
REMARK    5  A    between atoms: N_5  and  C_6
REMARK    6  A    between atoms: C_6  and  C_7
REMARK    7  A    between atoms: C_7  and  N_8
REMARK    8  A    between atoms: N_8  and  C_9
REMARK    9  A    between atoms: C_9  and  C_10
REMARK   10  A    between atoms: C_9  and  C_11
REMARK   11  A    between atoms: C_9  and  C_12
REMARK                            x       y       z     vdW  Elec       q    Type
REMARK                         _______ _______ _______ _____ _____    ______ ____
ROOT
ATOM      1  C   UNL     1       3.925   4.153  19.024  0.00  0.00    +0.000 C 
ENDROOT
BRANCH   1   2
ATOM      2  N   UNL     1       3.255   3.009  19.648  0.00  0.00    +0.000 NA
ATOM      3  H   UNL     1       3.129   2.295  18.928  0.00  0.00    +0.000 HD
BRANCH   2   5
ATOM      4  C   UNL     1       1.882   2.634  21.686  0.00  0.00    +0.000 C 
ATOM      5  C   UNL     1       1.985   3.328  20.316  0.00  0.00    +0.000 C 
ATOM      6  C   UNL     1       0.792   2.933  19.428  0.00  0.00    +0.000 C 
ATOM      7  C   UNL     1       1.942   4.851  20.537  0.00  0.00    +0.000 C 
ENDBRANCH   2   5
ENDBRANCH   1   2
BRANCH   1   8
ATOM      8  C   UNL     1       3.838   4.084  17.496  0.00  0.00    +0.000 C 
BRANCH   8   9
ATOM      9  N   UNL     1       5.044   3.486  16.901  0.00  0.00    +0.000 NA
ATOM     10  H   UNL     1       4.755   2.750  16.247  0.00  0.00    +0.000 HD
BRANCH   9  11
ATOM     11  C   UNL     1       5.911   4.451  16.202  0.00  0.00    +0.000 C 
ATOM     12  C   UNL     1       7.260   4.610  16.931  0.00  0.00    +0.000 C 
ATOM     13  C   UNL     1       6.185   3.894  14.792  0.00  0.00    +0.000 C 
ATOM     14  C   UNL     1       5.224   5.820  16.056  0.00  0.00    +0.000 C 
ENDBRANCH   9  11
ENDBRANCH   8   9
ENDBRANCH   1   8
TORSDOF 5
ENDMDL
MODEL 5
REMARK VINA RESULT:      -5.1      0.633      1.419
REMARK  Name = 
REMARK  11 active torsions:
REMARK  status: ('A' for Active; 'I' for Inactive)
REMARK    1  A    between atoms: C_1  and  C_2
REMARK    2  A    between atoms: C_2  and  C_3
REMARK    3  A    between atoms: C_2  and  C_4
REMARK    4  A    between atoms: C_2  and  N_5
REMARK    5  A    between atoms: N_5  and  C_6
REMARK    6  A    between atoms: C_6  and  C_7
REMARK    7  A    between atoms: C_7  and  N_8
REMARK    8  A    between atoms: N_8  and  C_9
REMARK    9  A    between atoms: C_9  and  C_10
REMARK   10  A    between atoms: C_9  and  C_11
REMARK   11  A    between atoms: C_9  and  C_12
REMARK                            x       y       z     vdW  Elec       q    Type
REMARK                         _______ _______ _______ _____ _____    ______ ____
ROOT
ATOM      1  C   UNL     1       3.778   3.565  17.331  0.00  0.00    +0.000 C 
ENDROOT
BRANCH   1   2
ATOM      2  N   UNL     1       5.217   3.583  17.604  0.00  0.00    +0.000 NA
ATOM      3  H   UNL     1       5.341   3.804  18.595  0.00  0.00    +0.000 HD
BRANCH   2   5
ATOM      4  C   UNL     1       7.435   4.655  17.270  0.00  0.00    +0.000 C 
ATOM      5  C   UNL     1       5.995   4.493  16.751  0.00  0.00    +0.000 C 
ATOM      6  C   UNL     1       5.308   5.866  16.655  0.00  0.00    +0.000 C 
ATOM      7  C   UNL     1       6.052   3.879  15.341  0.00  0.00    +0.000 C 
ENDBRANCH   2   5
ENDBRANCH   1   2
BRANCH   1   8
ATOM      8  C   UNL     1       3.057   2.537  18.208  0.00  0.00    +0.000 C 
BRANCH   8   9
ATOM      9  N   UNL     1       3.091   2.905  19.633  0.00  0.00    +0.000 NA
ATOM     10  H   UNL     1       3.720   3.707  19.748  0.00  0.00    +0.000 HD
BRANCH   9  11
ATOM     11  C   UNL     1       1.772   3.231  20.201  0.00  0.00    +0.000 C 
ATOM     12  C   UNL     1       1.616   2.630  21.613  0.00  0.00    +0.000 C 
ATOM     13  C   UNL     1       1.678   4.764  20.314  0.00  0.00    +0.000 C 
ATOM     14  C   UNL     1       0.632   2.743  19.290  0.00  0.00    +0.000 C 
ENDBRANCH   9  11
ENDBRANCH   8   9
ENDBRANCH   1   8
TORSDOF 5
ENDMDL
MODEL 6
REMARK VINA RESULT:      -5.1      1.211      1.470
REMARK  Name = 
REMARK  11 active torsions:
REMARK  status: ('A' for Active; 'I' for Inactive)
REMARK    1  A    between atoms: C_1  and  C_2
REMARK    2  A    between atoms: C_2  and  C_3
REMARK    3  A    between atoms: C_2  and  C_4
REMARK    4  A    between atoms: C_2  and  N_5
REMARK    5  A    between atoms: N_5  and  C_6
REMARK    6  A    between atoms: C_6  and  C_7
REMARK    7  A    between atoms: C_7  and  N_8
REMARK    8  A    between atoms: N_8  and  C_9
REMARK    9  A    between atoms: C_9  and  C_10
REMARK   10  A    between atoms: C_9  and  C_11
REMARK   11  A    between atoms: C_9  and  C_12
REMARK                            x       y       z     vdW  Elec       q    Type
REMARK                         _______ _______ _______ _____ _____    ______ ____
ROOT
ATOM      1  C   UNL     1       3.876   3.315  17.349  0.00  0.00    +0.000 C 
ENDROOT
BRANCH   1   2
ATOM      2  N   UNL     1       5.254   3.407  17.839  0.00  0.00    +0.000 NA
ATOM      3  H   UNL     1       5.272   3.018  18.785  0.00  0.00    +0.000 HD
BRANCH   2   5
ATOM      4  C   UNL     1       5.017   5.693  16.893  0.00  0.00    +0.000 C 
ATOM      5  C   UNL     1       5.832   4.759  17.804  0.00  0.00    +0.000 C 
ATOM      6  C   UNL     1       7.298   4.709  17.340  0.00  0.00    +0.000 C 
ATOM      7  C   UNL     1       5.794   5.321  19.237  0.00  0.00    +0.000 C 
ENDBRANCH   2   5
ENDBRANCH   1   2
BRANCH   1   8
ATOM      8  C   UNL     1       3.039   2.368  18.214  0.00  0.00    +0.000 C 
BRANCH   8   9
ATOM      9  N   UNL     1       3.156   2.680  19.648  0.00  0.00    +0.000 NA
ATOM     10  H   UNL     1       3.920   3.353  19.774  0.00  0.00    +0.000 HD
BRANCH   9  11
ATOM     11  C   UNL     1       1.923   3.218  20.248  0.00  0.00    +0.000 C 
ATOM     12  C   UNL     1       1.704   2.646  21.663  0.00  0.00    +0.000 C 
ATOM     13  C   UNL     1       2.089   4.745  20.364  0.00  0.00    +0.000 C 
ATOM     14  C   UNL     1       0.697   2.930  19.365  0.00  0.00    +0.000 C 
ENDBRANCH   9  11
ENDBRANCH   8   9
ENDBRANCH   1   8
TORSDOF 5
ENDMDL
MODEL 7
REMARK VINA RESULT:      -5.0      0.254      1.757
REMARK  Name = 
REMARK  11 active torsions:
REMARK  status: ('A' for Active; 'I' for Inactive)
REMARK    1  A    between atoms: C_1  and  C_2
REMARK    2  A    between atoms: C_2  and  C_3
REMARK    3  A    between atoms: C_2  and  C_4
REMARK    4  A    between atoms: C_2  and  N_5
REMARK    5  A    between atoms: N_5  and  C_6
REMARK    6  A    between atoms: C_6  and  C_7
REMARK    7  A    between atoms: C_7  and  N_8
REMARK    8  A    between atoms: N_8  and  C_9
REMARK    9  A    between atoms: C_9  and  C_10
REMARK   10  A    between atoms: C_9  and  C_11
REMARK   11  A    between atoms: C_9  and  C_12
REMARK                            x       y       z     vdW  Elec       q    Type
REMARK                         _______ _______ _______ _____ _____    ______ ____
ROOT
ATOM      1  C   UNL     1       4.477   4.066  17.978  0.00  0.00    +0.000 C 
ENDROOT
BRANCH   1   2
ATOM      2  N   UNL     1       4.922   3.623  16.654  0.00  0.00    +0.000 NA
ATOM      3  H   UNL     1       5.268   2.665  16.749  0.00  0.00    +0.000 HD
BRANCH   2   5
ATOM      4  C   UNL     1       7.199   4.599  16.867  0.00  0.00    +0.000 C 
ATOM      5  C   UNL     1       5.920   4.493  16.016  0.00  0.00    +0.000 C 
ATOM      6  C   UNL     1       5.335   5.893  15.761  0.00  0.00    +0.000 C 
ATOM      7  C   UNL     1       6.289   3.866  14.659  0.00  0.00    +0.000 C 
ENDBRANCH   2   5
ENDBRANCH   1   2
BRANCH   1   8
ATOM      8  C   UNL     1       3.611   3.003  18.660  0.00  0.00    +0.000 C 
BRANCH   8   9
ATOM      9  N   UNL     1       3.259   3.379  20.039  0.00  0.00    +0.000 NA
ATOM     10  H   UNL     1       3.620   4.321  20.223  0.00  0.00    +0.000 HD
BRANCH   9  11
ATOM     11  C   UNL     1       1.813   3.343  20.321  0.00  0.00    +0.000 C 
ATOM     12  C   UNL     1       1.050   2.618  19.194  0.00  0.00    +0.000 C 
ATOM     13  C   UNL     1       1.612   2.555  21.628  0.00  0.00    +0.000 C 
ATOM     14  C   UNL     1       1.245   4.760  20.518  0.00  0.00    +0.000 C 
ENDBRANCH   9  11
ENDBRANCH   8   9
ENDBRANCH   1   8
TORSDOF 5
ENDMDL
MODEL 8
REMARK VINA RESULT:      -5.0      1.131      5.519
REMARK  Name = 
REMARK  11 active torsions:
REMARK  status: ('A' for Active; 'I' for Inactive)
REMARK    1  A    between atoms: C_1  and  C_2
REMARK    2  A    between atoms: C_2  and  C_3
REMARK    3  A    between atoms: C_2  and  C_4
REMARK    4  A    between atoms: C_2  and  N_5
REMARK    5  A    between atoms: N_5  and  C_6
REMARK    6  A    between atoms: C_6  and  C_7
REMARK    7  A    between atoms: C_7  and  N_8
REMARK    8  A    between atoms: N_8  and  C_9
REMARK    9  A    between atoms: C_9  and  C_10
REMARK   10  A    between atoms: C_9  and  C_11
REMARK   11  A    between atoms: C_9  and  C_12
REMARK                            x       y       z     vdW  Elec       q    Type
REMARK                         _______ _______ _______ _____ _____    ______ ____
ROOT
ATOM      1  C   UNL     1       4.406   3.378  19.425  0.00  0.00    +0.000 C 
ENDROOT
BRANCH   1   2
ATOM      2  N   UNL     1       3.217   4.207  19.637  0.00  0.00    +0.000 NA
ATOM      3  H   UNL     1       3.159   4.414  20.637  0.00  0.00    +0.000 HD
BRANCH   2   5
ATOM      4  C   UNL     1       1.569   4.229  17.776  0.00  0.00    +0.000 C 
ATOM      5  C   UNL     1       1.963   3.625  19.136  0.00  0.00    +0.000 C 
ATOM      6  C   UNL     1       0.828   3.825  20.155  0.00  0.00    +0.000 C 
ATOM      7  C   UNL     1       2.189   2.114  18.951  0.00  0.00    +0.000 C 
ENDBRANCH   2   5
ENDBRANCH   1   2
BRANCH   1   8
ATOM      8  C   UNL     1       5.409   4.069  18.496  0.00  0.00    +0.000 C 
BRANCH   8   9
ATOM      9  N   UNL     1       5.184   3.721  17.084  0.00  0.00    +0.000 NA
ATOM     10  H   UNL     1       4.173   3.659  16.919  0.00  0.00    +0.000 HD
BRANCH   9  11
ATOM     11  C   UNL     1       5.780   4.671  16.128  0.00  0.00    +0.000 C 
ATOM     12  C   UNL     1       5.597   4.182  14.677  0.00  0.00    +0.000 C 
ATOM     13  C   UNL     1       5.041   6.013  16.284  0.00  0.00    +0.000 C 
ATOM     14  C   UNL     1       7.272   4.902  16.424  0.00  0.00    +0.000 C 
ENDBRANCH   9  11
ENDBRANCH   8   9
ENDBRANCH   1   8
TORSDOF 5
ENDMDL
MODEL 9
REMARK VINA RESULT:      -5.0      1.053      1.818
REMARK  Name = 
REMARK  11 active torsions:
REMARK  status: ('A' for Active; 'I' for Inactive)
REMARK    1  A    between atoms: C_1  and  C_2
REMARK    2  A    between atoms: C_2  and  C_3
REMARK    3  A    between atoms: C_2  and  C_4
REMARK    4  A    between atoms: C_2  and  N_5
REMARK    5  A    between atoms: N_5  and  C_6
REMARK    6  A    between atoms: C_6  and  C_7
REMARK    7  A    between atoms: C_7  and  N_8
REMARK    8  A    between atoms: N_8  and  C_9
REMARK    9  A    between atoms: C_9  and  C_10
REMARK   10  A    between atoms: C_9  and  C_11
REMARK   11  A    between atoms: C_9  and  C_12
REMARK                            x       y       z     vdW  Elec       q    Type
REMARK                         _______ _______ _______ _____ _____    ______ ____
ROOT
ATOM      1  C   UNL     1       5.245   4.108  18.825  0.00  0.00    +0.000 C 
ENDROOT
BRANCH   1   2
ATOM      2  N   UNL     1       5.203   3.655  17.433  0.00  0.00    +0.000 NA
ATOM      3  H   UNL     1       5.577   2.703  17.406  0.00  0.00    +0.000 HD
BRANCH   2   5
ATOM      4  C   UNL     1       7.335   4.834  16.939  0.00  0.00    +0.000 C 
ATOM      5  C   UNL     1       5.898   4.531  16.478  0.00  0.00    +0.000 C 
ATOM      6  C   UNL     1       5.117   5.841  16.277  0.00  0.00    +0.000 C 
ATOM      7  C   UNL     1       5.965   3.793  15.129  0.00  0.00    +0.000 C 
ENDBRANCH   2   5
ENDBRANCH   1   2
BRANCH   1   8
ATOM      8  C   UNL     1       4.093   3.513  19.640  0.00  0.00    +0.000 C 
BRANCH   8   9
ATOM      9  N   UNL     1       3.096   2.849  18.784  0.00  0.00    +0.000 NA
ATOM     10  H   UNL     1       3.063   1.854  19.034  0.00  0.00    +0.000 HD
BRANCH   9  11
ATOM     11  C   UNL     1       1.743   3.424  18.880  0.00  0.00    +0.000 C 
ATOM     12  C   UNL     1       1.570   4.211  20.195  0.00  0.00    +0.000 C 
ATOM     13  C   UNL     1       1.569   4.403  17.704  0.00  0.00    +0.000 C 
ATOM     14  C   UNL     1       0.661   2.336  18.768  0.00  0.00    +0.000 C 
ENDBRANCH   9  11
ENDBRANCH   8   9
ENDBRANCH   1   8
TORSDOF 5
ENDMDL
