MODEL 1
REMARK VINA RESULT:      -6.6      0.000      0.000
REMARK  Name = 
REMARK  5 active torsions:
REMARK  status: ('A' for Active; 'I' for Inactive)
REMARK    1  A    between atoms: C_1  and  C_2
REMARK    2  A    between atoms: N_13  and  C_14
REMARK    3  A    between atoms: C_14  and  C_15
REMARK    4  A    between atoms: C_15  and  C_16
REMARK    5  A    between atoms: C_15  and  C_17
REMARK                            x       y       z     vdW  Elec       q    Type
REMARK                         _______ _______ _______ _____ _____    ______ ____
ROOT
ATOM      1  C   UNL     1       7.518   5.493  19.546  0.00  0.00    +0.000 C 
ATOM      2  C   UNL     1       6.688   6.054  18.416  0.00  0.00    +0.000 C 
ATOM      3  O   UNL     1       7.188   6.880  17.654  0.00  0.00    +0.000 OA
ATOM      4  N   UNL     1       5.371   5.660  18.317  0.00  0.00    +0.000 N 
ATOM      5  C   UNL     1       4.558   5.407  19.518  0.00  0.00    +0.000 C 
ATOM      6  C   UNL     1       3.941   4.025  19.518  0.00  0.00    +0.000 C 
ATOM      7  S   UNL     1       3.004   3.750  18.034  0.00  0.00    +0.000 S 
ATOM      8  O   UNL     1       1.866   4.649  18.057  0.00  0.00    +0.000 OA
ATOM      9  O   UNL     1       2.798   2.321  17.906  0.00  0.00    +0.000 OA
ATOM     10  C   UNL     1       4.111   4.292  16.724  0.00  0.00    +0.000 C 
ATOM     11  C   UNL     1       5.215   3.246  16.483  0.00  0.00    +0.000 C 
ATOM     12  C   UNL     1       6.427   3.656  15.649  0.00  0.00    +0.000 C 
ATOM     13  N   UNL     1       6.225   4.594  14.549  0.00  0.00    +0.000 NA
ATOM     14  C   UNL     1       6.263   5.981  14.992  0.00  0.00    +0.000 C 
ATOM     15  C   UNL     1       5.092   6.496  15.827  0.00  0.00    +0.000 C 
ATOM     16  C   UNL     1       4.591   5.710  17.059  0.00  0.00    +0.000 C 
ENDROOT
BRANCH  13  17
ATOM     17  C   UNL     1       5.207   4.209  13.573  0.00  0.00    +0.000 C 
BRANCH  17  18
ATOM     18  C   UNL     1       5.653   3.245  12.450  0.00  0.00    +0.000 C 
ATOM     19  C   UNL     1       4.585   3.070  11.372  0.00  0.00    +0.000 C 
ATOM     20  C   UNL     1       6.953   3.765  11.828  0.00  0.00    +0.000 C 
ENDBRANCH  17  18
ENDBRANCH  13  17
TORSDOF 2
ENDMDL
MODEL 2
REMARK VINA RESULT:      -6.0      2.233      3.438
REMARK  Name = 
REMARK  5 active torsions:
REMARK  status: ('A' for Active; 'I' for Inactive)
REMARK    1  A    between atoms: C_1  and  C_2
REMARK    2  A    between atoms: N_13  and  C_14
REMARK    3  A    between atoms: C_14  and  C_15
REMARK    4  A    between atoms: C_15  and  C_16
REMARK    5  A    between atoms: C_15  and  C_17
REMARK                            x       y       z     vdW  Elec       q    Type
REMARK                         _______ _______ _______ _____ _____    ______ ____
ROOT
ATOM      1  C   UNL     1       2.109   7.067  20.754  0.00  0.00    +0.000 C 
ATOM      2  C   UNL     1       2.384   6.563  19.358  0.00  0.00    +0.000 C 
ATOM      3  O   UNL     1       2.366   7.355  18.417  0.00  0.00    +0.000 OA
ATOM      4  N   UNL     1       2.587   5.210  19.182  0.00  0.00    +0.000 N 
ATOM      5  C   UNL     1       1.857   4.218  19.987  0.00  0.00    +0.000 C 
ATOM      6  C   UNL     1       2.783   3.260  20.704  0.00  0.00    +0.000 C 
ATOM      7  S   UNL     1       3.890   2.474  19.558  0.00  0.00    +0.000 S 
ATOM      8  O   UNL     1       3.098   1.623  18.691  0.00  0.00    +0.000 OA
ATOM      9  O   UNL     1       4.984   1.911  20.324  0.00  0.00    +0.000 OA
ATOM     10  C   UNL     1       4.520   3.838  18.569  0.00  0.00    +0.000 C 
ATOM     11  C   UNL     1       5.564   4.644  19.364  0.00  0.00    +0.000 C 
ATOM     12  C   UNL     1       5.975   6.015  18.831  0.00  0.00    +0.000 C 
ATOM     13  N   UNL     1       6.029   6.207  17.385  0.00  0.00    +0.000 NA
ATOM     14  C   UNL     1       4.730   6.558  16.827  0.00  0.00    +0.000 C 
ATOM     15  C   UNL     1       3.655   5.473  16.780  0.00  0.00    +0.000 C 
ATOM     16  C   UNL     1       3.323   4.634  18.033  0.00  0.00    +0.000 C 
ENDROOT
BRANCH  13  17
ATOM     17  C   UNL     1       6.858   5.251  16.653  0.00  0.00    +0.000 C 
BRANCH  17  18
ATOM     18  C   UNL     1       6.418   4.916  15.210  0.00  0.00    +0.000 C 
ATOM     19  C   UNL     1       7.514   5.201  14.184  0.00  0.00    +0.000 C 
ATOM     20  C   UNL     1       6.001   3.443  15.142  0.00  0.00    +0.000 C 
ENDBRANCH  17  18
ENDBRANCH  13  17
TORSDOF 2
ENDMDL
MODEL 3
REMARK VINA RESULT:      -5.8      2.778      5.023
REMARK  Name = 
REMARK  5 active torsions:
REMARK  status: ('A' for Active; 'I' for Inactive)
REMARK    1  A    between atoms: C_1  and  C_2
REMARK    2  A    between atoms: N_13  and  C_14
REMARK    3  A    between atoms: C_14  and  C_15
REMARK    4  A    between atoms: C_15  and  C_16
REMARK    5  A    between atoms: C_15  and  C_17
REMARK                            x       y       z     vdW  Elec       q    Type
REMARK                         _______ _______ _______ _____ _____    ______ ____
ROOT
ATOM      1  C   UNL     1       8.183   6.985  18.618  0.00  0.00    +0.000 C 
ATOM      2  C   UNL     1       7.314   5.789  18.928  0.00  0.00    +0.000 C 
ATOM      3  O   UNL     1       7.038   5.534  20.099  0.00  0.00    +0.000 OA
ATOM      4  N   UNL     1       6.910   4.988  17.881  0.00  0.00    +0.000 N 
ATOM      5  C   UNL     1       7.789   4.740  16.728  0.00  0.00    +0.000 C 
ATOM      6  C   UNL     1       7.132   5.096  15.412  0.00  0.00    +0.000 C 
ATOM      7  S   UNL     1       5.578   4.253  15.233  0.00  0.00    +0.000 S 
ATOM      8  O   UNL     1       5.855   2.834  15.122  0.00  0.00    +0.000 OA
ATOM      9  O   UNL     1       4.831   4.931  14.192  0.00  0.00    +0.000 OA
ATOM     10  C   UNL     1       4.756   4.534  16.809  0.00  0.00    +0.000 C 
ATOM     11  C   UNL     1       4.217   5.975  16.886  0.00  0.00    +0.000 C 
ATOM     12  C   UNL     1       3.779   6.508  18.249  0.00  0.00    +0.000 C 
ATOM     13  N   UNL     1       3.168   5.577  19.192  0.00  0.00    +0.000 NA
ATOM     14  C   UNL     1       4.162   4.854  19.975  0.00  0.00    +0.000 C 
ATOM     15  C   UNL     1       5.000   3.794  19.262  0.00  0.00    +0.000 C 
ATOM     16  C   UNL     1       5.715   4.115  17.930  0.00  0.00    +0.000 C 
ENDROOT
BRANCH  13  17
ATOM     17  C   UNL     1       2.014   4.835  18.687  0.00  0.00    +0.000 C 
BRANCH  17  18
ATOM     18  C   UNL     1       1.814   3.406  19.241  0.00  0.00    +0.000 C 
ATOM     19  C   UNL     1       0.569   3.289  20.120  0.00  0.00    +0.000 C 
ATOM     20  C   UNL     1       1.730   2.421  18.071  0.00  0.00    +0.000 C 
ENDBRANCH  17  18
ENDBRANCH  13  17
TORSDOF 2
ENDMDL
MODEL 4
REMARK VINA RESULT:      -5.6      2.226      3.688
REMARK  Name = 
REMARK  5 active torsions:
REMARK  status: ('A' for Active; 'I' for Inactive)
REMARK    1  A    between atoms: C_1  and  C_2
REMARK    2  A    between atoms: N_13  and  C_14
REMARK    3  A    between atoms: C_14  and  C_15
REMARK    4  A    between atoms: C_15  and  C_16
REMARK    5  A    between atoms: C_15  and  C_17
REMARK                            x       y       z     vdW  Elec       q    Type
REMARK                         _______ _______ _______ _____ _____    ______ ____
ROOT
ATOM      1  C   UNL     1       2.016   7.600  20.703  0.00  0.00    +0.000 C 
ATOM      2  C   UNL     1       2.152   6.785  19.439  0.00  0.00    +0.000 C 
ATOM      3  O   UNL     1       2.234   7.362  18.357  0.00  0.00    +0.000 OA
ATOM      4  N   UNL     1       2.119   5.411  19.544  0.00  0.00    +0.000 N 
ATOM      5  C   UNL     1       1.262   4.741  20.535  0.00  0.00    +0.000 C 
ATOM      6  C   UNL     1       2.039   3.803  21.433  0.00  0.00    +0.000 C 
ATOM      7  S   UNL     1       2.956   2.623  20.471  0.00  0.00    +0.000 S 
ATOM      8  O   UNL     1       2.002   1.764  19.797  0.00  0.00    +0.000 OA
ATOM      9  O   UNL     1       3.967   2.047  21.335  0.00  0.00    +0.000 OA
ATOM     10  C   UNL     1       3.771   3.631  19.223  0.00  0.00    +0.000 C 
ATOM     11  C   UNL     1       4.963   4.390  19.836  0.00  0.00    +0.000 C 
ATOM     12  C   UNL     1       5.579   5.534  19.033  0.00  0.00    +0.000 C 
ATOM     13  N   UNL     1       5.612   5.419  17.579  0.00  0.00    +0.000 NA
ATOM     14  C   UNL     1       4.372   5.868  16.961  0.00  0.00    +0.000 C 
ATOM     15  C   UNL     1       3.129   4.997  17.138  0.00  0.00    +0.000 C 
ATOM     16  C   UNL     1       2.706   4.496  18.537  0.00  0.00    +0.000 C 
ENDROOT
BRANCH  13  17
ATOM     17  C   UNL     1       6.243   4.207  17.057  0.00  0.00    +0.000 C 
BRANCH  17  18
ATOM     18  C   UNL     1       6.953   4.330  15.690  0.00  0.00    +0.000 C 
ATOM     19  C   UNL     1       6.066   3.885  14.528  0.00  0.00    +0.000 C 
ATOM     20  C   UNL     1       7.404   5.780  15.487  0.00  0.00    +0.000 C 
ENDBRANCH  17  18
ENDBRANCH  13  17
TORSDOF 2
ENDMDL
MODEL 5
REMARK VINA RESULT:      -5.0      2.904      6.447
REMARK  Name = 
REMARK  5 active torsions:
REMARK  status: ('A' for Active; 'I' for Inactive)
REMARK    1  A    between atoms: C_1  and  C_2
REMARK    2  A    between atoms: N_13  and  C_14
REMARK    3  A    between atoms: C_14  and  C_15
REMARK    4  A    between atoms: C_15  and  C_16
REMARK    5  A    between atoms: C_15  and  C_17
REMARK                            x       y       z     vdW  Elec       q    Type
REMARK                         _______ _______ _______ _____ _____    ______ ____
ROOT
ATOM      1  C   UNL     1       4.041   1.371  18.442  0.00  0.00    +0.000 C 
ATOM      2  C   UNL     1       3.183   2.531  17.997  0.00  0.00    +0.000 C 
ATOM      3  O   UNL     1       1.970   2.495  18.200  0.00  0.00    +0.000 OA
ATOM      4  N   UNL     1       3.789   3.568  17.320  0.00  0.00    +0.000 N 
ATOM      5  C   UNL     1       4.902   3.323  16.389  0.00  0.00    +0.000 C 
ATOM      6  C   UNL     1       6.132   4.137  16.731  0.00  0.00    +0.000 C 
ATOM      7  S   UNL     1       5.738   5.867  16.827  0.00  0.00    +0.000 S 
ATOM      8  O   UNL     1       5.374   6.312  15.496  0.00  0.00    +0.000 OA
ATOM      9  O   UNL     1       6.817   6.520  17.542  0.00  0.00    +0.000 OA
ATOM     10  C   UNL     1       4.259   5.912  17.850  0.00  0.00    +0.000 C 
ATOM     11  C   UNL     1       4.619   5.686  19.330  0.00  0.00    +0.000 C 
ATOM     12  C   UNL     1       3.488   5.368  20.306  0.00  0.00    +0.000 C 
ATOM     13  N   UNL     1       2.187   5.989  20.084  0.00  0.00    +0.000 NA
ATOM     14  C   UNL     1       1.370   5.234  19.143  0.00  0.00    +0.000 C 
ATOM     15  C   UNL     1       1.779   5.246  17.671  0.00  0.00    +0.000 C 
ATOM     16  C   UNL     1       3.234   4.939  17.252  0.00  0.00    +0.000 C 
ENDROOT
BRANCH  13  17
ATOM     17  C   UNL     1       2.195   7.447  19.976  0.00  0.00    +0.000 C 
BRANCH  17  18
ATOM     18  C   UNL     1       1.036   8.198  20.668  0.00  0.00    +0.000 C 
ATOM     19  C   UNL     1       1.410   8.688  22.067  0.00  0.00    +0.000 C 
ATOM     20  C   UNL     1       0.608   9.379  19.791  0.00  0.00    +0.000 C 
ENDBRANCH  17  18
ENDBRANCH  13  17
TORSDOF 2
ENDMDL
MODEL 6
REMARK VINA RESULT:      -4.9      2.924      5.820
REMARK  Name = 
REMARK  5 active torsions:
REMARK  status: ('A' for Active; 'I' for Inactive)
REMARK    1  A    between atoms: C_1  and  C_2
REMARK    2  A    between atoms: N_13  and  C_14
REMARK    3  A    between atoms: C_14  and  C_15
REMARK    4  A    between atoms: C_15  and  C_16
REMARK    5  A    between atoms: C_15  and  C_17
REMARK                            x       y       z     vdW  Elec       q    Type
REMARK                         _______ _______ _______ _____ _____    ______ ____
ROOT
ATOM      1  C   UNL     1       5.166   3.734  15.625  0.00  0.00    +0.000 C 
ATOM      2  C   UNL     1       5.114   4.161  17.073  0.00  0.00    +0.000 C 
ATOM      3  O   UNL     1       5.878   5.039  17.469  0.00  0.00    +0.000 OA
ATOM      4  N   UNL     1       4.244   3.501  17.915  0.00  0.00    +0.000 N 
ATOM      5  C   UNL     1       3.975   2.063  17.760  0.00  0.00    +0.000 C 
ATOM      6  C   UNL     1       2.500   1.762  17.613  0.00  0.00    +0.000 C 
ATOM      7  S   UNL     1       1.576   2.449  18.966  0.00  0.00    +0.000 S 
ATOM      8  O   UNL     1       1.966   1.743  20.171  0.00  0.00    +0.000 OA
ATOM      9  O   UNL     1       0.183   2.491  18.568  0.00  0.00    +0.000 OA
ATOM     10  C   UNL     1       2.191   4.135  19.090  0.00  0.00    +0.000 C 
ATOM     11  C   UNL     1       1.608   5.007  17.962  0.00  0.00    +0.000 C 
ATOM     12  C   UNL     1       2.248   6.368  17.699  0.00  0.00    +0.000 C 
ATOM     13  N   UNL     1       2.776   7.116  18.835  0.00  0.00    +0.000 NA
ATOM     14  C   UNL     1       4.138   6.721  19.171  0.00  0.00    +0.000 C 
ATOM     15  C   UNL     1       4.348   5.347  19.803  0.00  0.00    +0.000 C 
ATOM     16  C   UNL     1       3.722   4.082  19.174  0.00  0.00    +0.000 C 
ENDROOT
BRANCH  13  17
ATOM     17  C   UNL     1       1.835   7.345  19.931  0.00  0.00    +0.000 C 
BRANCH  17  18
ATOM     18  C   UNL     1       1.466   8.816  20.229  0.00  0.00    +0.000 C 
ATOM     19  C   UNL     1       0.996   9.565  18.983  0.00  0.00    +0.000 C 
ATOM     20  C   UNL     1       0.380   8.852  21.309  0.00  0.00    +0.000 C 
ENDBRANCH  17  18
ENDBRANCH  13  17
TORSDOF 2
ENDMDL
MODEL 7
REMARK VINA RESULT:      -4.8      2.860      5.481
REMARK  Name = 
REMARK  5 active torsions:
REMARK  status: ('A' for Active; 'I' for Inactive)
REMARK    1  A    between atoms: C_1  and  C_2
REMARK    2  A    between atoms: N_13  and  C_14
REMARK    3  A    between atoms: C_14  and  C_15
REMARK    4  A    between atoms: C_15  and  C_16
REMARK    5  A    between atoms: C_15  and  C_17
REMARK                            x       y       z     vdW  Elec       q    Type
REMARK                         _______ _______ _______ _____ _____    ______ ____
ROOT
ATOM      1  C   UNL     1       7.265   4.983  16.778  0.00  0.00    +0.000 C 
ATOM      2  C   UNL     1       5.900   4.388  16.523  0.00  0.00    +0.000 C 
ATOM      3  O   UNL     1       5.815   3.250  16.065  0.00  0.00    +0.000 OA
ATOM      4  N   UNL     1       4.793   5.174  16.760  0.00  0.00    +0.000 N 
ATOM      5  C   UNL     1       4.815   6.622  16.499  0.00  0.00    +0.000 C 
ATOM      6  C   UNL     1       4.427   7.436  17.714  0.00  0.00    +0.000 C 
ATOM      7  S   UNL     1       2.849   6.918  18.345  0.00  0.00    +0.000 S 
ATOM      8  O   UNL     1       1.844   7.255  17.354  0.00  0.00    +0.000 OA
ATOM      9  O   UNL     1       2.731   7.424  19.698  0.00  0.00    +0.000 OA
ATOM     10  C   UNL     1       2.983   5.125  18.409  0.00  0.00    +0.000 C 
ATOM     11  C   UNL     1       3.850   4.692  19.606  0.00  0.00    +0.000 C 
ATOM     12  C   UNL     1       4.348   3.248  19.649  0.00  0.00    +0.000 C 
ATOM     13  N   UNL     1       3.486   2.202  19.110  0.00  0.00    +0.000 NA
ATOM     14  C   UNL     1       3.643   2.043  17.671  0.00  0.00    +0.000 C 
ATOM     15  C   UNL     1       3.098   3.147  16.766  0.00  0.00    +0.000 C 
ATOM     16  C   UNL     1       3.442   4.630  17.032  0.00  0.00    +0.000 C 
ENDROOT
BRANCH  13  17
ATOM     17  C   UNL     1       2.134   2.152  19.666  0.00  0.00    +0.000 C 
BRANCH  17  18
ATOM     18  C   UNL     1       1.820   3.141  20.811  0.00  0.00    +0.000 C 
ATOM     19  C   UNL     1       0.646   4.062  20.482  0.00  0.00    +0.000 C 
ATOM     20  C   UNL     1       1.529   2.351  22.091  0.00  0.00    +0.000 C 
ENDBRANCH  17  18
ENDBRANCH  13  17
TORSDOF 2
ENDMDL
MODEL 8
REMARK VINA RESULT:      -4.8      9.906     12.622
REMARK  Name = 
REMARK  5 active torsions:
REMARK  status: ('A' for Active; 'I' for Inactive)
REMARK    1  A    between atoms: C_1  and  C_2
REMARK    2  A    between atoms: N_13  and  C_14
REMARK    3  A    between atoms: C_14  and  C_15
REMARK    4  A    between atoms: C_15  and  C_16
REMARK    5  A    between atoms: C_15  and  C_17
REMARK                            x       y       z     vdW  Elec       q    Type
REMARK                         _______ _______ _______ _____ _____    ______ ____
ROOT
ATOM      1  C   UNL     1      -1.735  11.856  17.927  0.00  0.00    +0.000 C 
ATOM      2  C   UNL     1      -0.806  12.572  18.879  0.00  0.00    +0.000 C 
ATOM      3  O   UNL     1      -0.598  13.774  18.726  0.00  0.00    +0.000 OA
ATOM      4  N   UNL     1      -0.175  11.830  19.854  0.00  0.00    +0.000 N 
ATOM      5  C   UNL     1       0.264  10.450  19.599  0.00  0.00    +0.000 C 
ATOM      6  C   UNL     1      -0.295   9.468  20.606  0.00  0.00    +0.000 C 
ATOM      7  S   UNL     1       0.095   9.974  22.265  0.00  0.00    +0.000 S 
ATOM      8  O   UNL     1       1.533   9.875  22.430  0.00  0.00    +0.000 OA
ATOM      9  O   UNL     1      -0.789   9.255  23.160  0.00  0.00    +0.000 OA
ATOM     10  C   UNL     1      -0.347  11.717  22.294  0.00  0.00    +0.000 C 
ATOM     11  C   UNL     1      -1.876  11.885  22.368  0.00  0.00    +0.000 C 
ATOM     12  C   UNL     1      -2.464  13.264  22.079  0.00  0.00    +0.000 C 
ATOM     13  N   UNL     1      -1.702  14.441  22.485  0.00  0.00    +0.000 NA
ATOM     14  C   UNL     1      -0.716  14.830  21.486  0.00  0.00    +0.000 C 
ATOM     15  C   UNL     1       0.507  13.933  21.302  0.00  0.00    +0.000 C 
ATOM     16  C   UNL     1       0.348  12.408  21.114  0.00  0.00    +0.000 C 
ENDROOT
BRANCH  13  17
ATOM     17  C   UNL     1      -1.312  14.483  23.894  0.00  0.00    +0.000 C 
BRANCH  17  18
ATOM     18  C   UNL     1      -1.943  15.601  24.754  0.00  0.00    +0.000 C 
ATOM     19  C   UNL     1      -3.453  15.427  24.920  0.00  0.00    +0.000 C 
ATOM     20  C   UNL     1      -1.260  15.627  26.124  0.00  0.00    +0.000 C 
ENDBRANCH  17  18
ENDBRANCH  13  17
TORSDOF 2
ENDMDL
MODEL 9
REMARK VINA RESULT:      -4.8     10.898     12.774
REMARK  Name = 
REMARK  5 active torsions:
REMARK  status: ('A' for Active; 'I' for Inactive)
REMARK    1  A    between atoms: C_1  and  C_2
REMARK    2  A    between atoms: N_13  and  C_14
REMARK    3  A    between atoms: C_14  and  C_15
REMARK    4  A    between atoms: C_15  and  C_16
REMARK    5  A    between atoms: C_15  and  C_17
REMARK                            x       y       z     vdW  Elec       q    Type
REMARK                         _______ _______ _______ _____ _____    ______ ____
ROOT
ATOM      1  C   UNL     1      -1.489  15.399  25.578  0.00  0.00    +0.000 C 
ATOM      2  C   UNL     1      -1.235  15.243  24.097  0.00  0.00    +0.000 C 
ATOM      3  O   UNL     1      -0.092  15.383  23.665  0.00  0.00    +0.000 OA
ATOM      4  N   UNL     1      -2.314  15.007  23.273  0.00  0.00    +0.000 N 
ATOM      5  C   UNL     1      -3.626  15.618  23.540  0.00  0.00    +0.000 C 
ATOM      6  C   UNL     1      -4.733  14.591  23.636  0.00  0.00    +0.000 C 
ATOM      7  S   UNL     1      -4.779  13.572  22.181  0.00  0.00    +0.000 S 
ATOM      8  O   UNL     1      -5.168  14.413  21.065  0.00  0.00    +0.000 OA
ATOM      9  O   UNL     1      -5.551  12.388  22.502  0.00  0.00    +0.000 OA
ATOM     10  C   UNL     1      -3.062  13.093  21.941  0.00  0.00    +0.000 C 
ATOM     11  C   UNL     1      -2.658  12.008  22.956  0.00  0.00    +0.000 C 
ATOM     12  C   UNL     1      -1.171  11.703  23.131  0.00  0.00    +0.000 C 
ATOM     13  N   UNL     1      -0.303  11.797  21.962  0.00  0.00    +0.000 NA
ATOM     14  C   UNL     1       0.168  13.157  21.733  0.00  0.00    +0.000 C 
ATOM     15  C   UNL     1      -0.842  14.189  21.236  0.00  0.00    +0.000 C 
ATOM     16  C   UNL     1      -2.205  14.366  21.942  0.00  0.00    +0.000 C 
ENDROOT
BRANCH  13  17
ATOM     17  C   UNL     1      -0.718  11.008  20.803  0.00  0.00    +0.000 C 
BRANCH  17  18
ATOM     18  C   UNL     1       0.073   9.709  20.531  0.00  0.00    +0.000 C 
ATOM     19  C   UNL     1       0.856   9.765  19.220  0.00  0.00    +0.000 C 
ATOM     20  C   UNL     1       1.023   9.445  21.704  0.00  0.00    +0.000 C 
ENDBRANCH  17  18
ENDBRANCH  13  17
TORSDOF 2
ENDMDL
