MODEL 1
REMARK VINA RESULT:      -7.4      0.000      0.000
REMARK  Name = 
REMARK  4 active torsions:
REMARK  status: ('A' for Active; 'I' for Inactive)
REMARK    1  A    between atoms: C_1  and  N_2
REMARK    2  A    between atoms: N_2  and  C_3
REMARK    3  A    between atoms: N_2  and  C_13
REMARK    4  A    between atoms: C_3  and  C_4
REMARK                            x       y       z     vdW  Elec       q    Type
REMARK                         _______ _______ _______ _____ _____    ______ ____
ROOT
ATOM      1  C   UNL     1       4.172   1.713  17.888  0.00  0.00    +0.000 C 
ATOM      2  N   UNL     1       3.895   3.122  17.628  0.00  0.00    +0.000 N 
ENDROOT
BRANCH   2   3
ATOM      3  C   UNL     1       4.793   3.877  16.860  0.00  0.00    +0.000 A 
ATOM      4  C   UNL     1       4.762   3.816  15.460  0.00  0.00    +0.000 A 
ATOM      5  C   UNL     1       5.617   4.607  14.715  0.00  0.00    +0.000 A 
ATOM      6  N   UNL     1       6.492   5.475  15.254  0.00  0.00    +0.000 NA
ATOM      7  C   UNL     1       6.582   5.528  16.587  0.00  0.00    +0.000 A 
ATOM      8  C   UNL     1       7.519   6.391  17.131  0.00  0.00    +0.000 A 
ATOM      9  C   UNL     1       7.715   6.471  18.500  0.00  0.00    +0.000 A 
ATOM     10  F   UNL     1       8.639   7.316  18.993  0.00  0.00    +0.000 F 
ATOM     11  C   UNL     1       7.005   5.666  19.362  0.00  0.00    +0.000 A 
ATOM     12  C   UNL     1       6.072   4.783  18.832  0.00  0.00    +0.000 A 
ATOM     13  C   UNL     1       5.783   4.727  17.446  0.00  0.00    +0.000 A 
ENDBRANCH   2   3
BRANCH   2  14
ATOM     14  C   UNL     1       2.481   3.549  17.743  0.00  0.00    +0.000 C 
BRANCH  14  15
ATOM     15  C   UNL     1       2.134   4.355  18.963  0.00  0.00    +0.000 A 
ATOM     16  N   UNL     1       1.879   3.888  20.176  0.00  0.00    +0.000 NA
ATOM     17  N   UNL     1       1.689   4.951  21.026  0.00  0.00    +0.000 NA
ATOM     18  C   UNL     1       1.811   6.054  20.323  0.00  0.00    +0.000 A 
ATOM     19  C   UNL     1       1.692   7.430  20.664  0.00  0.00    +0.000 A 
ATOM     20  C   UNL     1       1.884   8.369  19.716  0.00  0.00    +0.000 A 
ATOM     21  C   UNL     1       2.231   8.005  18.350  0.00  0.00    +0.000 A 
ATOM     22  C   UNL     1       2.334   6.705  18.024  0.00  0.00    +0.000 A 
ATOM     23  N   UNL     1       2.110   5.736  19.003  0.00  0.00    +0.000 N 
ENDBRANCH  14  15
ENDBRANCH   2  14
TORSDOF 3
ENDMDL
MODEL 2
REMARK VINA RESULT:      -7.3      2.805      6.688
REMARK  Name = 
REMARK  4 active torsions:
REMARK  status: ('A' for Active; 'I' for Inactive)
REMARK    1  A    between atoms: C_1  and  N_2
REMARK    2  A    between atoms: N_2  and  C_3
REMARK    3  A    between atoms: N_2  and  C_13
REMARK    4  A    between atoms: C_3  and  C_4
REMARK                            x       y       z     vdW  Elec       q    Type
REMARK                         _______ _______ _______ _____ _____    ______ ____
ROOT
ATOM      1  C   UNL     1       6.492   4.516  18.195  0.00  0.00    +0.000 C 
ATOM      2  N   UNL     1       5.104   4.445  17.746  0.00  0.00    +0.000 N 
ENDROOT
BRANCH   2   3
ATOM      3  C   UNL     1       4.094   5.041  18.515  0.00  0.00    +0.000 A 
ATOM      4  C   UNL     1       3.761   6.390  18.335  0.00  0.00    +0.000 A 
ATOM      5  C   UNL     1       2.726   6.949  19.061  0.00  0.00    +0.000 A 
ATOM      6  N   UNL     1       1.977   6.264  19.943  0.00  0.00    +0.000 NA
ATOM      7  C   UNL     1       2.293   4.986  20.175  0.00  0.00    +0.000 A 
ATOM      8  C   UNL     1       1.545   4.302  21.119  0.00  0.00    +0.000 A 
ATOM      9  C   UNL     1       1.838   2.991  21.460  0.00  0.00    +0.000 A 
ATOM     10  F   UNL     1       1.093   2.361  22.386  0.00  0.00    +0.000 F 
ATOM     11  C   UNL     1       2.908   2.338  20.891  0.00  0.00    +0.000 A 
ATOM     12  C   UNL     1       3.679   3.014  19.953  0.00  0.00    +0.000 A 
ATOM     13  C   UNL     1       3.366   4.326  19.518  0.00  0.00    +0.000 A 
ENDBRANCH   2   3
BRANCH   2  14
ATOM     14  C   UNL     1       4.890   4.208  16.300  0.00  0.00    +0.000 C 
BRANCH  14  15
ATOM     15  C   UNL     1       5.984   4.684  15.386  0.00  0.00    +0.000 A 
ATOM     16  N   UNL     1       6.984   5.494  15.700  0.00  0.00    +0.000 NA
ATOM     17  N   UNL     1       7.810   5.616  14.608  0.00  0.00    +0.000 NA
ATOM     18  C   UNL     1       7.300   4.896  13.635  0.00  0.00    +0.000 A 
ATOM     19  C   UNL     1       7.705   4.671  12.290  0.00  0.00    +0.000 A 
ATOM     20  C   UNL     1       6.975   3.857  11.503  0.00  0.00    +0.000 A 
ATOM     21  C   UNL     1       5.786   3.183  12.006  0.00  0.00    +0.000 A 
ATOM     22  C   UNL     1       5.396   3.403  13.273  0.00  0.00    +0.000 A 
ATOM     23  N   UNL     1       6.142   4.266  14.078  0.00  0.00    +0.000 N 
ENDBRANCH  14  15
ENDBRANCH   2  14
TORSDOF 3
ENDMDL
MODEL 3
REMARK VINA RESULT:      -7.2      1.928      5.446
REMARK  Name = 
REMARK  4 active torsions:
REMARK  status: ('A' for Active; 'I' for Inactive)
REMARK    1  A    between atoms: C_1  and  N_2
REMARK    2  A    between atoms: N_2  and  C_3
REMARK    3  A    between atoms: N_2  and  C_13
REMARK    4  A    between atoms: C_3  and  C_4
REMARK                            x       y       z     vdW  Elec       q    Type
REMARK                         _______ _______ _______ _____ _____    ______ ____
ROOT
ATOM      1  C   UNL     1       2.278   2.606  17.021  0.00  0.00    +0.000 C 
ATOM      2  N   UNL     1       3.152   3.553  17.708  0.00  0.00    +0.000 N 
ENDROOT
BRANCH   2   3
ATOM      3  C   UNL     1       2.706   4.189  18.875  0.00  0.00    +0.000 A 
ATOM      4  C   UNL     1       2.509   3.458  20.056  0.00  0.00    +0.000 A 
ATOM      5  C   UNL     1       2.123   4.108  21.213  0.00  0.00    +0.000 A 
ATOM      6  N   UNL     1       1.935   5.437  21.297  0.00  0.00    +0.000 NA
ATOM      7  C   UNL     1       2.069   6.161  20.181  0.00  0.00    +0.000 A 
ATOM      8  C   UNL     1       1.828   7.522  20.269  0.00  0.00    +0.000 A 
ATOM      9  C   UNL     1       1.893   8.339  19.151  0.00  0.00    +0.000 A 
ATOM     10  F   UNL     1       1.646   9.656  19.272  0.00  0.00    +0.000 F 
ATOM     11  C   UNL     1       2.167   7.813  17.909  0.00  0.00    +0.000 A 
ATOM     12  C   UNL     1       2.397   6.446  17.800  0.00  0.00    +0.000 A 
ATOM     13  C   UNL     1       2.419   5.589  18.929  0.00  0.00    +0.000 A 
ENDBRANCH   2   3
BRANCH   2  14
ATOM     14  C   UNL     1       4.604   3.420  17.446  0.00  0.00    +0.000 C 
BRANCH  14  15
ATOM     15  C   UNL     1       5.301   4.658  16.958  0.00  0.00    +0.000 A 
ATOM     16  N   UNL     1       5.060   5.312  15.831  0.00  0.00    +0.000 NA
ATOM     17  N   UNL     1       5.853   6.435  15.796  0.00  0.00    +0.000 NA
ATOM     18  C   UNL     1       6.581   6.446  16.890  0.00  0.00    +0.000 A 
ATOM     19  C   UNL     1       7.580   7.337  17.370  0.00  0.00    +0.000 A 
ATOM     20  C   UNL     1       8.167   7.100  18.560  0.00  0.00    +0.000 A 
ATOM     21  C   UNL     1       7.785   5.957  19.377  0.00  0.00    +0.000 A 
ATOM     22  C   UNL     1       6.848   5.108  18.920  0.00  0.00    +0.000 A 
ATOM     23  N   UNL     1       6.261   5.345  17.676  0.00  0.00    +0.000 N 
ENDBRANCH  14  15
ENDBRANCH   2  14
TORSDOF 3
ENDMDL
MODEL 4
REMARK VINA RESULT:      -7.2      2.428      6.550
REMARK  Name = 
REMARK  4 active torsions:
REMARK  status: ('A' for Active; 'I' for Inactive)
REMARK    1  A    between atoms: C_1  and  N_2
REMARK    2  A    between atoms: N_2  and  C_3
REMARK    3  A    between atoms: N_2  and  C_13
REMARK    4  A    between atoms: C_3  and  C_4
REMARK                            x       y       z     vdW  Elec       q    Type
REMARK                         _______ _______ _______ _____ _____    ______ ____
ROOT
ATOM      1  C   UNL     1       6.447   4.322  18.024  0.00  0.00    +0.000 C 
ATOM      2  N   UNL     1       5.143   4.229  17.374  0.00  0.00    +0.000 N 
ENDROOT
BRANCH   2   3
ATOM      3  C   UNL     1       4.044   3.734  18.090  0.00  0.00    +0.000 A 
ATOM      4  C   UNL     1       3.718   2.372  18.047  0.00  0.00    +0.000 A 
ATOM      5  C   UNL     1       2.665   1.889  18.802  0.00  0.00    +0.000 A 
ATOM      6  N   UNL     1       1.918   2.654  19.617  0.00  0.00    +0.000 NA
ATOM      7  C   UNL     1       2.170   3.967  19.650  0.00  0.00    +0.000 A 
ATOM      8  C   UNL     1       1.364   4.753  20.458  0.00  0.00    +0.000 A 
ATOM      9  C   UNL     1       1.521   6.129  20.511  0.00  0.00    +0.000 A 
ATOM     10  F   UNL     1       0.716   6.862  21.302  0.00  0.00    +0.000 F 
ATOM     11  C   UNL     1       2.465   6.761  19.733  0.00  0.00    +0.000 A 
ATOM     12  C   UNL     1       3.272   5.989  18.906  0.00  0.00    +0.000 A 
ATOM     13  C   UNL     1       3.198   4.574  18.881  0.00  0.00    +0.000 A 
ENDBRANCH   2   3
BRANCH   2  14
ATOM     14  C   UNL     1       4.928   5.106  16.200  0.00  0.00    +0.000 C 
BRANCH  14  15
ATOM     15  C   UNL     1       6.051   5.160  15.203  0.00  0.00    +0.000 A 
ATOM     16  N   UNL     1       7.211   5.784  15.348  0.00  0.00    +0.000 NA
ATOM     17  N   UNL     1       7.992   5.522  14.248  0.00  0.00    +0.000 NA
ATOM     18  C   UNL     1       7.298   4.758  13.435  0.00  0.00    +0.000 A 
ATOM     19  C   UNL     1       7.583   4.206  12.156  0.00  0.00    +0.000 A 
ATOM     20  C   UNL     1       6.664   3.432  11.545  0.00  0.00    +0.000 A 
ATOM     21  C   UNL     1       5.387   3.132  12.177  0.00  0.00    +0.000 A 
ATOM     22  C   UNL     1       5.111   3.662  13.381  0.00  0.00    +0.000 A 
ATOM     23  N   UNL     1       6.058   4.482  13.999  0.00  0.00    +0.000 N 
ENDBRANCH  14  15
ENDBRANCH   2  14
TORSDOF 3
ENDMDL
MODEL 5
REMARK VINA RESULT:      -7.1      2.552      4.221
REMARK  Name = 
REMARK  4 active torsions:
REMARK  status: ('A' for Active; 'I' for Inactive)
REMARK    1  A    between atoms: C_1  and  N_2
REMARK    2  A    between atoms: N_2  and  C_3
REMARK    3  A    between atoms: N_2  and  C_13
REMARK    4  A    between atoms: C_3  and  C_4
REMARK                            x       y       z     vdW  Elec       q    Type
REMARK                         _______ _______ _______ _____ _____    ______ ____
ROOT
ATOM      1  C   UNL     1       3.164   6.341  17.897  0.00  0.00    +0.000 C 
ATOM      2  N   UNL     1       3.862   5.354  17.078  0.00  0.00    +0.000 N 
ENDROOT
BRANCH   2   3
ATOM      3  C   UNL     1       5.157   5.626  16.615  0.00  0.00    +0.000 A 
ATOM      4  C   UNL     1       6.025   6.438  17.357  0.00  0.00    +0.000 A 
ATOM      5  C   UNL     1       7.317   6.653  16.916  0.00  0.00    +0.000 A 
ATOM      6  N   UNL     1       7.826   6.103  15.799  0.00  0.00    +0.000 NA
ATOM      7  C   UNL     1       7.015   5.359  15.041  0.00  0.00    +0.000 A 
ATOM      8  C   UNL     1       7.536   4.836  13.868  0.00  0.00    +0.000 A 
ATOM      9  C   UNL     1       6.751   4.097  12.998  0.00  0.00    +0.000 A 
ATOM     10  F   UNL     1       7.289   3.610  11.865  0.00  0.00    +0.000 F 
ATOM     11  C   UNL     1       5.415   3.889  13.257  0.00  0.00    +0.000 A 
ATOM     12  C   UNL     1       4.872   4.419  14.422  0.00  0.00    +0.000 A 
ATOM     13  C   UNL     1       5.657   5.112  15.377  0.00  0.00    +0.000 A 
ENDBRANCH   2   3
BRANCH   2  14
ATOM     14  C   UNL     1       3.397   3.952  17.195  0.00  0.00    +0.000 C 
BRANCH  14  15
ATOM     15  C   UNL     1       3.650   3.283  18.517  0.00  0.00    +0.000 A 
ATOM     16  N   UNL     1       4.802   2.791  18.949  0.00  0.00    +0.000 NA
ATOM     17  N   UNL     1       4.632   2.341  20.237  0.00  0.00    +0.000 NA
ATOM     18  C   UNL     1       3.378   2.546  20.572  0.00  0.00    +0.000 A 
ATOM     19  C   UNL     1       2.640   2.261  21.754  0.00  0.00    +0.000 A 
ATOM     20  C   UNL     1       1.337   2.600  21.822  0.00  0.00    +0.000 A 
ATOM     21  C   UNL     1       0.671   3.273  20.716  0.00  0.00    +0.000 A 
ATOM     22  C   UNL     1       1.365   3.534  19.595  0.00  0.00    +0.000 A 
ATOM     23  N   UNL     1       2.708   3.159  19.520  0.00  0.00    +0.000 N 
ENDBRANCH  14  15
ENDBRANCH   2  14
TORSDOF 3
ENDMDL
MODEL 6
REMARK VINA RESULT:      -7.1      1.729      2.737
REMARK  Name = 
REMARK  4 active torsions:
REMARK  status: ('A' for Active; 'I' for Inactive)
REMARK    1  A    between atoms: C_1  and  N_2
REMARK    2  A    between atoms: N_2  and  C_3
REMARK    3  A    between atoms: N_2  and  C_13
REMARK    4  A    between atoms: C_3  and  C_4
REMARK                            x       y       z     vdW  Elec       q    Type
REMARK                         _______ _______ _______ _____ _____    ______ ____
ROOT
ATOM      1  C   UNL     1       3.733   2.192  18.039  0.00  0.00    +0.000 C 
ATOM      2  N   UNL     1       3.830   3.647  18.104  0.00  0.00    +0.000 N 
ENDROOT
BRANCH   2   3
ATOM      3  C   UNL     1       5.067   4.271  17.893  0.00  0.00    +0.000 A 
ATOM      4  C   UNL     1       5.801   4.786  18.970  0.00  0.00    +0.000 A 
ATOM      5  C   UNL     1       7.045   5.349  18.753  0.00  0.00    +0.000 A 
ATOM      6  N   UNL     1       7.630   5.423  17.545  0.00  0.00    +0.000 NA
ATOM      7  C   UNL     1       6.943   4.984  16.486  0.00  0.00    +0.000 A 
ATOM      8  C   UNL     1       7.536   5.107  15.241  0.00  0.00    +0.000 A 
ATOM      9  C   UNL     1       6.873   4.726  14.085  0.00  0.00    +0.000 A 
ATOM     10  F   UNL     1       7.478   4.866  12.892  0.00  0.00    +0.000 F 
ATOM     11  C   UNL     1       5.585   4.242  14.139  0.00  0.00    +0.000 A 
ATOM     12  C   UNL     1       4.969   4.126  15.379  0.00  0.00    +0.000 A 
ATOM     13  C   UNL     1       5.639   4.428  16.590  0.00  0.00    +0.000 A 
ENDBRANCH   2   3
BRANCH   2  14
ATOM     14  C   UNL     1       2.574   4.402  17.886  0.00  0.00    +0.000 C 
BRANCH  14  15
ATOM     15  C   UNL     1       2.162   5.329  18.996  0.00  0.00    +0.000 A 
ATOM     16  N   UNL     1       1.919   4.999  20.255  0.00  0.00    +0.000 NA
ATOM     17  N   UNL     1       1.654   6.145  20.966  0.00  0.00    +0.000 NA
ATOM     18  C   UNL     1       1.719   7.159  20.133  0.00  0.00    +0.000 A 
ATOM     19  C   UNL     1       1.512   8.556  20.301  0.00  0.00    +0.000 A 
ATOM     20  C   UNL     1       1.659   9.382  19.246  0.00  0.00    +0.000 A 
ATOM     21  C   UNL     1       2.047   8.875  17.937  0.00  0.00    +0.000 A 
ATOM     22  C   UNL     1       2.232   7.554  17.774  0.00  0.00    +0.000 A 
ATOM     23  N   UNL     1       2.054   6.700  18.865  0.00  0.00    +0.000 N 
ENDBRANCH  14  15
ENDBRANCH   2  14
TORSDOF 3
ENDMDL
MODEL 7
REMARK VINA RESULT:      -7.0      2.074      3.116
REMARK  Name = 
REMARK  4 active torsions:
REMARK  status: ('A' for Active; 'I' for Inactive)
REMARK    1  A    between atoms: C_1  and  N_2
REMARK    2  A    between atoms: N_2  and  C_3
REMARK    3  A    between atoms: N_2  and  C_13
REMARK    4  A    between atoms: C_3  and  C_4
REMARK                            x       y       z     vdW  Elec       q    Type
REMARK                         _______ _______ _______ _____ _____    ______ ____
ROOT
ATOM      1  C   UNL     1       4.730   3.671  19.407  0.00  0.00    +0.000 C 
ATOM      2  N   UNL     1       4.468   4.884  18.638  0.00  0.00    +0.000 N 
ENDROOT
BRANCH   2   3
ATOM      3  C   UNL     1       5.483   5.434  17.841  0.00  0.00    +0.000 A 
ATOM      4  C   UNL     1       6.280   6.482  18.322  0.00  0.00    +0.000 A 
ATOM      5  C   UNL     1       7.312   6.976  17.547  0.00  0.00    +0.000 A 
ATOM      6  N   UNL     1       7.631   6.495  16.332  0.00  0.00    +0.000 NA
ATOM      7  C   UNL     1       6.865   5.526  15.820  0.00  0.00    +0.000 A 
ATOM      8  C   UNL     1       7.174   5.071  14.549  0.00  0.00    +0.000 A 
ATOM      9  C   UNL     1       6.401   4.106  13.922  0.00  0.00    +0.000 A 
ATOM     10  F   UNL     1       6.726   3.692  12.685  0.00  0.00    +0.000 F 
ATOM     11  C   UNL     1       5.279   3.595  14.534  0.00  0.00    +0.000 A 
ATOM     12  C   UNL     1       4.946   4.052  15.804  0.00  0.00    +0.000 A 
ATOM     13  C   UNL     1       5.752   4.977  16.513  0.00  0.00    +0.000 A 
ENDBRANCH   2   3
BRANCH   2  14
ATOM     14  C   UNL     1       3.048   5.181  18.336  0.00  0.00    +0.000 C 
BRANCH  14  15
ATOM     15  C   UNL     1       2.358   6.124  19.280  0.00  0.00    +0.000 A 
ATOM     16  N   UNL     1       1.972   5.863  20.521  0.00  0.00    +0.000 NA
ATOM     17  N   UNL     1       1.456   7.012  21.071  0.00  0.00    +0.000 NA
ATOM     18  C   UNL     1       1.515   7.956  20.159  0.00  0.00    +0.000 A 
ATOM     19  C   UNL     1       1.107   9.318  20.158  0.00  0.00    +0.000 A 
ATOM     20  C   UNL     1       1.304  10.071  19.058  0.00  0.00    +0.000 A 
ATOM     21  C   UNL     1       1.946   9.524  17.872  0.00  0.00    +0.000 A 
ATOM     22  C   UNL     1       2.324   8.233  17.867  0.00  0.00    +0.000 A 
ATOM     23  N   UNL     1       2.095   7.451  19.002  0.00  0.00    +0.000 N 
ENDBRANCH  14  15
ENDBRANCH   2  14
TORSDOF 3
ENDMDL
MODEL 8
REMARK VINA RESULT:      -6.9      2.089      3.498
REMARK  Name = 
REMARK  4 active torsions:
REMARK  status: ('A' for Active; 'I' for Inactive)
REMARK    1  A    between atoms: C_1  and  N_2
REMARK    2  A    between atoms: N_2  and  C_3
REMARK    3  A    between atoms: N_2  and  C_13
REMARK    4  A    between atoms: C_3  and  C_4
REMARK                            x       y       z     vdW  Elec       q    Type
REMARK                         _______ _______ _______ _____ _____    ______ ____
ROOT
ATOM      1  C   UNL     1       3.027   3.699  17.924  0.00  0.00    +0.000 C 
ATOM      2  N   UNL     1       3.815   4.625  18.733  0.00  0.00    +0.000 N 
ENDROOT
BRANCH   2   3
ATOM      3  C   UNL     1       5.135   4.920  18.363  0.00  0.00    +0.000 A 
ATOM      4  C   UNL     1       6.070   5.331  19.322  0.00  0.00    +0.000 A 
ATOM      5  C   UNL     1       7.381   5.565  18.952  0.00  0.00    +0.000 A 
ATOM      6  N   UNL     1       7.845   5.402  17.700  0.00  0.00    +0.000 NA
ATOM      7  C   UNL     1       6.973   5.054  16.748  0.00  0.00    +0.000 A 
ATOM      8  C   UNL     1       7.451   4.933  15.454  0.00  0.00    +0.000 A 
ATOM      9  C   UNL     1       6.606   4.628  14.399  0.00  0.00    +0.000 A 
ATOM     10  F   UNL     1       7.105   4.526  13.154  0.00  0.00    +0.000 F 
ATOM     11  C   UNL     1       5.254   4.468  14.602  0.00  0.00    +0.000 A 
ATOM     12  C   UNL     1       4.754   4.601  15.893  0.00  0.00    +0.000 A 
ATOM     13  C   UNL     1       5.594   4.832  17.011  0.00  0.00    +0.000 A 
ENDBRANCH   2   3
BRANCH   2  14
ATOM     14  C   UNL     1       3.054   5.574  19.579  0.00  0.00    +0.000 C 
BRANCH  14  15
ATOM     15  C   UNL     1       2.696   6.885  18.939  0.00  0.00    +0.000 A 
ATOM     16  N   UNL     1       2.948   7.255  17.692  0.00  0.00    +0.000 NA
ATOM     17  N   UNL     1       2.386   8.491  17.477  0.00  0.00    +0.000 NA
ATOM     18  C   UNL     1       1.814   8.872  18.597  0.00  0.00    +0.000 A 
ATOM     19  C   UNL     1       1.114  10.054  18.965  0.00  0.00    +0.000 A 
ATOM     20  C   UNL     1       0.615  10.170  20.212  0.00  0.00    +0.000 A 
ATOM     21  C   UNL     1       0.760   9.100  21.188  0.00  0.00    +0.000 A 
ATOM     22  C   UNL     1       1.430   7.987  20.845  0.00  0.00    +0.000 A 
ATOM     23  N   UNL     1       1.967   7.881  19.560  0.00  0.00    +0.000 N 
ENDBRANCH  14  15
ENDBRANCH   2  14
TORSDOF 3
ENDMDL
MODEL 9
REMARK VINA RESULT:      -6.7      2.864      6.363
REMARK  Name = 
REMARK  4 active torsions:
REMARK  status: ('A' for Active; 'I' for Inactive)
REMARK    1  A    between atoms: C_1  and  N_2
REMARK    2  A    between atoms: N_2  and  C_3
REMARK    3  A    between atoms: N_2  and  C_13
REMARK    4  A    between atoms: C_3  and  C_4
REMARK                            x       y       z     vdW  Elec       q    Type
REMARK                         _______ _______ _______ _____ _____    ______ ____
ROOT
ATOM      1  C   UNL     1       1.563   5.511  20.744  0.00  0.00    +0.000 C 
ATOM      2  N   UNL     1       2.400   6.229  19.788  0.00  0.00    +0.000 N 
ENDROOT
BRANCH   2   3
ATOM      3  C   UNL     1       2.050   7.529  19.396  0.00  0.00    +0.000 A 
ATOM      4  C   UNL     1       2.310   7.977  18.093  0.00  0.00    +0.000 A 
ATOM      5  C   UNL     1       1.909   9.241  17.705  0.00  0.00    +0.000 A 
ATOM      6  N   UNL     1       1.247  10.094  18.506  0.00  0.00    +0.000 NA
ATOM      7  C   UNL     1       1.021   9.720  19.770  0.00  0.00    +0.000 A 
ATOM      8  C   UNL     1       0.380  10.625  20.600  0.00  0.00    +0.000 A 
ATOM      9  C   UNL     1       0.153  10.340  21.937  0.00  0.00    +0.000 A 
ATOM     10  F   UNL     1      -0.467  11.246  22.716  0.00  0.00    +0.000 F 
ATOM     11  C   UNL     1       0.590   9.158  22.490  0.00  0.00    +0.000 A 
ATOM     12  C   UNL     1       1.248   8.244  21.675  0.00  0.00    +0.000 A 
ATOM     13  C   UNL     1       1.430   8.461  20.286  0.00  0.00    +0.000 A 
ENDBRANCH   2   3
BRANCH   2  14
ATOM     14  C   UNL     1       3.806   5.775  19.671  0.00  0.00    +0.000 C 
BRANCH  14  15
ATOM     15  C   UNL     1       4.099   4.829  18.540  0.00  0.00    +0.000 A 
ATOM     16  N   UNL     1       3.397   3.760  18.197  0.00  0.00    +0.000 NA
ATOM     17  N   UNL     1       3.950   3.216  17.061  0.00  0.00    +0.000 NA
ATOM     18  C   UNL     1       4.992   3.946  16.733  0.00  0.00    +0.000 A 
ATOM     19  C   UNL     1       5.945   3.843  15.682  0.00  0.00    +0.000 A 
ATOM     20  C   UNL     1       6.926   4.761  15.582  0.00  0.00    +0.000 A 
ATOM     21  C   UNL     1       7.021   5.873  16.518  0.00  0.00    +0.000 A 
ATOM     22  C   UNL     1       6.127   5.966  17.517  0.00  0.00    +0.000 A 
ATOM     23  N   UNL     1       5.127   4.998  17.631  0.00  0.00    +0.000 N 
ENDBRANCH  14  15
ENDBRANCH   2  14
TORSDOF 3
ENDMDL
