MODEL 1
REMARK VINA RESULT:      -6.3      0.000      0.000
REMARK  Name = 
REMARK  1 active torsions:
REMARK  status: ('A' for Active; 'I' for Inactive)
REMARK    1  A    between atoms: O_1  and  C_2
REMARK                            x       y       z     vdW  Elec       q    Type
REMARK                         _______ _______ _______ _____ _____    ______ ____
ROOT
ATOM      1  C   UNL     1       5.989   4.338  17.569  0.00  0.00    +0.000 A 
ATOM      2  N   UNL     1       7.285   4.627  17.629  0.00  0.00    +0.000 NA
ATOM      3  S   UNL     1       7.407   5.528  19.035  0.00  0.00    +0.000 S 
ATOM      4  N   UNL     1       5.814   5.543  19.532  0.00  0.00    +0.000 NA
ATOM      5  C   UNL     1       5.119   4.839  18.625  0.00  0.00    +0.000 A 
ATOM      6  N   UNL     1       3.751   4.638  18.697  0.00  0.00    +0.000 N 
ATOM      7  C   UNL     1       2.941   5.610  19.439  0.00  0.00    +0.000 C 
ATOM      8  C   UNL     1       2.303   4.975  20.674  0.00  0.00    +0.000 C 
ATOM      9  C   UNL     1       1.096   4.088  20.379  0.00  0.00    +0.000 C 
ATOM     10  C   UNL     1       1.373   2.943  19.410  0.00  0.00    +0.000 C 
ATOM     11  C   UNL     1       1.637   3.437  17.991  0.00  0.00    +0.000 C 
ATOM     12  C   UNL     1       3.097   3.782  17.708  0.00  0.00    +0.000 C 
ENDROOT
BRANCH   1  13
ATOM     13  O   UNL     1       5.665   3.628  16.479  0.00  0.00    +0.000 OA
ATOM     14  H   UNL     1       5.921   4.184  15.725  0.00  0.00    +0.000 HD
ENDBRANCH   1  13
TORSDOF 1
ENDMDL
MODEL 2
REMARK VINA RESULT:      -6.3      1.979      2.685
REMARK  Name = 
REMARK  1 active torsions:
REMARK  status: ('A' for Active; 'I' for Inactive)
REMARK    1  A    between atoms: O_1  and  C_2
REMARK                            x       y       z     vdW  Elec       q    Type
REMARK                         _______ _______ _______ _____ _____    ______ ____
ROOT
ATOM      1  C   UNL     1       6.726   4.398  17.074  0.00  0.00    +0.000 A 
ATOM      2  N   UNL     1       7.512   4.741  16.058  0.00  0.00    +0.000 NA
ATOM      3  S   UNL     1       6.446   4.845  14.772  0.00  0.00    +0.000 S 
ATOM      4  N   UNL     1       5.012   4.443  15.526  0.00  0.00    +0.000 NA
ATOM      5  C   UNL     1       5.303   4.217  16.816  0.00  0.00    +0.000 A 
ATOM      6  N   UNL     1       4.360   3.847  17.759  0.00  0.00    +0.000 N 
ATOM      7  C   UNL     1       3.141   3.173  17.302  0.00  0.00    +0.000 C 
ATOM      8  C   UNL     1       1.902   4.031  17.554  0.00  0.00    +0.000 C 
ATOM      9  C   UNL     1       1.430   4.052  19.006  0.00  0.00    +0.000 C 
ATOM     10  C   UNL     1       2.481   4.520  20.008  0.00  0.00    +0.000 C 
ATOM     11  C   UNL     1       3.622   3.520  20.160  0.00  0.00    +0.000 C 
ATOM     12  C   UNL     1       4.760   3.709  19.160  0.00  0.00    +0.000 C 
ENDROOT
BRANCH   1  13
ATOM     13  O   UNL     1       7.401   4.233  18.220  0.00  0.00    +0.000 OA
ATOM     14  H   UNL     1       6.772   3.812  18.830  0.00  0.00    +0.000 HD
ENDBRANCH   1  13
TORSDOF 1
ENDMDL
MODEL 3
REMARK VINA RESULT:      -6.1      2.247      3.148
REMARK  Name = 
REMARK  1 active torsions:
REMARK  status: ('A' for Active; 'I' for Inactive)
REMARK    1  A    between atoms: O_1  and  C_2
REMARK                            x       y       z     vdW  Elec       q    Type
REMARK                         _______ _______ _______ _____ _____    ______ ____
ROOT
ATOM      1  C   UNL     1       6.809   5.535  16.292  0.00  0.00    +0.000 A 
ATOM      2  N   UNL     1       7.558   5.527  15.195  0.00  0.00    +0.000 NA
ATOM      3  S   UNL     1       6.738   4.477  14.182  0.00  0.00    +0.000 S 
ATOM      4  N   UNL     1       5.456   4.045  15.159  0.00  0.00    +0.000 NA
ATOM      5  C   UNL     1       5.609   4.707  16.315  0.00  0.00    +0.000 A 
ATOM      6  N   UNL     1       4.736   4.593  17.384  0.00  0.00    +0.000 N 
ATOM      7  C   UNL     1       3.935   3.370  17.505  0.00  0.00    +0.000 C 
ATOM      8  C   UNL     1       2.445   3.663  17.337  0.00  0.00    +0.000 C 
ATOM      9  C   UNL     1       1.783   4.301  18.557  0.00  0.00    +0.000 C 
ATOM     10  C   UNL     1       2.422   5.609  19.013  0.00  0.00    +0.000 C 
ATOM     11  C   UNL     1       3.814   5.398  19.601  0.00  0.00    +0.000 C 
ATOM     12  C   UNL     1       4.940   5.423  18.571  0.00  0.00    +0.000 C 
ENDROOT
BRANCH   1  13
ATOM     13  O   UNL     1       7.314   6.310  17.262  0.00  0.00    +0.000 OA
ATOM     14  H   UNL     1       8.072   5.816  17.617  0.00  0.00    +0.000 HD
ENDBRANCH   1  13
TORSDOF 1
ENDMDL
MODEL 4
REMARK VINA RESULT:      -6.0      1.063      1.092
REMARK  Name = 
REMARK  1 active torsions:
REMARK  status: ('A' for Active; 'I' for Inactive)
REMARK    1  A    between atoms: O_1  and  C_2
REMARK                            x       y       z     vdW  Elec       q    Type
REMARK                         _______ _______ _______ _____ _____    ______ ____
ROOT
ATOM      1  C   UNL     1       6.082   4.382  16.691  0.00  0.00    +0.000 A 
ATOM      2  N   UNL     1       7.263   4.953  16.479  0.00  0.00    +0.000 NA
ATOM      3  S   UNL     1       7.169   6.364  17.374  0.00  0.00    +0.000 S 
ATOM      4  N   UNL     1       5.628   6.228  18.002  0.00  0.00    +0.000 NA
ATOM      5  C   UNL     1       5.124   5.072  17.546  0.00  0.00    +0.000 A 
ATOM      6  N   UNL     1       3.852   4.619  17.850  0.00  0.00    +0.000 N 
ATOM      7  C   UNL     1       2.830   5.603  18.223  0.00  0.00    +0.000 C 
ATOM      8  C   UNL     1       2.385   5.422  19.673  0.00  0.00    +0.000 C 
ATOM      9  C   UNL     1       1.438   4.247  19.904  0.00  0.00    +0.000 C 
ATOM     10  C   UNL     1       1.985   2.895  19.458  0.00  0.00    +0.000 C 
ATOM     11  C   UNL     1       2.102   2.790  17.940  0.00  0.00    +0.000 C 
ATOM     12  C   UNL     1       3.425   3.302  17.376  0.00  0.00    +0.000 C 
ENDROOT
BRANCH   1  13
ATOM     13  O   UNL     1       5.937   3.226  16.028  0.00  0.00    +0.000 OA
ATOM     14  H   UNL     1       5.035   3.249  15.666  0.00  0.00    +0.000 HD
ENDBRANCH   1  13
TORSDOF 1
ENDMDL
MODEL 5
REMARK VINA RESULT:      -5.9      1.850      2.244
REMARK  Name = 
REMARK  1 active torsions:
REMARK  status: ('A' for Active; 'I' for Inactive)
REMARK    1  A    between atoms: O_1  and  C_2
REMARK                            x       y       z     vdW  Elec       q    Type
REMARK                         _______ _______ _______ _____ _____    ______ ____
ROOT
ATOM      1  C   UNL     1       5.736   4.854  18.028  0.00  0.00    +0.000 A 
ATOM      2  N   UNL     1       6.282   5.773  17.240  0.00  0.00    +0.000 NA
ATOM      3  S   UNL     1       4.956   6.619  16.666  0.00  0.00    +0.000 S 
ATOM      4  N   UNL     1       3.716   5.796  17.420  0.00  0.00    +0.000 NA
ATOM      5  C   UNL     1       4.284   4.830  18.157  0.00  0.00    +0.000 A 
ATOM      6  N   UNL     1       3.564   3.929  18.923  0.00  0.00    +0.000 N 
ATOM      7  C   UNL     1       2.174   3.646  18.549  0.00  0.00    +0.000 C 
ATOM      8  C   UNL     1       1.200   4.129  19.622  0.00  0.00    +0.000 C 
ATOM      9  C   UNL     1       1.123   3.234  20.857  0.00  0.00    +0.000 C 
ATOM     10  C   UNL     1       2.456   3.013  21.565  0.00  0.00    +0.000 C 
ATOM     11  C   UNL     1       3.418   2.167  20.736  0.00  0.00    +0.000 C 
ATOM     12  C   UNL     1       4.279   2.966  19.762  0.00  0.00    +0.000 C 
ENDROOT
BRANCH   1  13
ATOM     13  O   UNL     1       6.643   4.035  18.579  0.00  0.00    +0.000 OA
ATOM     14  H   UNL     1       6.855   4.430  19.441  0.00  0.00    +0.000 HD
ENDBRANCH   1  13
TORSDOF 1
ENDMDL
MODEL 6
REMARK VINA RESULT:      -5.9      1.841      2.587
REMARK  Name = 
REMARK  1 active torsions:
REMARK  status: ('A' for Active; 'I' for Inactive)
REMARK    1  A    between atoms: O_1  and  C_2
REMARK                            x       y       z     vdW  Elec       q    Type
REMARK                         _______ _______ _______ _____ _____    ______ ____
ROOT
ATOM      1  C   UNL     1       5.940   4.686  18.486  0.00  0.00    +0.000 A 
ATOM      2  N   UNL     1       6.848   5.037  17.582  0.00  0.00    +0.000 NA
ATOM      3  S   UNL     1       6.250   4.378  16.165  0.00  0.00    +0.000 S 
ATOM      4  N   UNL     1       4.857   3.651  16.728  0.00  0.00    +0.000 NA
ATOM      5  C   UNL     1       4.796   3.897  18.045  0.00  0.00    +0.000 A 
ATOM      6  N   UNL     1       3.776   3.441  18.862  0.00  0.00    +0.000 N 
ATOM      7  C   UNL     1       3.030   2.247  18.450  0.00  0.00    +0.000 C 
ATOM      8  C   UNL     1       1.570   2.580  18.146  0.00  0.00    +0.000 C 
ATOM      9  C   UNL     1       0.697   2.785  19.382  0.00  0.00    +0.000 C 
ATOM     10  C   UNL     1       1.189   3.870  20.334  0.00  0.00    +0.000 C 
ATOM     11  C   UNL     1       2.483   3.477  21.040  0.00  0.00    +0.000 C 
ATOM     12  C   UNL     1       3.752   3.837  20.271  0.00  0.00    +0.000 C 
ENDROOT
BRANCH   1  13
ATOM     13  O   UNL     1       6.249   5.100  19.723  0.00  0.00    +0.000 OA
ATOM     14  H   UNL     1       7.165   5.419  19.665  0.00  0.00    +0.000 HD
ENDBRANCH   1  13
TORSDOF 1
ENDMDL
MODEL 7
REMARK VINA RESULT:      -5.9      1.397      1.531
REMARK  Name = 
REMARK  1 active torsions:
REMARK  status: ('A' for Active; 'I' for Inactive)
REMARK    1  A    between atoms: O_1  and  C_2
REMARK                            x       y       z     vdW  Elec       q    Type
REMARK                         _______ _______ _______ _____ _____    ______ ____
ROOT
ATOM      1  C   UNL     1       5.922   6.000  17.561  0.00  0.00    +0.000 A 
ATOM      2  N   UNL     1       7.184   6.408  17.643  0.00  0.00    +0.000 NA
ATOM      3  S   UNL     1       7.691   5.786  19.112  0.00  0.00    +0.000 S 
ATOM      4  N   UNL     1       6.297   5.021  19.620  0.00  0.00    +0.000 NA
ATOM      5  C   UNL     1       5.378   5.214  18.661  0.00  0.00    +0.000 A 
ATOM      6  N   UNL     1       4.083   4.729  18.734  0.00  0.00    +0.000 N 
ATOM      7  C   UNL     1       3.509   4.465  20.058  0.00  0.00    +0.000 C 
ATOM      8  C   UNL     1       3.237   2.975  20.259  0.00  0.00    +0.000 C 
ATOM      9  C   UNL     1       1.995   2.455  19.539  0.00  0.00    +0.000 C 
ATOM     10  C   UNL     1       1.993   2.685  18.031  0.00  0.00    +0.000 C 
ATOM     11  C   UNL     1       1.856   4.162  17.672  0.00  0.00    +0.000 C 
ATOM     12  C   UNL     1       3.180   4.916  17.598  0.00  0.00    +0.000 C 
ENDROOT
BRANCH   1  13
ATOM     13  O   UNL     1       5.310   6.424  16.447  0.00  0.00    +0.000 OA
ATOM     14  H   UNL     1       5.079   5.616  15.958  0.00  0.00    +0.000 HD
ENDBRANCH   1  13
TORSDOF 1
ENDMDL
MODEL 8
REMARK VINA RESULT:      -5.9      2.231      2.779
REMARK  Name = 
REMARK  1 active torsions:
REMARK  status: ('A' for Active; 'I' for Inactive)
REMARK    1  A    between atoms: O_1  and  C_2
REMARK                            x       y       z     vdW  Elec       q    Type
REMARK                         _______ _______ _______ _____ _____    ______ ____
ROOT
ATOM      1  C   UNL     1       4.522   6.221  16.983  0.00  0.00    +0.000 A 
ATOM      2  N   UNL     1       5.218   6.388  15.864  0.00  0.00    +0.000 NA
ATOM      3  S   UNL     1       5.593   4.820  15.412  0.00  0.00    +0.000 S 
ATOM      4  N   UNL     1       4.874   3.962  16.650  0.00  0.00    +0.000 NA
ATOM      5  C   UNL     1       4.305   4.863  17.466  0.00  0.00    +0.000 A 
ATOM      6  N   UNL     1       3.617   4.524  18.618  0.00  0.00    +0.000 N 
ATOM      7  C   UNL     1       3.936   3.251  19.274  0.00  0.00    +0.000 C 
ATOM      8  C   UNL     1       2.750   2.289  19.228  0.00  0.00    +0.000 C 
ATOM      9  C   UNL     1       1.638   2.605  20.225  0.00  0.00    +0.000 C 
ATOM     10  C   UNL     1       1.051   4.007  20.097  0.00  0.00    +0.000 C 
ATOM     11  C   UNL     1       2.040   5.089  20.517  0.00  0.00    +0.000 C 
ATOM     12  C   UNL     1       2.956   5.572  19.396  0.00  0.00    +0.000 C 
ENDROOT
BRANCH   1  13
ATOM     13  O   UNL     1       4.140   7.381  17.536  0.00  0.00    +0.000 OA
ATOM     14  H   UNL     1       4.240   7.254  18.494  0.00  0.00    +0.000 HD
ENDBRANCH   1  13
TORSDOF 1
ENDMDL
MODEL 9
REMARK VINA RESULT:      -5.8      2.838      4.528
REMARK  Name = 
REMARK  1 active torsions:
REMARK  status: ('A' for Active; 'I' for Inactive)
REMARK    1  A    between atoms: O_1  and  C_2
REMARK                            x       y       z     vdW  Elec       q    Type
REMARK                         _______ _______ _______ _____ _____    ______ ____
ROOT
ATOM      1  C   UNL     1       2.498   2.506  18.779  0.00  0.00    +0.000 A 
ATOM      2  N   UNL     1       1.460   2.195  19.547  0.00  0.00    +0.000 NA
ATOM      3  S   UNL     1       0.993   3.675  20.174  0.00  0.00    +0.000 S 
ATOM      4  N   UNL     1       2.124   4.679  19.467  0.00  0.00    +0.000 NA
ATOM      5  C   UNL     1       2.910   3.903  18.707  0.00  0.00    +0.000 A 
ATOM      6  N   UNL     1       3.976   4.385  17.967  0.00  0.00    +0.000 N 
ATOM      7  C   UNL     1       4.616   5.633  18.395  0.00  0.00    +0.000 C 
ATOM      8  C   UNL     1       4.420   6.742  17.362  0.00  0.00    +0.000 C 
ATOM      9  C   UNL     1       5.313   6.625  16.129  0.00  0.00    +0.000 C 
ATOM     10  C   UNL     1       5.176   5.309  15.369  0.00  0.00    +0.000 C 
ATOM     11  C   UNL     1       5.729   4.125  16.157  0.00  0.00    +0.000 C 
ATOM     12  C   UNL     1       4.721   3.472  17.099  0.00  0.00    +0.000 C 
ENDROOT
BRANCH   1  13
ATOM     13  O   UNL     1       3.050   1.435  18.191  0.00  0.00    +0.000 OA
ATOM     14  H   UNL     1       3.727   1.792  17.592  0.00  0.00    +0.000 HD
ENDBRANCH   1  13
TORSDOF 1
ENDMDL
