MODEL 1
REMARK VINA RESULT:      -6.4      0.000      0.000
REMARK  Name = 
REMARK  13 active torsions:
REMARK  status: ('A' for Active; 'I' for Inactive)
REMARK    1  A    between atoms: C_1  and  C_2
REMARK    2  A    between atoms: C_2  and  N_3
REMARK    3  A    between atoms: N_3  and  C_4
REMARK    4  A    between atoms: C_4  and  N_6
REMARK    5  A    between atoms: C_12  and  N_13
REMARK    6  A    between atoms: C_14  and  C_15
REMARK    7  A    between atoms: C_15  and  C_17
REMARK    8  A    between atoms: C_19  and  O_20
REMARK    9  A    between atoms: O_20  and  C_21
REMARK   10  A    between atoms: C_22  and  O_23
REMARK   11  A    between atoms: O_23  and  C_24
REMARK   12  A    between atoms: C_25  and  O_26
REMARK   13  A    between atoms: O_26  and  C_27
REMARK                            x       y       z     vdW  Elec       q    Type
REMARK                         _______ _______ _______ _____ _____    ______ ____
ROOT
ATOM      1  N   UNL     1       3.066   6.779  18.636  0.00  0.00    +0.000 N 
ATOM      2  C   UNL     1       2.218   7.327  17.554  0.00  0.00    +0.000 C 
ATOM      3  C   UNL     1       1.872   8.797  17.818  0.00  0.00    +0.000 C 
ATOM      4  C   UNL     1       1.420   8.987  19.239  0.00  0.00    +0.000 A 
ATOM      5  C   UNL     1       1.680   8.010  20.190  0.00  0.00    +0.000 A 
ATOM      6  S   UNL     1       1.067   8.420  21.707  0.00  0.00    +0.000 S 
ATOM      7  C   UNL     1       0.519   9.947  21.154  0.00  0.00    +0.000 A 
ATOM      8  C   UNL     1       0.720  10.123  19.787  0.00  0.00    +0.000 A 
ATOM      9  C   UNL     1       2.407   6.714  19.954  0.00  0.00    +0.000 C 
ENDROOT
BRANCH   7  10
ATOM     10  N   UNL     1      -0.037  10.777  22.059  0.00  0.00    +0.000 N 
ATOM     11  H   UNL     1       0.221  10.694  23.038  0.00  0.00    +0.000 HD
ATOM     12  H   UNL     1      -0.478  11.660  21.822  0.00  0.00    +0.000 HD
ENDBRANCH   7  10
BRANCH   1  13
ATOM     13  C   UNL     1       4.243   6.084  18.345  0.00  0.00    +0.000 C 
ATOM     14  S   UNL     1       4.701   4.636  19.050  0.00  0.00    +0.000 S 
BRANCH  13  15
ATOM     15  N   UNL     1       4.990   6.731  17.385  0.00  0.00    +0.000 N 
ATOM     16  H   UNL     1       5.019   7.734  17.516  0.00  0.00    +0.000 HD
BRANCH  15  18
ATOM     17  C   UNL     1       5.405   5.541  15.315  0.00  0.00    +0.000 C 
ATOM     18  C   UNL     1       6.032   6.166  16.546  0.00  0.00    +0.000 C 
ENDBRANCH  15  18
ENDBRANCH  13  15
ENDBRANCH   1  13
BRANCH   8  19
ATOM     19  C   UNL     1       0.309  11.299  18.995  0.00  0.00    +0.000 C 
ATOM     20  O   UNL     1       1.102  12.159  18.615  0.00  0.00    +0.000 OA
BRANCH  19  21
ATOM     21  C   UNL     1      -1.124  11.450  18.632  0.00  0.00    +0.000 A 
ATOM     22  C   UNL     1      -1.601  10.844  17.470  0.00  0.00    +0.000 A 
ATOM     23  C   UNL     1      -2.972  10.743  17.251  0.00  0.00    +0.000 A 
ATOM     24  C   UNL     1      -3.876  11.363  18.140  0.00  0.00    +0.000 A 
ATOM     25  C   UNL     1      -3.383  12.085  19.253  0.00  0.00    +0.000 A 
ATOM     26  C   UNL     1      -2.001  12.116  19.493  0.00  0.00    +0.000 A 
BRANCH  23  27
ATOM     27  O   UNL     1      -3.493  10.023  16.200  0.00  0.00    +0.000 OA
ATOM     28  C   UNL     1      -3.011  10.386  14.906  0.00  0.00    +0.000 C 
ENDBRANCH  23  27
BRANCH  24  29
ATOM     29  O   UNL     1      -5.204  11.252  17.796  0.00  0.00    +0.000 OA
ATOM     30  C   UNL     1      -5.797  12.363  17.135  0.00  0.00    +0.000 C 
ENDBRANCH  24  29
BRANCH  25  31
ATOM     31  O   UNL     1      -4.297  12.713  20.055  0.00  0.00    +0.000 OA
ATOM     32  C   UNL     1      -3.994  12.886  21.433  0.00  0.00    +0.000 C 
ENDBRANCH  25  31
ENDBRANCH  19  21
ENDBRANCH   8  19
TORSDOF 9
ENDMDL
MODEL 2
REMARK VINA RESULT:      -6.3      1.112      1.273
REMARK  Name = 
REMARK  13 active torsions:
REMARK  status: ('A' for Active; 'I' for Inactive)
REMARK    1  A    between atoms: C_1  and  C_2
REMARK    2  A    between atoms: C_2  and  N_3
REMARK    3  A    between atoms: N_3  and  C_4
REMARK    4  A    between atoms: C_4  and  N_6
REMARK    5  A    between atoms: C_12  and  N_13
REMARK    6  A    between atoms: C_14  and  C_15
REMARK    7  A    between atoms: C_15  and  C_17
REMARK    8  A    between atoms: C_19  and  O_20
REMARK    9  A    between atoms: O_20  and  C_21
REMARK   10  A    between atoms: C_22  and  O_23
REMARK   11  A    between atoms: O_23  and  C_24
REMARK   12  A    between atoms: C_25  and  O_26
REMARK   13  A    between atoms: O_26  and  C_27
REMARK                            x       y       z     vdW  Elec       q    Type
REMARK                         _______ _______ _______ _____ _____    ______ ____
ROOT
ATOM      1  N   UNL     1       2.944   7.098  18.465  0.00  0.00    +0.000 N 
ATOM      2  C   UNL     1       2.049   7.707  17.455  0.00  0.00    +0.000 C 
ATOM      3  C   UNL     1       1.690   9.148  17.838  0.00  0.00    +0.000 C 
ATOM      4  C   UNL     1       1.285   9.225  19.284  0.00  0.00    +0.000 A 
ATOM      5  C   UNL     1       1.593   8.187  20.151  0.00  0.00    +0.000 A 
ATOM      6  S   UNL     1       1.028   8.473  21.713  0.00  0.00    +0.000 S 
ATOM      7  C   UNL     1       0.437  10.026  21.294  0.00  0.00    +0.000 A 
ATOM      8  C   UNL     1       0.587  10.305  19.937  0.00  0.00    +0.000 A 
ATOM      9  C   UNL     1       2.333   6.924  19.796  0.00  0.00    +0.000 C 
ENDROOT
BRANCH   7  10
ATOM     10  N   UNL     1      -0.100  10.777  22.276  0.00  0.00    +0.000 N 
ATOM     11  H   UNL     1       0.404  10.892  23.150  0.00  0.00    +0.000 HD
ATOM     12  H   UNL     1      -0.830  11.467  22.127  0.00  0.00    +0.000 HD
ENDBRANCH   7  10
BRANCH   1  13
ATOM     13  C   UNL     1       4.121   6.448  18.083  0.00  0.00    +0.000 C 
ATOM     14  S   UNL     1       4.894   6.650  16.612  0.00  0.00    +0.000 S 
BRANCH  13  15
ATOM     15  N   UNL     1       4.588   5.618  19.079  0.00  0.00    +0.000 N 
ATOM     16  H   UNL     1       3.875   5.371  19.755  0.00  0.00    +0.000 HD
BRANCH  15  18
ATOM     17  C   UNL     1       6.991   5.557  19.383  0.00  0.00    +0.000 C 
ATOM     18  C   UNL     1       5.752   4.753  19.035  0.00  0.00    +0.000 C 
ENDBRANCH  15  18
ENDBRANCH  13  15
ENDBRANCH   1  13
BRANCH   8  19
ATOM     19  C   UNL     1       0.130  11.528  19.249  0.00  0.00    +0.000 C 
ATOM     20  O   UNL     1       0.885  12.455  18.960  0.00  0.00    +0.000 OA
BRANCH  19  21
ATOM     21  C   UNL     1      -1.305  11.645  18.878  0.00  0.00    +0.000 A 
ATOM     22  C   UNL     1      -1.749  11.082  17.682  0.00  0.00    +0.000 A 
ATOM     23  C   UNL     1      -3.113  10.942  17.443  0.00  0.00    +0.000 A 
ATOM     24  C   UNL     1      -4.047  11.484  18.353  0.00  0.00    +0.000 A 
ATOM     25  C   UNL     1      -3.591  12.165  19.506  0.00  0.00    +0.000 A 
ATOM     26  C   UNL     1      -2.213  12.235  19.762  0.00  0.00    +0.000 A 
BRANCH  23  27
ATOM     27  O   UNL     1      -3.598  10.258  16.351  0.00  0.00    +0.000 OA
ATOM     28  C   UNL     1      -3.056  10.650  15.089  0.00  0.00    +0.000 C 
ENDBRANCH  23  27
BRANCH  24  29
ATOM     29  O   UNL     1      -5.367  11.342  17.988  0.00  0.00    +0.000 OA
ATOM     30  C   UNL     1      -5.966  12.425  17.288  0.00  0.00    +0.000 C 
ENDBRANCH  24  29
BRANCH  25  31
ATOM     31  O   UNL     1      -4.534  12.718  20.329  0.00  0.00    +0.000 OA
ATOM     32  C   UNL     1      -4.549  14.129  20.504  0.00  0.00    +0.000 C 
ENDBRANCH  25  31
ENDBRANCH  19  21
ENDBRANCH   8  19
TORSDOF 9
ENDMDL
MODEL 3
REMARK VINA RESULT:      -6.2      0.500      2.467
REMARK  Name = 
REMARK  13 active torsions:
REMARK  status: ('A' for Active; 'I' for Inactive)
REMARK    1  A    between atoms: C_1  and  C_2
REMARK    2  A    between atoms: C_2  and  N_3
REMARK    3  A    between atoms: N_3  and  C_4
REMARK    4  A    between atoms: C_4  and  N_6
REMARK    5  A    between atoms: C_12  and  N_13
REMARK    6  A    between atoms: C_14  and  C_15
REMARK    7  A    between atoms: C_15  and  C_17
REMARK    8  A    between atoms: C_19  and  O_20
REMARK    9  A    between atoms: O_20  and  C_21
REMARK   10  A    between atoms: C_22  and  O_23
REMARK   11  A    between atoms: O_23  and  C_24
REMARK   12  A    between atoms: C_25  and  O_26
REMARK   13  A    between atoms: O_26  and  C_27
REMARK                            x       y       z     vdW  Elec       q    Type
REMARK                         _______ _______ _______ _____ _____    ______ ____
ROOT
ATOM      1  N   UNL     1       3.060   6.880  18.517  0.00  0.00    +0.000 N 
ATOM      2  C   UNL     1       2.100   7.364  17.499  0.00  0.00    +0.000 C 
ATOM      3  C   UNL     1       1.682   8.812  17.783  0.00  0.00    +0.000 C 
ATOM      4  C   UNL     1       1.326   8.985  19.233  0.00  0.00    +0.000 A 
ATOM      5  C   UNL     1       1.718   8.035  20.166  0.00  0.00    +0.000 A 
ATOM      6  S   UNL     1       1.196   8.418  21.723  0.00  0.00    +0.000 S 
ATOM      7  C   UNL     1       0.512   9.903  21.207  0.00  0.00    +0.000 A 
ATOM      8  C   UNL     1       0.599  10.079  19.828  0.00  0.00    +0.000 A 
ATOM      9  C   UNL     1       2.507   6.785  19.881  0.00  0.00    +0.000 C 
ENDROOT
BRANCH   7  10
ATOM     10  N   UNL     1      -0.026  10.703  22.148  0.00  0.00    +0.000 N 
ATOM     11  H   UNL     1      -0.504  11.554  21.867  0.00  0.00    +0.000 HD
ATOM     12  H   UNL     1      -0.245  10.401  23.092  0.00  0.00    +0.000 HD
ENDBRANCH   7  10
BRANCH   1  13
ATOM     13  C   UNL     1       4.254   6.259  18.141  0.00  0.00    +0.000 C 
ATOM     14  S   UNL     1       5.179   5.279  19.135  0.00  0.00    +0.000 S 
BRANCH  13  15
ATOM     15  N   UNL     1       4.580   6.537  16.831  0.00  0.00    +0.000 N 
ATOM     16  H   UNL     1       4.087   7.342  16.464  0.00  0.00    +0.000 HD
BRANCH  15  18
ATOM     17  C   UNL     1       5.489   4.903  15.290  0.00  0.00    +0.000 C 
ATOM     18  C   UNL     1       5.780   6.142  16.116  0.00  0.00    +0.000 C 
ENDBRANCH  15  18
ENDBRANCH  13  15
ENDBRANCH   1  13
BRANCH   8  19
ATOM     19  C   UNL     1       0.055  11.220  19.065  0.00  0.00    +0.000 C 
ATOM     20  O   UNL     1       0.754  12.148  18.662  0.00  0.00    +0.000 OA
BRANCH  19  21
ATOM     21  C   UNL     1      -1.399  11.248  18.760  0.00  0.00    +0.000 A 
ATOM     22  C   UNL     1      -2.260  11.955  19.598  0.00  0.00    +0.000 A 
ATOM     23  C   UNL     1      -3.565  12.219  19.193  0.00  0.00    +0.000 A 
ATOM     24  C   UNL     1      -4.055  11.664  17.991  0.00  0.00    +0.000 A 
ATOM     25  C   UNL     1      -3.216  10.843  17.202  0.00  0.00    +0.000 A 
ATOM     26  C   UNL     1      -1.883  10.646  17.594  0.00  0.00    +0.000 A 
BRANCH  23  27
ATOM     27  O   UNL     1      -4.403  13.040  19.914  0.00  0.00    +0.000 OA
ATOM     28  C   UNL     1      -3.951  13.381  21.225  0.00  0.00    +0.000 C 
ENDBRANCH  23  27
BRANCH  24  29
ATOM     29  O   UNL     1      -5.376  11.939  17.717  0.00  0.00    +0.000 OA
ATOM     30  C   UNL     1      -6.343  11.008  18.189  0.00  0.00    +0.000 C 
ENDBRANCH  24  29
BRANCH  25  31
ATOM     31  O   UNL     1      -3.755  10.285  16.074  0.00  0.00    +0.000 OA
ATOM     32  C   UNL     1      -3.022  10.354  14.859  0.00  0.00    +0.000 C 
ENDBRANCH  25  31
ENDBRANCH  19  21
ENDBRANCH   8  19
TORSDOF 9
ENDMDL
MODEL 4
REMARK VINA RESULT:      -6.2      3.846      8.761
REMARK  Name = 
REMARK  13 active torsions:
REMARK  status: ('A' for Active; 'I' for Inactive)
REMARK    1  A    between atoms: C_1  and  C_2
REMARK    2  A    between atoms: C_2  and  N_3
REMARK    3  A    between atoms: N_3  and  C_4
REMARK    4  A    between atoms: C_4  and  N_6
REMARK    5  A    between atoms: C_12  and  N_13
REMARK    6  A    between atoms: C_14  and  C_15
REMARK    7  A    between atoms: C_15  and  C_17
REMARK    8  A    between atoms: C_19  and  O_20
REMARK    9  A    between atoms: O_20  and  C_21
REMARK   10  A    between atoms: C_22  and  O_23
REMARK   11  A    between atoms: O_23  and  C_24
REMARK   12  A    between atoms: C_25  and  O_26
REMARK   13  A    between atoms: O_26  and  C_27
REMARK                            x       y       z     vdW  Elec       q    Type
REMARK                         _______ _______ _______ _____ _____    ______ ____
ROOT
ATOM      1  N   UNL     1      -1.180  11.361  19.524  0.00  0.00    +0.000 N 
ATOM      2  C   UNL     1      -0.069  11.646  18.588  0.00  0.00    +0.000 C 
ATOM      3  C   UNL     1       0.591  10.347  18.107  0.00  0.00    +0.000 C 
ATOM      4  C   UNL     1       0.858   9.429  19.267  0.00  0.00    +0.000 A 
ATOM      5  C   UNL     1       0.221   9.637  20.483  0.00  0.00    +0.000 A 
ATOM      6  S   UNL     1       0.683   8.506  21.645  0.00  0.00    +0.000 S 
ATOM      7  C   UNL     1       1.672   7.658  20.532  0.00  0.00    +0.000 A 
ATOM      8  C   UNL     1       1.730   8.280  19.287  0.00  0.00    +0.000 A 
ATOM      9  C   UNL     1      -0.764  10.733  20.792  0.00  0.00    +0.000 C 
ENDROOT
BRANCH   7  10
ATOM     10  N   UNL     1       2.277   6.533  20.963  0.00  0.00    +0.000 N 
ATOM     11  H   UNL     1       2.190   6.261  21.938  0.00  0.00    +0.000 HD
ATOM     12  H   UNL     1       2.578   5.781  20.351  0.00  0.00    +0.000 HD
ENDBRANCH   7  10
BRANCH   1  13
ATOM     13  C   UNL     1      -2.436  11.947  19.348  0.00  0.00    +0.000 C 
ATOM     14  S   UNL     1      -3.525  11.537  18.143  0.00  0.00    +0.000 S 
BRANCH  13  15
ATOM     15  N   UNL     1      -2.686  12.908  20.303  0.00  0.00    +0.000 N 
ATOM     16  H   UNL     1      -2.039  13.685  20.261  0.00  0.00    +0.000 HD
BRANCH  15  18
ATOM     17  C   UNL     1      -3.806  12.669  22.439  0.00  0.00    +0.000 C 
ATOM     18  C   UNL     1      -3.932  13.152  21.006  0.00  0.00    +0.000 C 
ENDBRANCH  15  18
ENDBRANCH  13  15
ENDBRANCH   1  13
BRANCH   8  19
ATOM     19  C   UNL     1       2.537   7.837  18.133  0.00  0.00    +0.000 C 
ATOM     20  O   UNL     1       2.871   8.591  17.221  0.00  0.00    +0.000 OA
BRANCH  19  21
ATOM     21  C   UNL     1       2.975   6.418  18.071  0.00  0.00    +0.000 A 
ATOM     22  C   UNL     1       4.316   6.107  18.298  0.00  0.00    +0.000 A 
ATOM     23  C   UNL     1       4.698   4.786  18.511  0.00  0.00    +0.000 A 
ATOM     24  C   UNL     1       3.750   3.748  18.375  0.00  0.00    +0.000 A 
ATOM     25  C   UNL     1       2.415   4.057  18.022  0.00  0.00    +0.000 A 
ATOM     26  C   UNL     1       2.036   5.400  17.879  0.00  0.00    +0.000 A 
BRANCH  23  27
ATOM     27  O   UNL     1       5.977   4.446  18.887  0.00  0.00    +0.000 OA
ATOM     28  C   UNL     1       7.001   4.761  17.942  0.00  0.00    +0.000 C 
ENDBRANCH  23  27
BRANCH  24  29
ATOM     29  O   UNL     1       4.248   2.476  18.548  0.00  0.00    +0.000 OA
ATOM     30  C   UNL     1       4.274   1.965  19.875  0.00  0.00    +0.000 C 
ENDBRANCH  24  29
BRANCH  25  31
ATOM     31  O   UNL     1       1.548   3.012  17.850  0.00  0.00    +0.000 OA
ATOM     32  C   UNL     1       0.743   2.601  18.947  0.00  0.00    +0.000 C 
ENDBRANCH  25  31
ENDBRANCH  19  21
ENDBRANCH   8  19
TORSDOF 9
ENDMDL
MODEL 5
REMARK VINA RESULT:      -6.2      3.894      8.820
REMARK  Name = 
REMARK  13 active torsions:
REMARK  status: ('A' for Active; 'I' for Inactive)
REMARK    1  A    between atoms: C_1  and  C_2
REMARK    2  A    between atoms: C_2  and  N_3
REMARK    3  A    between atoms: N_3  and  C_4
REMARK    4  A    between atoms: C_4  and  N_6
REMARK    5  A    between atoms: C_12  and  N_13
REMARK    6  A    between atoms: C_14  and  C_15
REMARK    7  A    between atoms: C_15  and  C_17
REMARK    8  A    between atoms: C_19  and  O_20
REMARK    9  A    between atoms: O_20  and  C_21
REMARK   10  A    between atoms: C_22  and  O_23
REMARK   11  A    between atoms: O_23  and  C_24
REMARK   12  A    between atoms: C_25  and  O_26
REMARK   13  A    between atoms: O_26  and  C_27
REMARK                            x       y       z     vdW  Elec       q    Type
REMARK                         _______ _______ _______ _____ _____    ______ ____
ROOT
ATOM      1  N   UNL     1       0.732  12.023  18.998  0.00  0.00    +0.000 N 
ATOM      2  C   UNL     1       1.851  11.609  18.121  0.00  0.00    +0.000 C 
ATOM      3  C   UNL     1       1.806  10.100  17.851  0.00  0.00    +0.000 C 
ATOM      4  C   UNL     1       1.587   9.340  19.129  0.00  0.00    +0.000 A 
ATOM      5  C   UNL     1       1.120   9.996  20.260  0.00  0.00    +0.000 A 
ATOM      6  S   UNL     1       0.969   8.959  21.580  0.00  0.00    +0.000 S 
ATOM      7  C   UNL     1       1.436   7.593  20.655  0.00  0.00    +0.000 A 
ATOM      8  C   UNL     1       1.796   7.930  19.352  0.00  0.00    +0.000 A 
ATOM      9  C   UNL     1       0.783  11.459  20.360  0.00  0.00    +0.000 C 
ENDROOT
BRANCH   7  10
ATOM     10  N   UNL     1       1.418   6.390  21.262  0.00  0.00    +0.000 N 
ATOM     11  H   UNL     1       1.987   6.240  22.090  0.00  0.00    +0.000 HD
ATOM     12  H   UNL     1       0.681   5.704  21.139  0.00  0.00    +0.000 HD
ENDBRANCH   7  10
BRANCH   1  13
ATOM     13  C   UNL     1      -0.084  13.106  18.659  0.00  0.00    +0.000 C 
ATOM     14  S   UNL     1       0.144  14.680  19.184  0.00  0.00    +0.000 S 
BRANCH  13  15
ATOM     15  N   UNL     1      -1.106  12.727  17.817  0.00  0.00    +0.000 N 
ATOM     16  H   UNL     1      -1.021  13.122  16.888  0.00  0.00    +0.000 HD
BRANCH  15  18
ATOM     17  C   UNL     1      -2.394  11.105  16.558  0.00  0.00    +0.000 C 
ATOM     18  C   UNL     1      -1.967  11.564  17.939  0.00  0.00    +0.000 C 
ENDBRANCH  15  18
ENDBRANCH  13  15
ENDBRANCH   1  13
BRANCH   8  19
ATOM     19  C   UNL     1       2.298   6.998  18.324  0.00  0.00    +0.000 C 
ATOM     20  O   UNL     1       1.609   6.603  17.385  0.00  0.00    +0.000 OA
BRANCH  19  21
ATOM     21  C   UNL     1       3.703   6.520  18.418  0.00  0.00    +0.000 A 
ATOM     22  C   UNL     1       3.988   5.384  19.175  0.00  0.00    +0.000 A 
ATOM     23  C   UNL     1       5.230   4.767  19.063  0.00  0.00    +0.000 A 
ATOM     24  C   UNL     1       6.244   5.360  18.279  0.00  0.00    +0.000 A 
ATOM     25  C   UNL     1       5.991   6.580  17.609  0.00  0.00    +0.000 A 
ATOM     26  C   UNL     1       4.710   7.150  17.681  0.00  0.00    +0.000 A 
BRANCH  23  27
ATOM     27  O   UNL     1       5.507   3.563  19.670  0.00  0.00    +0.000 OA
ATOM     28  C   UNL     1       4.412   2.649  19.751  0.00  0.00    +0.000 C 
ENDBRANCH  23  27
BRANCH  24  29
ATOM     29  O   UNL     1       7.451   4.698  18.287  0.00  0.00    +0.000 OA
ATOM     30  C   UNL     1       8.412   5.114  19.249  0.00  0.00    +0.000 C 
ENDBRANCH  24  29
BRANCH  25  31
ATOM     31  O   UNL     1       7.021   7.142  16.906  0.00  0.00    +0.000 OA
ATOM     32  C   UNL     1       7.761   8.199  17.502  0.00  0.00    +0.000 C 
ENDBRANCH  25  31
ENDBRANCH  19  21
ENDBRANCH   8  19
TORSDOF 9
ENDMDL
MODEL 6
REMARK VINA RESULT:      -6.1      4.487      9.427
REMARK  Name = 
REMARK  13 active torsions:
REMARK  status: ('A' for Active; 'I' for Inactive)
REMARK    1  A    between atoms: C_1  and  C_2
REMARK    2  A    between atoms: C_2  and  N_3
REMARK    3  A    between atoms: N_3  and  C_4
REMARK    4  A    between atoms: C_4  and  N_6
REMARK    5  A    between atoms: C_12  and  N_13
REMARK    6  A    between atoms: C_14  and  C_15
REMARK    7  A    between atoms: C_15  and  C_17
REMARK    8  A    between atoms: C_19  and  O_20
REMARK    9  A    between atoms: O_20  and  C_21
REMARK   10  A    between atoms: C_22  and  O_23
REMARK   11  A    between atoms: O_23  and  C_24
REMARK   12  A    between atoms: C_25  and  O_26
REMARK   13  A    between atoms: O_26  and  C_27
REMARK                            x       y       z     vdW  Elec       q    Type
REMARK                         _______ _______ _______ _____ _____    ______ ____
ROOT
ATOM      1  N   UNL     1       1.555   8.687  19.147  0.00  0.00    +0.000 N 
ATOM      2  C   UNL     1       2.474   8.538  17.997  0.00  0.00    +0.000 C 
ATOM      3  C   UNL     1       2.428   7.110  17.439  0.00  0.00    +0.000 C 
ATOM      4  C   UNL     1       2.516   6.104  18.553  0.00  0.00    +0.000 A 
ATOM      5  C   UNL     1       2.277   6.492  19.864  0.00  0.00    +0.000 A 
ATOM      6  S   UNL     1       2.450   5.213  20.948  0.00  0.00    +0.000 S 
ATOM      7  C   UNL     1       2.758   4.092  19.689  0.00  0.00    +0.000 A 
ATOM      8  C   UNL     1       2.819   4.699  18.437  0.00  0.00    +0.000 A 
ATOM      9  C   UNL     1       1.916   7.879  20.326  0.00  0.00    +0.000 C 
ENDROOT
BRANCH   7  10
ATOM     10  N   UNL     1       2.915   2.797  20.029  0.00  0.00    +0.000 N 
ATOM     11  H   UNL     1       2.732   2.073  19.341  0.00  0.00    +0.000 HD
ATOM     12  H   UNL     1       3.467   2.482  20.821  0.00  0.00    +0.000 HD
ENDBRANCH   7  10
BRANCH   1  13
ATOM     13  C   UNL     1       0.646   9.747  19.208  0.00  0.00    +0.000 C 
ATOM     14  S   UNL     1       0.388  10.713  20.551  0.00  0.00    +0.000 S 
BRANCH  13  15
ATOM     15  N   UNL     1      -0.014   9.919  18.010  0.00  0.00    +0.000 N 
ATOM     16  H   UNL     1       0.218   9.210  17.326  0.00  0.00    +0.000 HD
BRANCH  15  18
ATOM     17  C   UNL     1      -2.120   9.877  16.811  0.00  0.00    +0.000 C 
ATOM     18  C   UNL     1      -1.244  10.654  17.776  0.00  0.00    +0.000 C 
ENDBRANCH  15  18
ENDBRANCH  13  15
ENDBRANCH   1  13
BRANCH   8  19
ATOM     19  C   UNL     1       3.124   4.023  17.160  0.00  0.00    +0.000 C 
ATOM     20  O   UNL     1       2.425   3.126  16.695  0.00  0.00    +0.000 OA
BRANCH  19  21
ATOM     21  C   UNL     1       4.324   4.451  16.394  0.00  0.00    +0.000 A 
ATOM     22  C   UNL     1       5.280   5.254  17.016  0.00  0.00    +0.000 A 
ATOM     23  C   UNL     1       6.524   5.443  16.420  0.00  0.00    +0.000 A 
ATOM     24  C   UNL     1       6.773   4.925  15.130  0.00  0.00    +0.000 A 
ATOM     25  C   UNL     1       5.757   4.215  14.449  0.00  0.00    +0.000 A 
ATOM     26  C   UNL     1       4.534   3.978  15.096  0.00  0.00    +0.000 A 
BRANCH  23  27
ATOM     27  O   UNL     1       7.550   6.099  17.061  0.00  0.00    +0.000 OA
ATOM     28  C   UNL     1       7.262   7.435  17.476  0.00  0.00    +0.000 C 
ENDBRANCH  23  27
BRANCH  24  29
ATOM     29  O   UNL     1       8.014   5.222  14.612  0.00  0.00    +0.000 OA
ATOM     30  C   UNL     1       8.072   5.585  13.238  0.00  0.00    +0.000 C 
ENDBRANCH  24  29
BRANCH  25  31
ATOM     31  O   UNL     1       6.030   3.780  13.181  0.00  0.00    +0.000 OA
ATOM     32  C   UNL     1       4.946   3.494  12.307  0.00  0.00    +0.000 C 
ENDBRANCH  25  31
ENDBRANCH  19  21
ENDBRANCH   8  19
TORSDOF 9
ENDMDL
MODEL 7
REMARK VINA RESULT:      -6.1      1.164      2.719
REMARK  Name = 
REMARK  13 active torsions:
REMARK  status: ('A' for Active; 'I' for Inactive)
REMARK    1  A    between atoms: C_1  and  C_2
REMARK    2  A    between atoms: C_2  and  N_3
REMARK    3  A    between atoms: N_3  and  C_4
REMARK    4  A    between atoms: C_4  and  N_6
REMARK    5  A    between atoms: C_12  and  N_13
REMARK    6  A    between atoms: C_14  and  C_15
REMARK    7  A    between atoms: C_15  and  C_17
REMARK    8  A    between atoms: C_19  and  O_20
REMARK    9  A    between atoms: O_20  and  C_21
REMARK   10  A    between atoms: C_22  and  O_23
REMARK   11  A    between atoms: O_23  and  C_24
REMARK   12  A    between atoms: C_25  and  O_26
REMARK   13  A    between atoms: O_26  and  C_27
REMARK                            x       y       z     vdW  Elec       q    Type
REMARK                         _______ _______ _______ _____ _____    ______ ____
ROOT
ATOM      1  N   UNL     1       3.175   6.740  18.315  0.00  0.00    +0.000 N 
ATOM      2  C   UNL     1       2.238   7.299  17.316  0.00  0.00    +0.000 C 
ATOM      3  C   UNL     1       1.845   8.737  17.677  0.00  0.00    +0.000 C 
ATOM      4  C   UNL     1       1.474   8.835  19.130  0.00  0.00    +0.000 A 
ATOM      5  C   UNL     1       1.836   7.826  20.012  0.00  0.00    +0.000 A 
ATOM      6  S   UNL     1       1.302   8.131  21.582  0.00  0.00    +0.000 S 
ATOM      7  C   UNL     1       0.654   9.656  21.144  0.00  0.00    +0.000 A 
ATOM      8  C   UNL     1       0.761   9.908  19.778  0.00  0.00    +0.000 A 
ATOM      9  C   UNL     1       2.604   6.578  19.666  0.00  0.00    +0.000 C 
ENDROOT
BRANCH   7  10
ATOM     10  N   UNL     1       0.119  10.413  22.123  0.00  0.00    +0.000 N 
ATOM     11  H   UNL     1      -0.814  10.204  22.463  0.00  0.00    +0.000 HD
ATOM     12  H   UNL     1       0.665  10.998  22.748  0.00  0.00    +0.000 HD
ENDBRANCH   7  10
BRANCH   1  13
ATOM     13  C   UNL     1       4.362   6.116  17.918  0.00  0.00    +0.000 C 
ATOM     14  S   UNL     1       5.682   6.903  17.254  0.00  0.00    +0.000 S 
BRANCH  13  15
ATOM     15  N   UNL     1       4.325   4.759  18.152  0.00  0.00    +0.000 N 
ATOM     16  H   UNL     1       4.171   4.530  19.127  0.00  0.00    +0.000 HD
BRANCH  15  18
ATOM     17  C   UNL     1       2.594   3.270  17.338  0.00  0.00    +0.000 C 
ATOM     18  C   UNL     1       4.041   3.704  17.196  0.00  0.00    +0.000 C 
ENDBRANCH  15  18
ENDBRANCH  13  15
ENDBRANCH   1  13
BRANCH   8  19
ATOM     19  C   UNL     1       0.249  11.101  19.075  0.00  0.00    +0.000 C 
ATOM     20  O   UNL     1       0.979  12.007  18.677  0.00  0.00    +0.000 OA
BRANCH  19  21
ATOM     21  C   UNL     1      -1.212  11.212  18.826  0.00  0.00    +0.000 A 
ATOM     22  C   UNL     1      -2.003  11.942  19.712  0.00  0.00    +0.000 A 
ATOM     23  C   UNL     1      -3.306  12.283  19.364  0.00  0.00    +0.000 A 
ATOM     24  C   UNL     1      -3.869  11.785  18.168  0.00  0.00    +0.000 A 
ATOM     25  C   UNL     1      -3.104  10.941  17.329  0.00  0.00    +0.000 A 
ATOM     26  C   UNL     1      -1.769  10.666  17.666  0.00  0.00    +0.000 A 
BRANCH  23  27
ATOM     27  O   UNL     1      -4.073  13.127  20.135  0.00  0.00    +0.000 OA
ATOM     28  C   UNL     1      -4.561  12.571  21.357  0.00  0.00    +0.000 C 
ENDBRANCH  23  27
BRANCH  24  29
ATOM     29  O   UNL     1      -5.183  12.135  17.952  0.00  0.00    +0.000 OA
ATOM     30  C   UNL     1      -6.171  11.154  18.242  0.00  0.00    +0.000 C 
ENDBRANCH  24  29
BRANCH  25  31
ATOM     31  O   UNL     1      -3.712  10.442  16.210  0.00  0.00    +0.000 OA
ATOM     32  C   UNL     1      -2.943  10.284  15.025  0.00  0.00    +0.000 C 
ENDBRANCH  25  31
ENDBRANCH  19  21
ENDBRANCH   8  19
TORSDOF 9
ENDMDL
MODEL 8
REMARK VINA RESULT:      -6.0      3.974      8.605
REMARK  Name = 
REMARK  13 active torsions:
REMARK  status: ('A' for Active; 'I' for Inactive)
REMARK    1  A    between atoms: C_1  and  C_2
REMARK    2  A    between atoms: C_2  and  N_3
REMARK    3  A    between atoms: N_3  and  C_4
REMARK    4  A    between atoms: C_4  and  N_6
REMARK    5  A    between atoms: C_12  and  N_13
REMARK    6  A    between atoms: C_14  and  C_15
REMARK    7  A    between atoms: C_15  and  C_17
REMARK    8  A    between atoms: C_19  and  O_20
REMARK    9  A    between atoms: O_20  and  C_21
REMARK   10  A    between atoms: C_22  and  O_23
REMARK   11  A    between atoms: O_23  and  C_24
REMARK   12  A    between atoms: C_25  and  O_26
REMARK   13  A    between atoms: O_26  and  C_27
REMARK                            x       y       z     vdW  Elec       q    Type
REMARK                         _______ _______ _______ _____ _____    ______ ____
ROOT
ATOM      1  N   UNL     1      -0.335  12.012  19.707  0.00  0.00    +0.000 N 
ATOM      2  C   UNL     1       0.793  12.101  18.753  0.00  0.00    +0.000 C 
ATOM      3  C   UNL     1       1.155  10.717  18.200  0.00  0.00    +0.000 C 
ATOM      4  C   UNL     1       1.244   9.710  19.313  0.00  0.00    +0.000 A 
ATOM      5  C   UNL     1       0.688   9.990  20.553  0.00  0.00    +0.000 A 
ATOM      6  S   UNL     1       0.922   8.734  21.654  0.00  0.00    +0.000 S 
ATOM      7  C   UNL     1       1.689   7.750  20.478  0.00  0.00    +0.000 A 
ATOM      8  C   UNL     1       1.853   8.404  19.260  0.00  0.00    +0.000 A 
ATOM      9  C   UNL     1      -0.038  11.252  20.936  0.00  0.00    +0.000 C 
ENDROOT
BRANCH   7  10
ATOM     10  N   UNL     1       2.050   6.504  20.845  0.00  0.00    +0.000 N 
ATOM     11  H   UNL     1       2.950   6.355  21.292  0.00  0.00    +0.000 HD
ATOM     12  H   UNL     1       1.395   5.739  20.973  0.00  0.00    +0.000 HD
ENDBRANCH   7  10
BRANCH   1  13
ATOM     13  C   UNL     1      -1.443  12.857  19.591  0.00  0.00    +0.000 C 
ATOM     14  S   UNL     1      -3.013  12.441  19.999  0.00  0.00    +0.000 S 
BRANCH  13  15
ATOM     15  N   UNL     1      -1.086  14.098  19.108  0.00  0.00    +0.000 N 
ATOM     16  H   UNL     1      -1.428  14.270  18.171  0.00  0.00    +0.000 HD
BRANCH  15  18
ATOM     17  C   UNL     1       0.680  15.718  19.463  0.00  0.00    +0.000 C 
ATOM     18  C   UNL     1      -0.709  15.270  19.877  0.00  0.00    +0.000 C 
ENDBRANCH  15  18
ENDBRANCH  13  15
ENDBRANCH   1  13
BRANCH   8  19
ATOM     19  C   UNL     1       2.526   7.855  18.066  0.00  0.00    +0.000 C 
ATOM     20  O   UNL     1       2.738   8.519  17.053  0.00  0.00    +0.000 OA
BRANCH  19  21
ATOM     21  C   UNL     1       2.979   6.439  18.089  0.00  0.00    +0.000 A 
ATOM     22  C   UNL     1       4.294   6.149  18.451  0.00  0.00    +0.000 A 
ATOM     23  C   UNL     1       4.664   4.838  18.738  0.00  0.00    +0.000 A 
ATOM     24  C   UNL     1       3.741   3.787  18.544  0.00  0.00    +0.000 A 
ATOM     25  C   UNL     1       2.444   4.072  18.058  0.00  0.00    +0.000 A 
ATOM     26  C   UNL     1       2.070   5.407  17.839  0.00  0.00    +0.000 A 
BRANCH  23  27
ATOM     27  O   UNL     1       5.904   4.523  19.245  0.00  0.00    +0.000 OA
ATOM     28  C   UNL     1       6.890   5.551  19.143  0.00  0.00    +0.000 C 
ENDBRANCH  23  27
BRANCH  24  29
ATOM     29  O   UNL     1       4.230   2.527  18.802  0.00  0.00    +0.000 OA
ATOM     30  C   UNL     1       4.300   2.124  20.164  0.00  0.00    +0.000 C 
ENDBRANCH  24  29
BRANCH  25  31
ATOM     31  O   UNL     1       1.605   3.014  17.835  0.00  0.00    +0.000 OA
ATOM     32  C   UNL     1       0.801   2.540  18.906  0.00  0.00    +0.000 C 
ENDBRANCH  25  31
ENDBRANCH  19  21
ENDBRANCH   8  19
TORSDOF 9
ENDMDL
MODEL 9
REMARK VINA RESULT:      -6.0      4.401      9.232
REMARK  Name = 
REMARK  13 active torsions:
REMARK  status: ('A' for Active; 'I' for Inactive)
REMARK    1  A    between atoms: C_1  and  C_2
REMARK    2  A    between atoms: C_2  and  N_3
REMARK    3  A    between atoms: N_3  and  C_4
REMARK    4  A    between atoms: C_4  and  N_6
REMARK    5  A    between atoms: C_12  and  N_13
REMARK    6  A    between atoms: C_14  and  C_15
REMARK    7  A    between atoms: C_15  and  C_17
REMARK    8  A    between atoms: C_19  and  O_20
REMARK    9  A    between atoms: O_20  and  C_21
REMARK   10  A    between atoms: C_22  and  O_23
REMARK   11  A    between atoms: O_23  and  C_24
REMARK   12  A    between atoms: C_25  and  O_26
REMARK   13  A    between atoms: O_26  and  C_27
REMARK                            x       y       z     vdW  Elec       q    Type
REMARK                         _______ _______ _______ _____ _____    ______ ____
ROOT
ATOM      1  N   UNL     1       1.501   8.751  19.100  0.00  0.00    +0.000 N 
ATOM      2  C   UNL     1       2.469   8.596  17.990  0.00  0.00    +0.000 C 
ATOM      3  C   UNL     1       2.439   7.169  17.431  0.00  0.00    +0.000 C 
ATOM      4  C   UNL     1       2.472   6.163  18.547  0.00  0.00    +0.000 A 
ATOM      5  C   UNL     1       2.179   6.552  19.847  0.00  0.00    +0.000 A 
ATOM      6  S   UNL     1       2.297   5.272  20.937  0.00  0.00    +0.000 S 
ATOM      7  C   UNL     1       2.653   4.148  19.692  0.00  0.00    +0.000 A 
ATOM      8  C   UNL     1       2.772   4.756  18.444  0.00  0.00    +0.000 A 
ATOM      9  C   UNL     1       1.806   7.941  20.294  0.00  0.00    +0.000 C 
ENDROOT
BRANCH   7  10
ATOM     10  N   UNL     1       2.787   2.853  20.039  0.00  0.00    +0.000 N 
ATOM     11  H   UNL     1       3.525   2.581  20.682  0.00  0.00    +0.000 HD
ATOM     12  H   UNL     1       2.051   2.160  19.939  0.00  0.00    +0.000 HD
ENDBRANCH   7  10
BRANCH   1  13
ATOM     13  C   UNL     1       0.597   9.817  19.121  0.00  0.00    +0.000 C 
ATOM     14  S   UNL     1       0.264  10.765  20.461  0.00  0.00    +0.000 S 
BRANCH  13  15
ATOM     15  N   UNL     1       0.011  10.010  17.889  0.00  0.00    +0.000 N 
ATOM     16  H   UNL     1       0.653   9.865  17.119  0.00  0.00    +0.000 HD
BRANCH  15  18
ATOM     17  C   UNL     1      -1.975  11.353  17.538  0.00  0.00    +0.000 C 
ATOM     18  C   UNL     1      -1.402   9.949  17.563  0.00  0.00    +0.000 C 
ENDBRANCH  15  18
ENDBRANCH  13  15
ENDBRANCH   1  13
BRANCH   8  19
ATOM     19  C   UNL     1       3.128   4.078  17.182  0.00  0.00    +0.000 C 
ATOM     20  O   UNL     1       2.345   3.356  16.567  0.00  0.00    +0.000 OA
BRANCH  19  21
ATOM     21  C   UNL     1       4.489   4.282  16.621  0.00  0.00    +0.000 A 
ATOM     22  C   UNL     1       4.783   3.793  15.349  0.00  0.00    +0.000 A 
ATOM     23  C   UNL     1       5.945   4.199  14.699  0.00  0.00    +0.000 A 
ATOM     24  C   UNL     1       6.886   5.006  15.375  0.00  0.00    +0.000 A 
ATOM     25  C   UNL     1       6.641   5.400  16.712  0.00  0.00    +0.000 A 
ATOM     26  C   UNL     1       5.432   5.037  17.325  0.00  0.00    +0.000 A 
BRANCH  23  27
ATOM     27  O   UNL     1       6.205   3.865  13.389  0.00  0.00    +0.000 OA
ATOM     28  C   UNL     1       5.113   3.287  12.673  0.00  0.00    +0.000 C 
ENDBRANCH  23  27
BRANCH  24  29
ATOM     29  O   UNL     1       8.025   5.298  14.661  0.00  0.00    +0.000 OA
ATOM     30  C   UNL     1       7.866   5.599  13.279  0.00  0.00    +0.000 C 
ENDBRANCH  24  29
BRANCH  25  31
ATOM     31  O   UNL     1       7.608   6.137  17.341  0.00  0.00    +0.000 OA
ATOM     32  C   UNL     1       7.776   5.990  18.745  0.00  0.00    +0.000 C 
ENDBRANCH  25  31
ENDBRANCH  19  21
ENDBRANCH   8  19
TORSDOF 9
ENDMDL
