MODEL 1
REMARK VINA RESULT:      -8.0      0.000      0.000
REMARK  Name = 
REMARK  5 active torsions:
REMARK  status: ('A' for Active; 'I' for Inactive)
REMARK    1  A    between atoms: C_2  and  C_25
REMARK    2  A    between atoms: N_3  and  C_4
REMARK    3  A    between atoms: C_7  and  N_8
REMARK    4  A    between atoms: C_12  and  C_14
REMARK    5  A    between atoms: C_28  and  N_29
REMARK                            x       y       z     vdW  Elec       q    Type
REMARK                         _______ _______ _______ _____ _____    ______ ____
ROOT
ATOM      1  C   UNL     1       2.622   7.314  18.220  0.00  0.00    +0.000 A 
ATOM      2  C   UNL     1       2.128   8.540  17.778  0.00  0.00    +0.000 A 
ATOM      3  C   UNL     1       1.483   9.422  18.654  0.00  0.00    +0.000 A 
ATOM      4  C   UNL     1       1.291   9.124  20.006  0.00  0.00    +0.000 A 
ATOM      5  C   UNL     1       1.742   7.865  20.429  0.00  0.00    +0.000 A 
ATOM      6  C   UNL     1       2.392   6.967  19.552  0.00  0.00    +0.000 A 
ENDROOT
BRANCH   4   7
ATOM      7  N   UNL     1       0.681  10.037  20.843  0.00  0.00    +0.000 N 
ATOM      8  C   UNL     1       1.290  11.326  21.225  0.00  0.00    +0.000 C 
ATOM      9  C   UNL     1       0.435  12.522  20.755  0.00  0.00    +0.000 C 
ATOM     10  N   UNL     1      -0.980  12.355  21.122  0.00  0.00    +0.000 N 
ATOM     11  C   UNL     1      -1.645  13.397  21.762  0.00  0.00    +0.000 C 
ATOM     12  O   UNL     1      -1.113  14.490  21.960  0.00  0.00    +0.000 OA
ATOM     13  C   UNL     1      -1.543  11.089  20.624  0.00  0.00    +0.000 C 
ATOM     14  C   UNL     1      -0.749   9.892  21.186  0.00  0.00    +0.000 C 
BRANCH  11  15
ATOM     15  C   UNL     1      -3.048  13.237  22.240  0.00  0.00    +0.000 A 
ATOM     16  C   UNL     1      -4.151  13.329  21.384  0.00  0.00    +0.000 A 
ATOM     17  C   UNL     1      -5.451  13.234  21.888  0.00  0.00    +0.000 A 
ATOM     18  C   UNL     1      -5.652  12.956  23.237  0.00  0.00    +0.000 A 
ATOM     19 CL   UNL     1      -7.254  12.830  23.851  0.00  0.00    +0.000 Cl
ATOM     20  C   UNL     1      -4.564  12.765  24.086  0.00  0.00    +0.000 A 
ATOM     21  C   UNL     1      -3.263  12.910  23.590  0.00  0.00    +0.000 A 
ENDBRANCH  11  15
ENDBRANCH   4   7
BRANCH   1  24
ATOM     22  O   UNL     1       5.393   7.480  17.464  0.00  0.00    +0.000 OA
ATOM     23  C   UNL     1       4.673   6.589  17.018  0.00  0.00    +0.000 C 
ATOM     24  N   UNL     1       3.339   6.424  17.373  0.00  0.00    +0.000 N 
ATOM     25  H   UNL     1       2.896   5.552  17.114  0.00  0.00    +0.000 HD
BRANCH  23  26
ATOM     26  C   UNL     1       5.243   5.611  16.109  0.00  0.00    +0.000 A 
ATOM     27  C   UNL     1       5.165   4.225  16.206  0.00  0.00    +0.000 A 
ATOM     28  C   UNL     1       5.932   3.682  15.154  0.00  0.00    +0.000 A 
ATOM     29  C   UNL     1       6.428   4.768  14.477  0.00  0.00    +0.000 A 
ATOM     30  O   UNL     1       6.010   5.955  15.020  0.00  0.00    +0.000 OA
BRANCH  29  31
ATOM     31  N   UNL     1       7.304   4.835  13.347  0.00  0.00    +0.000 N 
ATOM     32  O   UNL     1       7.029   4.085  12.399  0.00  0.00    +0.000 OA
ATOM     33  O   UNL     1       8.253   5.623  13.398  0.00  0.00    +0.000 OA
ENDBRANCH  29  31
ENDBRANCH  23  26
ENDBRANCH   1  24
TORSDOF 5
ENDMDL
MODEL 2
REMARK VINA RESULT:      -7.9      4.925     12.138
REMARK  Name = 
REMARK  5 active torsions:
REMARK  status: ('A' for Active; 'I' for Inactive)
REMARK    1  A    between atoms: C_2  and  C_25
REMARK    2  A    between atoms: N_3  and  C_4
REMARK    3  A    between atoms: C_7  and  N_8
REMARK    4  A    between atoms: C_12  and  C_14
REMARK    5  A    between atoms: C_28  and  N_29
REMARK                            x       y       z     vdW  Elec       q    Type
REMARK                         _______ _______ _______ _____ _____    ______ ____
ROOT
ATOM      1  C   UNL     1      -2.308  11.647  18.933  0.00  0.00    +0.000 A 
ATOM      2  C   UNL     1      -1.752  10.986  17.839  0.00  0.00    +0.000 A 
ATOM      3  C   UNL     1      -0.566  10.251  17.959  0.00  0.00    +0.000 A 
ATOM      4  C   UNL     1       0.128  10.148  19.168  0.00  0.00    +0.000 A 
ATOM      5  C   UNL     1      -0.408  10.861  20.249  0.00  0.00    +0.000 A 
ATOM      6  C   UNL     1      -1.604  11.607  20.137  0.00  0.00    +0.000 A 
ENDROOT
BRANCH   4   7
ATOM      7  N   UNL     1       1.276   9.384  19.251  0.00  0.00    +0.000 N 
ATOM      8  C   UNL     1       1.667   8.629  20.458  0.00  0.00    +0.000 C 
ATOM      9  C   UNL     1       1.741   7.113  20.183  0.00  0.00    +0.000 C 
ATOM     10  N   UNL     1       2.520   6.819  18.969  0.00  0.00    +0.000 N 
ATOM     11  C   UNL     1       3.528   5.860  19.023  0.00  0.00    +0.000 C 
ATOM     12  O   UNL     1       3.739   5.187  20.033  0.00  0.00    +0.000 OA
ATOM     13  C   UNL     1       2.011   7.534  17.788  0.00  0.00    +0.000 C 
ATOM     14  C   UNL     1       2.041   9.057  18.030  0.00  0.00    +0.000 C 
BRANCH  11  15
ATOM     15  C   UNL     1       4.407   5.599  17.848  0.00  0.00    +0.000 A 
ATOM     16  C   UNL     1       4.257   4.474  17.030  0.00  0.00    +0.000 A 
ATOM     17  C   UNL     1       5.144   4.240  15.976  0.00  0.00    +0.000 A 
ATOM     18  C   UNL     1       6.131   5.176  15.679  0.00  0.00    +0.000 A 
ATOM     19 CL   UNL     1       7.214   4.888  14.374  0.00  0.00    +0.000 Cl
ATOM     20  C   UNL     1       6.233   6.350  16.423  0.00  0.00    +0.000 A 
ATOM     21  C   UNL     1       5.375   6.560  17.509  0.00  0.00    +0.000 A 
ENDBRANCH  11  15
ENDBRANCH   4   7
BRANCH   1  24
ATOM     22  O   UNL     1      -4.864  10.590  18.142  0.00  0.00    +0.000 OA
ATOM     23  C   UNL     1      -4.738  11.779  18.431  0.00  0.00    +0.000 C 
ATOM     24  N   UNL     1      -3.544  12.346  18.860  0.00  0.00    +0.000 N 
ATOM     25  H   UNL     1      -3.592  13.273  19.265  0.00  0.00    +0.000 HD
BRANCH  23  26
ATOM     26  C   UNL     1      -5.902  12.644  18.377  0.00  0.00    +0.000 A 
ATOM     27  C   UNL     1      -6.974  12.562  17.494  0.00  0.00    +0.000 A 
ATOM     28  C   UNL     1      -7.826  13.653  17.756  0.00  0.00    +0.000 A 
ATOM     29  C   UNL     1      -7.227  14.335  18.786  0.00  0.00    +0.000 A 
ATOM     30  O   UNL     1      -6.067  13.735  19.200  0.00  0.00    +0.000 OA
BRANCH  29  31
ATOM     31  N   UNL     1      -7.611  15.546  19.444  0.00  0.00    +0.000 N 
ATOM     32  O   UNL     1      -7.608  15.517  20.683  0.00  0.00    +0.000 OA
ATOM     33  O   UNL     1      -7.910  16.516  18.741  0.00  0.00    +0.000 OA
ENDBRANCH  29  31
ENDBRANCH  23  26
ENDBRANCH   1  24
TORSDOF 5
ENDMDL
MODEL 3
REMARK VINA RESULT:      -7.8      0.695      1.157
REMARK  Name = 
REMARK  5 active torsions:
REMARK  status: ('A' for Active; 'I' for Inactive)
REMARK    1  A    between atoms: C_2  and  C_25
REMARK    2  A    between atoms: N_3  and  C_4
REMARK    3  A    between atoms: C_7  and  N_8
REMARK    4  A    between atoms: C_12  and  C_14
REMARK    5  A    between atoms: C_28  and  N_29
REMARK                            x       y       z     vdW  Elec       q    Type
REMARK                         _______ _______ _______ _____ _____    ______ ____
ROOT
ATOM      1  C   UNL     1       2.876   7.291  18.083  0.00  0.00    +0.000 A 
ATOM      2  C   UNL     1       2.583   6.962  19.404  0.00  0.00    +0.000 A 
ATOM      3  C   UNL     1       1.808   7.806  20.209  0.00  0.00    +0.000 A 
ATOM      4  C   UNL     1       1.297   9.021  19.741  0.00  0.00    +0.000 A 
ATOM      5  C   UNL     1       1.644   9.370  18.428  0.00  0.00    +0.000 A 
ATOM      6  C   UNL     1       2.427   8.525  17.609  0.00  0.00    +0.000 A 
ENDROOT
BRANCH   4   7
ATOM      7  N   UNL     1       0.508   9.807  20.557  0.00  0.00    +0.000 N 
ATOM      8  C   UNL     1       1.044  10.868  21.433  0.00  0.00    +0.000 C 
ATOM      9  C   UNL     1       0.488  12.256  21.053  0.00  0.00    +0.000 C 
ATOM     10  N   UNL     1      -0.976  12.233  20.905  0.00  0.00    +0.000 N 
ATOM     11  C   UNL     1      -1.741  13.197  21.558  0.00  0.00    +0.000 C 
ATOM     12  O   UNL     1      -1.229  14.121  22.191  0.00  0.00    +0.000 OA
ATOM     13  C   UNL     1      -1.428  11.215  19.944  0.00  0.00    +0.000 C 
ATOM     14  C   UNL     1      -0.960   9.814  20.389  0.00  0.00    +0.000 C 
BRANCH  11  15
ATOM     15  C   UNL     1      -3.230  13.154  21.518  0.00  0.00    +0.000 A 
ATOM     16  C   UNL     1      -3.953  13.204  20.322  0.00  0.00    +0.000 A 
ATOM     17  C   UNL     1      -5.351  13.225  20.337  0.00  0.00    +0.000 A 
ATOM     18  C   UNL     1      -6.032  13.103  21.546  0.00  0.00    +0.000 A 
ATOM     19 CL   UNL     1      -7.752  13.118  21.559  0.00  0.00    +0.000 Cl
ATOM     20  C   UNL     1      -5.327  12.954  22.739  0.00  0.00    +0.000 A 
ATOM     21  C   UNL     1      -3.928  12.984  22.726  0.00  0.00    +0.000 A 
ENDBRANCH  11  15
ENDBRANCH   4   7
BRANCH   1  24
ATOM     22  O   UNL     1       5.695   7.366  17.513  0.00  0.00    +0.000 OA
ATOM     23  C   UNL     1       4.964   6.546  16.960  0.00  0.00    +0.000 C 
ATOM     24  N   UNL     1       3.604   6.426  17.219  0.00  0.00    +0.000 N 
ATOM     25  H   UNL     1       3.139   5.598  16.872  0.00  0.00    +0.000 HD
BRANCH  23  26
ATOM     26  C   UNL     1       5.546   5.605  16.020  0.00  0.00    +0.000 A 
ATOM     27  C   UNL     1       5.546   4.217  16.109  0.00  0.00    +0.000 A 
ATOM     28  C   UNL     1       6.294   3.721  15.022  0.00  0.00    +0.000 A 
ATOM     29  C   UNL     1       6.703   4.835  14.332  0.00  0.00    +0.000 A 
ATOM     30  O   UNL     1       6.247   5.995  14.902  0.00  0.00    +0.000 OA
BRANCH  29  31
ATOM     31  N   UNL     1       7.526   4.955  13.168  0.00  0.00    +0.000 N 
ATOM     32  O   UNL     1       7.211   4.243  12.203  0.00  0.00    +0.000 OA
ATOM     33  O   UNL     1       8.472   5.748  13.207  0.00  0.00    +0.000 OA
ENDBRANCH  29  31
ENDBRANCH  23  26
ENDBRANCH   1  24
TORSDOF 5
ENDMDL
MODEL 4
REMARK VINA RESULT:      -7.7      2.384      3.008
REMARK  Name = 
REMARK  5 active torsions:
REMARK  status: ('A' for Active; 'I' for Inactive)
REMARK    1  A    between atoms: C_2  and  C_25
REMARK    2  A    between atoms: N_3  and  C_4
REMARK    3  A    between atoms: C_7  and  N_8
REMARK    4  A    between atoms: C_12  and  C_14
REMARK    5  A    between atoms: C_28  and  N_29
REMARK                            x       y       z     vdW  Elec       q    Type
REMARK                         _______ _______ _______ _____ _____    ______ ____
ROOT
ATOM      1  C   UNL     1       2.116   8.281  18.854  0.00  0.00    +0.000 A 
ATOM      2  C   UNL     1       1.753   8.202  20.197  0.00  0.00    +0.000 A 
ATOM      3  C   UNL     1       0.784   9.055  20.739  0.00  0.00    +0.000 A 
ATOM      4  C   UNL     1       0.138  10.032  19.976  0.00  0.00    +0.000 A 
ATOM      5  C   UNL     1       0.550  10.141  18.640  0.00  0.00    +0.000 A 
ATOM      6  C   UNL     1       1.528   9.286  18.083  0.00  0.00    +0.000 A 
ENDROOT
BRANCH   4   7
ATOM      7  N   UNL     1      -0.837  10.829  20.542  0.00  0.00    +0.000 N 
ATOM      8  C   UNL     1      -0.929  11.101  21.989  0.00  0.00    +0.000 C 
ATOM      9  C   UNL     1      -0.772  12.605  22.298  0.00  0.00    +0.000 C 
ATOM     10  N   UNL     1      -1.638  13.429  21.441  0.00  0.00    +0.000 N 
ATOM     11  C   UNL     1      -2.447  14.401  22.024  0.00  0.00    +0.000 C 
ATOM     12  O   UNL     1      -2.402  14.653  23.229  0.00  0.00    +0.000 OA
ATOM     13  C   UNL     1      -1.421  13.170  20.008  0.00  0.00    +0.000 C 
ATOM     14  C   UNL     1      -1.686  11.684  19.687  0.00  0.00    +0.000 C 
BRANCH  11  15
ATOM     15  C   UNL     1      -3.412  15.191  21.208  0.00  0.00    +0.000 A 
ATOM     16  C   UNL     1      -3.089  16.435  20.654  0.00  0.00    +0.000 A 
ATOM     17  C   UNL     1      -4.048  17.168  19.949  0.00  0.00    +0.000 A 
ATOM     18  C   UNL     1      -5.306  16.619  19.716  0.00  0.00    +0.000 A 
ATOM     19 CL   UNL     1      -6.479  17.521  18.837  0.00  0.00    +0.000 Cl
ATOM     20  C   UNL     1      -5.612  15.340  20.176  0.00  0.00    +0.000 A 
ATOM     21  C   UNL     1      -4.668  14.628  20.925  0.00  0.00    +0.000 A 
ENDBRANCH  11  15
ENDBRANCH   4   7
BRANCH   1  24
ATOM     22  O   UNL     1       1.659   5.547  18.081  0.00  0.00    +0.000 OA
ATOM     23  C   UNL     1       2.768   6.062  17.944  0.00  0.00    +0.000 C 
ATOM     24  N   UNL     1       3.047   7.387  18.256  0.00  0.00    +0.000 N 
ATOM     25  H   UNL     1       3.922   7.767  17.918  0.00  0.00    +0.000 HD
BRANCH  23  26
ATOM     26  C   UNL     1       3.845   5.273  17.375  0.00  0.00    +0.000 A 
ATOM     27  C   UNL     1       3.826   3.916  17.071  0.00  0.00    +0.000 A 
ATOM     28  C   UNL     1       5.114   3.563  16.619  0.00  0.00    +0.000 A 
ATOM     29  C   UNL     1       5.841   4.726  16.669  0.00  0.00    +0.000 A 
ATOM     30  O   UNL     1       5.092   5.788  17.105  0.00  0.00    +0.000 OA
BRANCH  29  31
ATOM     31  N   UNL     1       7.218   4.973  16.369  0.00  0.00    +0.000 N 
ATOM     32  O   UNL     1       8.038   4.219  16.915  0.00  0.00    +0.000 OA
ATOM     33  O   UNL     1       7.485   5.901  15.600  0.00  0.00    +0.000 OA
ENDBRANCH  29  31
ENDBRANCH  23  26
ENDBRANCH   1  24
TORSDOF 5
ENDMDL
MODEL 5
REMARK VINA RESULT:      -7.7      4.488     12.450
REMARK  Name = 
REMARK  5 active torsions:
REMARK  status: ('A' for Active; 'I' for Inactive)
REMARK    1  A    between atoms: C_2  and  C_25
REMARK    2  A    between atoms: N_3  and  C_4
REMARK    3  A    between atoms: C_7  and  N_8
REMARK    4  A    between atoms: C_12  and  C_14
REMARK    5  A    between atoms: C_28  and  N_29
REMARK                            x       y       z     vdW  Elec       q    Type
REMARK                         _______ _______ _______ _____ _____    ______ ____
ROOT
ATOM      1  C   UNL     1      -0.363   9.926  20.907  0.00  0.00    +0.000 A 
ATOM      2  C   UNL     1      -0.077   8.761  21.617  0.00  0.00    +0.000 A 
ATOM      3  C   UNL     1       0.886   7.851  21.164  0.00  0.00    +0.000 A 
ATOM      4  C   UNL     1       1.602   8.051  19.980  0.00  0.00    +0.000 A 
ATOM      5  C   UNL     1       1.269   9.196  19.244  0.00  0.00    +0.000 A 
ATOM      6  C   UNL     1       0.297  10.120  19.692  0.00  0.00    +0.000 A 
ENDROOT
BRANCH   4   7
ATOM      7  N   UNL     1       2.569   7.145  19.587  0.00  0.00    +0.000 N 
ATOM      8  C   UNL     1       2.651   5.766  20.104  0.00  0.00    +0.000 C 
ATOM      9  C   UNL     1       2.481   4.724  18.979  0.00  0.00    +0.000 C 
ATOM     10  N   UNL     1       3.346   5.024  17.826  0.00  0.00    +0.000 N 
ATOM     11  C   UNL     1       4.144   4.015  17.294  0.00  0.00    +0.000 C 
ATOM     12  O   UNL     1       4.091   2.854  17.702  0.00  0.00    +0.000 OA
ATOM     13  C   UNL     1       3.138   6.385  17.307  0.00  0.00    +0.000 C 
ATOM     14  C   UNL     1       3.416   7.427  18.410  0.00  0.00    +0.000 C 
BRANCH  11  15
ATOM     15  C   UNL     1       5.108   4.295  16.191  0.00  0.00    +0.000 A 
ATOM     16  C   UNL     1       4.802   4.064  14.846  0.00  0.00    +0.000 A 
ATOM     17  C   UNL     1       5.759   4.284  13.853  0.00  0.00    +0.000 A 
ATOM     18  C   UNL     1       6.998   4.823  14.191  0.00  0.00    +0.000 A 
ATOM     19 CL   UNL     1       8.170   5.101  12.963  0.00  0.00    +0.000 Cl
ATOM     20  C   UNL     1       7.285   5.151  15.515  0.00  0.00    +0.000 A 
ATOM     21  C   UNL     1       6.343   4.883  16.515  0.00  0.00    +0.000 A 
ENDBRANCH  11  15
ENDBRANCH   4   7
BRANCH   1  24
ATOM     22  O   UNL     1      -0.408  11.190  23.490  0.00  0.00    +0.000 OA
ATOM     23  C   UNL     1      -1.272  11.443  22.652  0.00  0.00    +0.000 C 
ATOM     24  N   UNL     1      -1.287  10.902  21.372  0.00  0.00    +0.000 N 
ATOM     25  H   UNL     1      -1.912  11.325  20.699  0.00  0.00    +0.000 HD
BRANCH  23  26
ATOM     26  C   UNL     1      -2.313  12.400  22.980  0.00  0.00    +0.000 A 
ATOM     27  C   UNL     1      -2.148  13.732  23.344  0.00  0.00    +0.000 A 
ATOM     28  C   UNL     1      -3.424  14.250  23.650  0.00  0.00    +0.000 A 
ATOM     29  C   UNL     1      -4.290  13.204  23.451  0.00  0.00    +0.000 A 
ATOM     30  O   UNL     1      -3.649  12.072  23.023  0.00  0.00    +0.000 OA
BRANCH  29  31
ATOM     31  N   UNL     1      -5.706  13.124  23.644  0.00  0.00    +0.000 N 
ATOM     32  O   UNL     1      -6.370  14.075  23.207  0.00  0.00    +0.000 OA
ATOM     33  O   UNL     1      -6.155  12.128  24.220  0.00  0.00    +0.000 OA
ENDBRANCH  29  31
ENDBRANCH  23  26
ENDBRANCH   1  24
TORSDOF 5
ENDMDL
MODEL 6
REMARK VINA RESULT:      -7.7      4.445     12.379
REMARK  Name = 
REMARK  5 active torsions:
REMARK  status: ('A' for Active; 'I' for Inactive)
REMARK    1  A    between atoms: C_2  and  C_25
REMARK    2  A    between atoms: N_3  and  C_4
REMARK    3  A    between atoms: C_7  and  N_8
REMARK    4  A    between atoms: C_12  and  C_14
REMARK    5  A    between atoms: C_28  and  N_29
REMARK                            x       y       z     vdW  Elec       q    Type
REMARK                         _______ _______ _______ _____ _____    ______ ____
ROOT
ATOM      1  C   UNL     1      -0.360   9.878  20.967  0.00  0.00    +0.000 A 
ATOM      2  C   UNL     1       0.344   9.989  19.770  0.00  0.00    +0.000 A 
ATOM      3  C   UNL     1       1.296   9.033  19.395  0.00  0.00    +0.000 A 
ATOM      4  C   UNL     1       1.599   7.928  20.196  0.00  0.00    +0.000 A 
ATOM      5  C   UNL     1       0.927   7.854  21.424  0.00  0.00    +0.000 A 
ATOM      6  C   UNL     1      -0.034   8.815  21.812  0.00  0.00    +0.000 A 
ENDROOT
BRANCH   4   7
ATOM      7  N   UNL     1       2.520   6.990  19.772  0.00  0.00    +0.000 N 
ATOM      8  C   UNL     1       2.469   5.566  20.157  0.00  0.00    +0.000 C 
ATOM      9  C   UNL     1       2.295   4.649  18.929  0.00  0.00    +0.000 C 
ATOM     10  N   UNL     1       3.250   4.984  17.861  0.00  0.00    +0.000 N 
ATOM     11  C   UNL     1       4.004   3.969  17.279  0.00  0.00    +0.000 C 
ATOM     12  O   UNL     1       3.841   2.783  17.570  0.00  0.00    +0.000 OA
ATOM     13  C   UNL     1       3.174   6.399  17.464  0.00  0.00    +0.000 C 
ATOM     14  C   UNL     1       3.458   7.311  18.676  0.00  0.00    +0.000 C 
BRANCH  11  15
ATOM     15  C   UNL     1       5.053   4.273  16.264  0.00  0.00    +0.000 A 
ATOM     16  C   UNL     1       6.301   4.804  16.607  0.00  0.00    +0.000 A 
ATOM     17  C   UNL     1       7.230   5.131  15.616  0.00  0.00    +0.000 A 
ATOM     18  C   UNL     1       6.950   4.844  14.282  0.00  0.00    +0.000 A 
ATOM     19 CL   UNL     1       8.100   5.239  13.066  0.00  0.00    +0.000 Cl
ATOM     20  C   UNL     1       5.751   4.226  13.932  0.00  0.00    +0.000 A 
ATOM     21  C   UNL     1       4.801   3.944  14.922  0.00  0.00    +0.000 A 
ENDBRANCH  11  15
ENDBRANCH   4   7
BRANCH   1  24
ATOM     22  O   UNL     1      -0.098  12.149  22.714  0.00  0.00    +0.000 OA
ATOM     23  C   UNL     1      -1.189  11.851  22.230  0.00  0.00    +0.000 C 
ATOM     24  N   UNL     1      -1.379  10.795  21.347  0.00  0.00    +0.000 N 
ATOM     25  H   UNL     1      -2.260  10.759  20.852  0.00  0.00    +0.000 HD
BRANCH  23  26
ATOM     26  C   UNL     1      -2.346  12.670  22.544  0.00  0.00    +0.000 A 
ATOM     27  C   UNL     1      -2.366  14.037  22.798  0.00  0.00    +0.000 A 
ATOM     28  C   UNL     1      -3.690  14.386  23.136  0.00  0.00    +0.000 A 
ATOM     29  C   UNL     1      -4.398  13.213  23.065  0.00  0.00    +0.000 A 
ATOM     30  O   UNL     1      -3.614  12.155  22.687  0.00  0.00    +0.000 OA
BRANCH  29  31
ATOM     31  N   UNL     1      -5.776  12.943  23.342  0.00  0.00    +0.000 N 
ATOM     32  O   UNL     1      -6.601  13.558  22.650  0.00  0.00    +0.000 OA
ATOM     33  O   UNL     1      -6.038  12.130  24.233  0.00  0.00    +0.000 OA
ENDBRANCH  29  31
ENDBRANCH  23  26
ENDBRANCH   1  24
TORSDOF 5
ENDMDL
MODEL 7
REMARK VINA RESULT:      -7.7      1.674      2.266
REMARK  Name = 
REMARK  5 active torsions:
REMARK  status: ('A' for Active; 'I' for Inactive)
REMARK    1  A    between atoms: C_2  and  C_25
REMARK    2  A    between atoms: N_3  and  C_4
REMARK    3  A    between atoms: C_7  and  N_8
REMARK    4  A    between atoms: C_12  and  C_14
REMARK    5  A    between atoms: C_28  and  N_29
REMARK                            x       y       z     vdW  Elec       q    Type
REMARK                         _______ _______ _______ _____ _____    ______ ____
ROOT
ATOM      1  C   UNL     1       2.903   7.789  18.433  0.00  0.00    +0.000 A 
ATOM      2  C   UNL     1       2.491   7.436  19.717  0.00  0.00    +0.000 A 
ATOM      3  C   UNL     1       1.410   8.076  20.336  0.00  0.00    +0.000 A 
ATOM      4  C   UNL     1       0.695   9.103  19.712  0.00  0.00    +0.000 A 
ATOM      5  C   UNL     1       1.151   9.489  18.444  0.00  0.00    +0.000 A 
ATOM      6  C   UNL     1       2.242   8.850  17.812  0.00  0.00    +0.000 A 
ENDROOT
BRANCH   4   7
ATOM      7  N   UNL     1      -0.386   9.685  20.344  0.00  0.00    +0.000 N 
ATOM      8  C   UNL     1      -0.591   9.654  21.805  0.00  0.00    +0.000 C 
ATOM      9  C   UNL     1      -0.603  11.074  22.409  0.00  0.00    +0.000 C 
ATOM     10  N   UNL     1      -1.496  11.974  21.662  0.00  0.00    +0.000 N 
ATOM     11  C   UNL     1      -2.430  12.737  22.357  0.00  0.00    +0.000 C 
ATOM     12  O   UNL     1      -2.482  12.747  23.587  0.00  0.00    +0.000 OA
ATOM     13  C   UNL     1      -1.169  12.025  20.228  0.00  0.00    +0.000 C 
ATOM     14  C   UNL     1      -1.265  10.616  19.606  0.00  0.00    +0.000 C 
BRANCH  11  15
ATOM     15  C   UNL     1      -3.420  13.587  21.636  0.00  0.00    +0.000 A 
ATOM     16  C   UNL     1      -3.205  14.947  21.387  0.00  0.00    +0.000 A 
ATOM     17  C   UNL     1      -4.188  15.718  20.762  0.00  0.00    +0.000 A 
ATOM     18  C   UNL     1      -5.355  15.113  20.302  0.00  0.00    +0.000 A 
ATOM     19 CL   UNL     1      -6.559  16.065  19.524  0.00  0.00    +0.000 Cl
ATOM     20  C   UNL     1      -5.543  13.741  20.455  0.00  0.00    +0.000 A 
ATOM     21  C   UNL     1      -4.579  12.979  21.125  0.00  0.00    +0.000 A 
ENDBRANCH  11  15
ENDBRANCH   4   7
BRANCH   1  24
ATOM     22  O   UNL     1       2.964   5.029  17.621  0.00  0.00    +0.000 OA
ATOM     23  C   UNL     1       3.930   5.763  17.424  0.00  0.00    +0.000 C 
ATOM     24  N   UNL     1       3.953   7.114  17.751  0.00  0.00    +0.000 N 
ATOM     25  H   UNL     1       4.705   7.670  17.366  0.00  0.00    +0.000 HD
BRANCH  23  26
ATOM     26  C   UNL     1       5.104   5.221  16.763  0.00  0.00    +0.000 A 
ATOM     27  C   UNL     1       6.205   4.619  17.363  0.00  0.00    +0.000 A 
ATOM     28  C   UNL     1       7.134   4.323  16.345  0.00  0.00    +0.000 A 
ATOM     29  C   UNL     1       6.544   4.758  15.185  0.00  0.00    +0.000 A 
ATOM     30  O   UNL     1       5.300   5.290  15.403  0.00  0.00    +0.000 OA
BRANCH  29  31
ATOM     31  N   UNL     1       7.032   4.760  13.840  0.00  0.00    +0.000 N 
ATOM     32  O   UNL     1       7.993   5.509  13.610  0.00  0.00    +0.000 OA
ATOM     33  O   UNL     1       6.471   4.027  13.020  0.00  0.00    +0.000 OA
ENDBRANCH  29  31
ENDBRANCH  23  26
ENDBRANCH   1  24
TORSDOF 5
ENDMDL
MODEL 8
REMARK VINA RESULT:      -7.6      4.882     12.152
REMARK  Name = 
REMARK  5 active torsions:
REMARK  status: ('A' for Active; 'I' for Inactive)
REMARK    1  A    between atoms: C_2  and  C_25
REMARK    2  A    between atoms: N_3  and  C_4
REMARK    3  A    between atoms: C_7  and  N_8
REMARK    4  A    between atoms: C_12  and  C_14
REMARK    5  A    between atoms: C_28  and  N_29
REMARK                            x       y       z     vdW  Elec       q    Type
REMARK                         _______ _______ _______ _____ _____    ______ ____
ROOT
ATOM      1  C   UNL     1      -2.384  11.748  19.169  0.00  0.00    +0.000 A 
ATOM      2  C   UNL     1      -1.691  11.339  18.031  0.00  0.00    +0.000 A 
ATOM      3  C   UNL     1      -0.515  10.585  18.127  0.00  0.00    +0.000 A 
ATOM      4  C   UNL     1       0.032  10.211  19.358  0.00  0.00    +0.000 A 
ATOM      5  C   UNL     1      -0.641  10.674  20.498  0.00  0.00    +0.000 A 
ATOM      6  C   UNL     1      -1.827  11.437  20.411  0.00  0.00    +0.000 A 
ENDROOT
BRANCH   4   7
ATOM      7  N   UNL     1       1.175   9.437  19.408  0.00  0.00    +0.000 N 
ATOM      8  C   UNL     1       1.586   8.667  20.598  0.00  0.00    +0.000 C 
ATOM      9  C   UNL     1       1.642   7.153  20.305  0.00  0.00    +0.000 C 
ATOM     10  N   UNL     1       2.392   6.866  19.072  0.00  0.00    +0.000 N 
ATOM     11  C   UNL     1       3.393   5.898  19.094  0.00  0.00    +0.000 C 
ATOM     12  O   UNL     1       3.619   5.213  20.092  0.00  0.00    +0.000 OA
ATOM     13  C   UNL     1       1.863   7.597  17.910  0.00  0.00    +0.000 C 
ATOM     14  C   UNL     1       1.911   9.118  18.168  0.00  0.00    +0.000 C 
BRANCH  11  15
ATOM     15  C   UNL     1       4.244   5.643  17.896  0.00  0.00    +0.000 A 
ATOM     16  C   UNL     1       4.989   6.650  17.274  0.00  0.00    +0.000 A 
ATOM     17  C   UNL     1       5.724   6.377  16.117  0.00  0.00    +0.000 A 
ATOM     18  C   UNL     1       5.789   5.074  15.629  0.00  0.00    +0.000 A 
ATOM     19 CL   UNL     1       6.702   4.741  14.210  0.00  0.00    +0.000 Cl
ATOM     20  C   UNL     1       5.131   4.041  16.292  0.00  0.00    +0.000 A 
ATOM     21  C   UNL     1       4.356   4.325  17.423  0.00  0.00    +0.000 A 
ENDBRANCH  11  15
ENDBRANCH   4   7
BRANCH   1  24
ATOM     22  O   UNL     1      -4.930  10.744  18.282  0.00  0.00    +0.000 OA
ATOM     23  C   UNL     1      -4.803  11.917  18.626  0.00  0.00    +0.000 C 
ATOM     24  N   UNL     1      -3.615  12.457  19.105  0.00  0.00    +0.000 N 
ATOM     25  H   UNL     1      -3.666  13.364  19.550  0.00  0.00    +0.000 HD
BRANCH  23  26
ATOM     26  C   UNL     1      -5.962  12.791  18.590  0.00  0.00    +0.000 A 
ATOM     27  C   UNL     1      -7.092  12.659  17.790  0.00  0.00    +0.000 A 
ATOM     28  C   UNL     1      -7.916  13.778  18.030  0.00  0.00    +0.000 A 
ATOM     29  C   UNL     1      -7.242  14.523  18.965  0.00  0.00    +0.000 A 
ATOM     30  O   UNL     1      -6.061  13.940  19.341  0.00  0.00    +0.000 OA
BRANCH  29  31
ATOM     31  N   UNL     1      -7.571  15.783  19.559  0.00  0.00    +0.000 N 
ATOM     32  O   UNL     1      -7.487  16.773  18.817  0.00  0.00    +0.000 OA
ATOM     33  O   UNL     1      -7.910  15.792  20.746  0.00  0.00    +0.000 OA
ENDBRANCH  29  31
ENDBRANCH  23  26
ENDBRANCH   1  24
TORSDOF 5
ENDMDL
MODEL 9
REMARK VINA RESULT:      -7.6      1.862      2.165
REMARK  Name = 
REMARK  5 active torsions:
REMARK  status: ('A' for Active; 'I' for Inactive)
REMARK    1  A    between atoms: C_2  and  C_25
REMARK    2  A    between atoms: N_3  and  C_4
REMARK    3  A    between atoms: C_7  and  N_8
REMARK    4  A    between atoms: C_12  and  C_14
REMARK    5  A    between atoms: C_28  and  N_29
REMARK                            x       y       z     vdW  Elec       q    Type
REMARK                         _______ _______ _______ _____ _____    ______ ____
ROOT
ATOM      1  C   UNL     1       2.676   7.872  18.390  0.00  0.00    +0.000 A 
ATOM      2  C   UNL     1       1.943   8.883  17.772  0.00  0.00    +0.000 A 
ATOM      3  C   UNL     1       0.921   9.558  18.450  0.00  0.00    +0.000 A 
ATOM      4  C   UNL     1       0.573   9.254  19.769  0.00  0.00    +0.000 A 
ATOM      5  C   UNL     1       1.279   8.199  20.365  0.00  0.00    +0.000 A 
ATOM      6  C   UNL     1       2.311   7.510  19.688  0.00  0.00    +0.000 A 
ENDROOT
BRANCH   4   7
ATOM      7  N   UNL     1      -0.418   9.969  20.413  0.00  0.00    +0.000 N 
ATOM      8  C   UNL     1      -0.515  10.088  21.880  0.00  0.00    +0.000 C 
ATOM      9  C   UNL     1      -0.389  11.554  22.343  0.00  0.00    +0.000 C 
ATOM     10  N   UNL     1      -1.274  12.444  21.574  0.00  0.00    +0.000 N 
ATOM     11  C   UNL     1      -2.102  13.334  22.253  0.00  0.00    +0.000 C 
ATOM     12  O   UNL     1      -2.062  13.462  23.477  0.00  0.00    +0.000 OA
ATOM     13  C   UNL     1      -1.051  12.339  20.123  0.00  0.00    +0.000 C 
ATOM     14  C   UNL     1      -1.285  10.890  19.649  0.00  0.00    +0.000 C 
BRANCH  11  15
ATOM     15  C   UNL     1      -3.084  14.184  21.521  0.00  0.00    +0.000 A 
ATOM     16  C   UNL     1      -4.274  13.673  20.991  0.00  0.00    +0.000 A 
ATOM     17  C   UNL     1      -5.135  14.495  20.259  0.00  0.00    +0.000 A 
ATOM     18  C   UNL     1      -4.854  15.853  20.131  0.00  0.00    +0.000 A 
ATOM     19 CL   UNL     1      -5.922  16.863  19.237  0.00  0.00    +0.000 Cl
ATOM     20  C   UNL     1      -3.723  16.398  20.735  0.00  0.00    +0.000 A 
ATOM     21  C   UNL     1      -2.836  15.564  21.426  0.00  0.00    +0.000 A 
ENDBRANCH  11  15
ENDBRANCH   4   7
BRANCH   1  24
ATOM     22  O   UNL     1       2.818   5.108  17.606  0.00  0.00    +0.000 OA
ATOM     23  C   UNL     1       3.777   5.858  17.437  0.00  0.00    +0.000 C 
ATOM     24  N   UNL     1       3.763   7.212  17.753  0.00  0.00    +0.000 N 
ATOM     25  H   UNL     1       4.518   7.779  17.391  0.00  0.00    +0.000 HD
BRANCH  23  26
ATOM     26  C   UNL     1       4.984   5.333  16.825  0.00  0.00    +0.000 A 
ATOM     27  C   UNL     1       6.090   4.791  17.472  0.00  0.00    +0.000 A 
ATOM     28  C   UNL     1       7.053   4.490  16.487  0.00  0.00    +0.000 A 
ATOM     29  C   UNL     1       6.477   4.862  15.298  0.00  0.00    +0.000 A 
ATOM     30  O   UNL     1       5.211   5.359  15.468  0.00  0.00    +0.000 OA
BRANCH  29  31
ATOM     31  N   UNL     1       6.997   4.831  13.966  0.00  0.00    +0.000 N 
ATOM     32  O   UNL     1       6.490   3.997  13.202  0.00  0.00    +0.000 OA
ATOM     33  O   UNL     1       7.897   5.626  13.678  0.00  0.00    +0.000 OA
ENDBRANCH  29  31
ENDBRANCH  23  26
ENDBRANCH   1  24
TORSDOF 5
ENDMDL
