MODEL 1
REMARK VINA RESULT:      -7.9      0.000      0.000
REMARK  Name = 
REMARK  7 active torsions:
REMARK  status: ('A' for Active; 'I' for Inactive)
REMARK    1  A    between atoms: C_1  and  N_2
REMARK    2  A    between atoms: N_6  and  C_7
REMARK    3  A    between atoms: C_7  and  C_8
REMARK    4  A    between atoms: N_10  and  C_11
REMARK    5  A    between atoms: C_15  and  C_16
REMARK    6  A    between atoms: C_16  and  C_17
REMARK    7  A    between atoms: C_17  and  C_18
REMARK                            x       y       z     vdW  Elec       q    Type
REMARK                         _______ _______ _______ _____ _____    ______ ____
ROOT
ATOM      1  C   UNL     1       5.053   6.125  16.195  0.00  0.00    +0.000 C 
ATOM      2  O   UNL     1       5.012   7.122  15.469  0.00  0.00    +0.000 OA
ATOM      3  N   UNL     1       5.477   4.860  15.791  0.00  0.00    +0.000 N 
ATOM      4  H   UNL     1       5.256   4.066  16.383  0.00  0.00    +0.000 HD
ENDROOT
BRANCH   3   5
ATOM      5  C   UNL     1       5.999   4.565  14.505  0.00  0.00    +0.000 A 
ATOM      6  C   UNL     1       7.260   5.001  14.099  0.00  0.00    +0.000 A 
ATOM      7  C   UNL     1       7.731   4.746  12.815  0.00  0.00    +0.000 A 
ATOM      8  C   UNL     1       6.944   4.038  11.915  0.00  0.00    +0.000 A 
ATOM      9  C   UNL     1       5.681   3.564  12.294  0.00  0.00    +0.000 A 
ATOM     10  C   UNL     1       5.221   3.824  13.603  0.00  0.00    +0.000 A 
BRANCH   9  11
ATOM     11  C   UNL     1       4.809   2.838  11.292  0.00  0.00    +0.000 C 
BRANCH  11  12
ATOM     12  C   UNL     1       3.392   3.406  11.193  0.00  0.00    +0.000 C 
BRANCH  12  13
ATOM     13  C   UNL     1       3.034   3.814   9.777  0.00  0.00    +0.000 C 
ATOM     14  F   UNL     1       4.086   4.312   9.095  0.00  0.00    +0.000 F 
ATOM     15  F   UNL     1       2.557   2.760   9.079  0.00  0.00    +0.000 F 
ATOM     16  F   UNL     1       2.069   4.762   9.785  0.00  0.00    +0.000 F 
ENDBRANCH  12  13
ENDBRANCH  11  12
ENDBRANCH   9  11
ENDBRANCH   3   5
BRANCH   1  17
ATOM     17  C   UNL     1       4.562   6.217  17.634  0.00  0.00    +0.000 C 
BRANCH  17  23
ATOM     18  C   UNL     1       2.138   2.132  19.097  0.00  0.00    +0.000 C 
ATOM     19  N   UNL     1       3.187   3.109  18.947  0.00  0.00    +0.000 N 
ATOM     20  C   UNL     1       4.426   3.028  19.518  0.00  0.00    +0.000 C 
ATOM     21  O   UNL     1       4.866   2.107  20.195  0.00  0.00    +0.000 OA
ATOM     22  C   UNL     1       5.149   4.333  19.249  0.00  0.00    +0.000 C 
ATOM     23  N   UNL     1       4.301   4.906  18.229  0.00  0.00    +0.000 N 
ATOM     24  C   UNL     1       3.052   4.286  18.249  0.00  0.00    +0.000 C 
ATOM     25  O   UNL     1       2.040   4.700  17.720  0.00  0.00    +0.000 OA
ENDBRANCH  17  23
ENDBRANCH   1  17
TORSDOF 6
ENDMDL
MODEL 2
REMARK VINA RESULT:      -7.4      1.075      1.818
REMARK  Name = 
REMARK  7 active torsions:
REMARK  status: ('A' for Active; 'I' for Inactive)
REMARK    1  A    between atoms: C_1  and  N_2
REMARK    2  A    between atoms: N_6  and  C_7
REMARK    3  A    between atoms: C_7  and  C_8
REMARK    4  A    between atoms: N_10  and  C_11
REMARK    5  A    between atoms: C_15  and  C_16
REMARK    6  A    between atoms: C_16  and  C_17
REMARK    7  A    between atoms: C_17  and  C_18
REMARK                            x       y       z     vdW  Elec       q    Type
REMARK                         _______ _______ _______ _____ _____    ______ ____
ROOT
ATOM      1  C   UNL     1       5.254   6.294  16.090  0.00  0.00    +0.000 C 
ATOM      2  O   UNL     1       4.880   7.114  15.248  0.00  0.00    +0.000 OA
ATOM      3  N   UNL     1       5.954   5.121  15.808  0.00  0.00    +0.000 N 
ATOM      4  H   UNL     1       6.010   4.409  16.527  0.00  0.00    +0.000 HD
ENDROOT
BRANCH   3   5
ATOM      5  C   UNL     1       6.403   4.751  14.514  0.00  0.00    +0.000 A 
ATOM      6  C   UNL     1       7.487   5.376  13.898  0.00  0.00    +0.000 A 
ATOM      7  C   UNL     1       7.879   5.034  12.608  0.00  0.00    +0.000 A 
ATOM      8  C   UNL     1       7.189   4.047  11.913  0.00  0.00    +0.000 A 
ATOM      9  C   UNL     1       6.109   3.381  12.507  0.00  0.00    +0.000 A 
ATOM     10  C   UNL     1       5.730   3.734  13.820  0.00  0.00    +0.000 A 
BRANCH   9  11
ATOM     11  C   UNL     1       5.333   2.343  11.724  0.00  0.00    +0.000 C 
BRANCH  11  12
ATOM     12  C   UNL     1       4.792   2.864  10.391  0.00  0.00    +0.000 C 
BRANCH  12  13
ATOM     13  C   UNL     1       3.360   3.353  10.502  0.00  0.00    +0.000 C 
ATOM     14  F   UNL     1       2.728   2.873  11.593  0.00  0.00    +0.000 F 
ATOM     15  F   UNL     1       3.317   4.701  10.565  0.00  0.00    +0.000 F 
ATOM     16  F   UNL     1       2.644   2.975   9.419  0.00  0.00    +0.000 F 
ENDBRANCH  12  13
ENDBRANCH  11  12
ENDBRANCH   9  11
ENDBRANCH   3   5
BRANCH   1  17
ATOM     17  C   UNL     1       4.904   6.504  17.557  0.00  0.00    +0.000 C 
BRANCH  17  23
ATOM     18  C   UNL     1       4.335   2.163  19.911  0.00  0.00    +0.000 C 
ATOM     19  N   UNL     1       4.023   3.349  19.153  0.00  0.00    +0.000 N 
ATOM     20  C   UNL     1       2.787   3.672  18.669  0.00  0.00    +0.000 C 
ATOM     21  O   UNL     1       1.745   3.052  18.839  0.00  0.00    +0.000 OA
ATOM     22  C   UNL     1       2.937   4.900  17.792  0.00  0.00    +0.000 C 
ATOM     23  N   UNL     1       4.264   5.335  18.160  0.00  0.00    +0.000 N 
ATOM     24  C   UNL     1       4.953   4.286  18.769  0.00  0.00    +0.000 C 
ATOM     25  O   UNL     1       6.153   4.230  18.950  0.00  0.00    +0.000 OA
ENDBRANCH  17  23
ENDBRANCH   1  17
TORSDOF 6
ENDMDL
MODEL 3
REMARK VINA RESULT:      -7.1      1.182      1.687
REMARK  Name = 
REMARK  7 active torsions:
REMARK  status: ('A' for Active; 'I' for Inactive)
REMARK    1  A    between atoms: C_1  and  N_2
REMARK    2  A    between atoms: N_6  and  C_7
REMARK    3  A    between atoms: C_7  and  C_8
REMARK    4  A    between atoms: N_10  and  C_11
REMARK    5  A    between atoms: C_15  and  C_16
REMARK    6  A    between atoms: C_16  and  C_17
REMARK    7  A    between atoms: C_17  and  C_18
REMARK                            x       y       z     vdW  Elec       q    Type
REMARK                         _______ _______ _______ _____ _____    ______ ____
ROOT
ATOM      1  C   UNL     1       5.654   5.161  16.744  0.00  0.00    +0.000 C 
ATOM      2  O   UNL     1       4.963   6.047  16.234  0.00  0.00    +0.000 OA
ATOM      3  N   UNL     1       6.452   4.263  16.037  0.00  0.00    +0.000 N 
ATOM      4  H   UNL     1       6.792   3.438  16.518  0.00  0.00    +0.000 HD
ENDROOT
BRANCH   3   5
ATOM      5  C   UNL     1       6.641   4.298  14.631  0.00  0.00    +0.000 A 
ATOM      6  C   UNL     1       7.700   4.989  14.042  0.00  0.00    +0.000 A 
ATOM      7  C   UNL     1       7.837   5.054  12.659  0.00  0.00    +0.000 A 
ATOM      8  C   UNL     1       6.912   4.418  11.840  0.00  0.00    +0.000 A 
ATOM      9  C   UNL     1       5.848   3.695  12.395  0.00  0.00    +0.000 A 
ATOM     10  C   UNL     1       5.728   3.631  13.800  0.00  0.00    +0.000 A 
BRANCH   9  11
ATOM     11  C   UNL     1       4.817   3.047  11.495  0.00  0.00    +0.000 C 
BRANCH  11  12
ATOM     12  C   UNL     1       3.613   3.945  11.202  0.00  0.00    +0.000 C 
BRANCH  12  13
ATOM     13  C   UNL     1       3.013   3.676   9.836  0.00  0.00    +0.000 C 
ATOM     14  F   UNL     1       2.506   2.431   9.726  0.00  0.00    +0.000 F 
ATOM     15  F   UNL     1       2.017   4.548   9.568  0.00  0.00    +0.000 F 
ATOM     16  F   UNL     1       3.948   3.820   8.869  0.00  0.00    +0.000 F 
ENDBRANCH  12  13
ENDBRANCH  11  12
ENDBRANCH   9  11
ENDBRANCH   3   5
BRANCH   1  17
ATOM     17  C   UNL     1       5.628   4.957  18.253  0.00  0.00    +0.000 C 
BRANCH  17  23
ATOM     18  C   UNL     1       1.400   2.401  18.802  0.00  0.00    +0.000 C 
ATOM     19  N   UNL     1       2.382   3.448  18.935  0.00  0.00    +0.000 N 
ATOM     20  C   UNL     1       2.223   4.588  19.671  0.00  0.00    +0.000 C 
ATOM     21  O   UNL     1       1.264   4.884  20.373  0.00  0.00    +0.000 OA
ATOM     22  C   UNL     1       3.413   5.487  19.400  0.00  0.00    +0.000 C 
ATOM     23  N   UNL     1       4.310   4.561  18.749  0.00  0.00    +0.000 N 
ATOM     24  C   UNL     1       3.593   3.457  18.284  0.00  0.00    +0.000 C 
ATOM     25  O   UNL     1       3.984   2.642  17.473  0.00  0.00    +0.000 OA
ENDBRANCH  17  23
ENDBRANCH   1  17
TORSDOF 6
ENDMDL
MODEL 4
REMARK VINA RESULT:      -7.1      5.440      8.198
REMARK  Name = 
REMARK  7 active torsions:
REMARK  status: ('A' for Active; 'I' for Inactive)
REMARK    1  A    between atoms: C_1  and  N_2
REMARK    2  A    between atoms: N_6  and  C_7
REMARK    3  A    between atoms: C_7  and  C_8
REMARK    4  A    between atoms: N_10  and  C_11
REMARK    5  A    between atoms: C_15  and  C_16
REMARK    6  A    between atoms: C_16  and  C_17
REMARK    7  A    between atoms: C_17  and  C_18
REMARK                            x       y       z     vdW  Elec       q    Type
REMARK                         _______ _______ _______ _____ _____    ______ ____
ROOT
ATOM      1  C   UNL     1       2.700   5.759  18.180  0.00  0.00    +0.000 C 
ATOM      2  O   UNL     1       1.638   5.162  18.376  0.00  0.00    +0.000 OA
ATOM      3  N   UNL     1       2.943   7.090  18.518  0.00  0.00    +0.000 N 
ATOM      4  H   UNL     1       3.749   7.550  18.112  0.00  0.00    +0.000 HD
ENDROOT
BRANCH   3   5
ATOM      5  C   UNL     1       2.022   7.919  19.211  0.00  0.00    +0.000 A 
ATOM      6  C   UNL     1       1.736   7.739  20.564  0.00  0.00    +0.000 A 
ATOM      7  C   UNL     1       0.791   8.529  21.211  0.00  0.00    +0.000 A 
ATOM      8  C   UNL     1       0.120   9.523  20.509  0.00  0.00    +0.000 A 
ATOM      9  C   UNL     1       0.398   9.748  19.154  0.00  0.00    +0.000 A 
ATOM     10  C   UNL     1       1.365   8.944  18.514  0.00  0.00    +0.000 A 
BRANCH   9  11
ATOM     11  C   UNL     1      -0.373  10.800  18.385  0.00  0.00    +0.000 C 
BRANCH  11  12
ATOM     12  C   UNL     1      -1.886  10.730  18.606  0.00  0.00    +0.000 C 
BRANCH  12  13
ATOM     13  C   UNL     1      -2.606  10.062  17.451  0.00  0.00    +0.000 C 
ATOM     14  F   UNL     1      -3.361  10.924  16.739  0.00  0.00    +0.000 F 
ATOM     15  F   UNL     1      -1.725   9.492  16.600  0.00  0.00    +0.000 F 
ATOM     16  F   UNL     1      -3.423   9.083  17.902  0.00  0.00    +0.000 F 
ENDBRANCH  12  13
ENDBRANCH  11  12
ENDBRANCH   9  11
ENDBRANCH   3   5
BRANCH   1  17
ATOM     17  C   UNL     1       3.845   5.050  17.470  0.00  0.00    +0.000 C 
BRANCH  17  23
ATOM     18  C   UNL     1       8.081   7.634  17.773  0.00  0.00    +0.000 C 
ATOM     19  N   UNL     1       7.092   6.613  18.012  0.00  0.00    +0.000 N 
ATOM     20  C   UNL     1       7.237   5.562  18.874  0.00  0.00    +0.000 C 
ATOM     21  O   UNL     1       8.188   5.343  19.614  0.00  0.00    +0.000 OA
ATOM     22  C   UNL     1       6.045   4.643  18.693  0.00  0.00    +0.000 C 
ATOM     23  N   UNL     1       5.160   5.495  17.932  0.00  0.00    +0.000 N 
ATOM     24  C   UNL     1       5.888   6.535  17.353  0.00  0.00    +0.000 C 
ATOM     25  O   UNL     1       5.509   7.256  16.452  0.00  0.00    +0.000 OA
ENDBRANCH  17  23
ENDBRANCH   1  17
TORSDOF 6
ENDMDL
MODEL 5
REMARK VINA RESULT:      -7.1      6.412      8.447
REMARK  Name = 
REMARK  7 active torsions:
REMARK  status: ('A' for Active; 'I' for Inactive)
REMARK    1  A    between atoms: C_1  and  N_2
REMARK    2  A    between atoms: N_6  and  C_7
REMARK    3  A    between atoms: C_7  and  C_8
REMARK    4  A    between atoms: N_10  and  C_11
REMARK    5  A    between atoms: C_15  and  C_16
REMARK    6  A    between atoms: C_16  and  C_17
REMARK    7  A    between atoms: C_17  and  C_18
REMARK                            x       y       z     vdW  Elec       q    Type
REMARK                         _______ _______ _______ _____ _____    ______ ____
ROOT
ATOM      1  C   UNL     1       2.162   8.698  18.531  0.00  0.00    +0.000 C 
ATOM      2  O   UNL     1       1.765   8.293  19.627  0.00  0.00    +0.000 OA
ATOM      3  N   UNL     1       2.909   7.947  17.624  0.00  0.00    +0.000 N 
ATOM      4  H   UNL     1       3.380   8.433  16.870  0.00  0.00    +0.000 HD
ENDROOT
BRANCH   3   5
ATOM      5  C   UNL     1       3.247   6.581  17.805  0.00  0.00    +0.000 A 
ATOM      6  C   UNL     1       4.543   6.105  17.606  0.00  0.00    +0.000 A 
ATOM      7  C   UNL     1       4.842   4.753  17.738  0.00  0.00    +0.000 A 
ATOM      8  C   UNL     1       3.841   3.851  18.081  0.00  0.00    +0.000 A 
ATOM      9  C   UNL     1       2.532   4.295  18.312  0.00  0.00    +0.000 A 
ATOM     10  C   UNL     1       2.247   5.672  18.183  0.00  0.00    +0.000 A 
BRANCH   9  11
ATOM     11  C   UNL     1       1.438   3.300  18.636  0.00  0.00    +0.000 C 
BRANCH  11  12
ATOM     12  C   UNL     1       0.786   3.536  20.000  0.00  0.00    +0.000 C 
BRANCH  12  13
ATOM     13  C   UNL     1       1.687   3.124  21.148  0.00  0.00    +0.000 C 
ATOM     14  F   UNL     1       1.009   2.546  22.161  0.00  0.00    +0.000 F 
ATOM     15  F   UNL     1       2.625   2.246  20.731  0.00  0.00    +0.000 F 
ATOM     16  F   UNL     1       2.335   4.199  21.653  0.00  0.00    +0.000 F 
ENDBRANCH  12  13
ENDBRANCH  11  12
ENDBRANCH   9  11
ENDBRANCH   3   5
BRANCH   1  17
ATOM     17  C   UNL     1       1.889  10.136  18.113  0.00  0.00    +0.000 C 
BRANCH  17  23
ATOM     18  C   UNL     1      -1.797  12.165  20.760  0.00  0.00    +0.000 C 
ATOM     19  N   UNL     1      -1.110  11.440  19.721  0.00  0.00    +0.000 N 
ATOM     20  C   UNL     1      -1.712  10.826  18.658  0.00  0.00    +0.000 C 
ATOM     21  O   UNL     1      -2.905  10.833  18.383  0.00  0.00    +0.000 OA
ATOM     22  C   UNL     1      -0.651  10.042  17.912  0.00  0.00    +0.000 C 
ATOM     23  N   UNL     1       0.552  10.593  18.492  0.00  0.00    +0.000 N 
ATOM     24  C   UNL     1       0.248  11.224  19.699  0.00  0.00    +0.000 C 
ATOM     25  O   UNL     1       1.045  11.547  20.556  0.00  0.00    +0.000 OA
ENDBRANCH  17  23
ENDBRANCH   1  17
TORSDOF 6
ENDMDL
MODEL 6
REMARK VINA RESULT:      -7.1      3.336      5.046
REMARK  Name = 
REMARK  7 active torsions:
REMARK  status: ('A' for Active; 'I' for Inactive)
REMARK    1  A    between atoms: C_1  and  N_2
REMARK    2  A    between atoms: N_6  and  C_7
REMARK    3  A    between atoms: C_7  and  C_8
REMARK    4  A    between atoms: N_10  and  C_11
REMARK    5  A    between atoms: C_15  and  C_16
REMARK    6  A    between atoms: C_16  and  C_17
REMARK    7  A    between atoms: C_17  and  C_18
REMARK                            x       y       z     vdW  Elec       q    Type
REMARK                         _______ _______ _______ _____ _____    ______ ____
ROOT
ATOM      1  C   UNL     1       3.304   5.223  19.504  0.00  0.00    +0.000 C 
ATOM      2  O   UNL     1       3.225   3.993  19.445  0.00  0.00    +0.000 OA
ATOM      3  N   UNL     1       4.300   5.991  18.901  0.00  0.00    +0.000 N 
ATOM      4  H   UNL     1       4.411   6.954  19.197  0.00  0.00    +0.000 HD
ENDROOT
BRANCH   3   5
ATOM      5  C   UNL     1       5.319   5.464  18.067  0.00  0.00    +0.000 A 
ATOM      6  C   UNL     1       6.568   5.094  18.566  0.00  0.00    +0.000 A 
ATOM      7  C   UNL     1       7.572   4.629  17.722  0.00  0.00    +0.000 A 
ATOM      8  C   UNL     1       7.335   4.518  16.358  0.00  0.00    +0.000 A 
ATOM      9  C   UNL     1       6.085   4.858  15.823  0.00  0.00    +0.000 A 
ATOM     10  C   UNL     1       5.075   5.320  16.693  0.00  0.00    +0.000 A 
BRANCH   9  11
ATOM     11  C   UNL     1       5.852   4.782  14.329  0.00  0.00    +0.000 C 
BRANCH  11  12
ATOM     12  C   UNL     1       6.218   3.426  13.723  0.00  0.00    +0.000 C 
BRANCH  12  13
ATOM     13  C   UNL     1       6.294   3.473  12.209  0.00  0.00    +0.000 C 
ATOM     14  F   UNL     1       6.801   2.342  11.677  0.00  0.00    +0.000 F 
ATOM     15  F   UNL     1       5.070   3.665  11.672  0.00  0.00    +0.000 F 
ATOM     16  F   UNL     1       7.078   4.499  11.804  0.00  0.00    +0.000 F 
ENDBRANCH  12  13
ENDBRANCH  11  12
ENDBRANCH   9  11
ENDBRANCH   3   5
BRANCH   1  17
ATOM     17  C   UNL     1       2.291   6.006  20.329  0.00  0.00    +0.000 C 
BRANCH  17  23
ATOM     18  C   UNL     1       0.727  10.716  20.051  0.00  0.00    +0.000 C 
ATOM     19  N   UNL     1       1.287   9.446  19.665  0.00  0.00    +0.000 N 
ATOM     20  C   UNL     1       1.771   9.143  18.423  0.00  0.00    +0.000 C 
ATOM     21  O   UNL     1       1.860   9.898  17.464  0.00  0.00    +0.000 OA
ATOM     22  C   UNL     1       2.101   7.663  18.400  0.00  0.00    +0.000 C 
ATOM     23  N   UNL     1       2.058   7.355  19.811  0.00  0.00    +0.000 N 
ATOM     24  C   UNL     1       1.354   8.349  20.491  0.00  0.00    +0.000 C 
ATOM     25  O   UNL     1       0.909   8.264  21.618  0.00  0.00    +0.000 OA
ENDBRANCH  17  23
ENDBRANCH   1  17
TORSDOF 6
ENDMDL
MODEL 7
REMARK VINA RESULT:      -7.1      6.624      8.452
REMARK  Name = 
REMARK  7 active torsions:
REMARK  status: ('A' for Active; 'I' for Inactive)
REMARK    1  A    between atoms: C_1  and  N_2
REMARK    2  A    between atoms: N_6  and  C_7
REMARK    3  A    between atoms: C_7  and  C_8
REMARK    4  A    between atoms: N_10  and  C_11
REMARK    5  A    between atoms: C_15  and  C_16
REMARK    6  A    between atoms: C_16  and  C_17
REMARK    7  A    between atoms: C_17  and  C_18
REMARK                            x       y       z     vdW  Elec       q    Type
REMARK                         _______ _______ _______ _____ _____    ______ ____
ROOT
ATOM      1  C   UNL     1       1.751   8.835  18.917  0.00  0.00    +0.000 C 
ATOM      2  O   UNL     1       1.581   8.298  20.014  0.00  0.00    +0.000 OA
ATOM      3  N   UNL     1       2.419   8.258  17.838  0.00  0.00    +0.000 N 
ATOM      4  H   UNL     1       2.706   8.858  17.073  0.00  0.00    +0.000 HD
ENDROOT
BRANCH   3   5
ATOM      5  C   UNL     1       2.929   6.934  17.831  0.00  0.00    +0.000 A 
ATOM      6  C   UNL     1       4.267   6.657  17.550  0.00  0.00    +0.000 A 
ATOM      7  C   UNL     1       4.735   5.347  17.496  0.00  0.00    +0.000 A 
ATOM      8  C   UNL     1       3.865   4.289  17.731  0.00  0.00    +0.000 A 
ATOM      9  C   UNL     1       2.519   4.530  18.039  0.00  0.00    +0.000 A 
ATOM     10  C   UNL     1       2.062   5.864  18.098  0.00  0.00    +0.000 A 
BRANCH   9  11
ATOM     11  C   UNL     1       1.567   3.370  18.245  0.00  0.00    +0.000 C 
BRANCH  11  12
ATOM     12  C   UNL     1       1.820   2.598  19.541  0.00  0.00    +0.000 C 
BRANCH  12  13
ATOM     13  C   UNL     1       1.374   3.370  20.767  0.00  0.00    +0.000 C 
ATOM     14  F   UNL     1       0.421   4.283  20.491  0.00  0.00    +0.000 F 
ATOM     15  F   UNL     1       0.879   2.535  21.707  0.00  0.00    +0.000 F 
ATOM     16  F   UNL     1       2.419   4.027  21.321  0.00  0.00    +0.000 F 
ENDBRANCH  12  13
ENDBRANCH  11  12
ENDBRANCH   9  11
ENDBRANCH   3   5
BRANCH   1  17
ATOM     17  C   UNL     1       1.258  10.258  18.688  0.00  0.00    +0.000 C 
BRANCH  17  23
ATOM     18  C   UNL     1      -2.544  12.462  21.012  0.00  0.00    +0.000 C 
ATOM     19  N   UNL     1      -1.285  11.793  20.799  0.00  0.00    +0.000 N 
ATOM     20  C   UNL     1      -0.403  11.443  21.783  0.00  0.00    +0.000 C 
ATOM     21  O   UNL     1      -0.552  11.585  22.990  0.00  0.00    +0.000 OA
ATOM     22  C   UNL     1       0.856  10.924  21.117  0.00  0.00    +0.000 C 
ATOM     23  N   UNL     1       0.388  10.736  19.763  0.00  0.00    +0.000 N 
ATOM     24  C   UNL     1      -0.782  11.471  19.561  0.00  0.00    +0.000 C 
ATOM     25  O   UNL     1      -1.275  11.747  18.487  0.00  0.00    +0.000 OA
ENDBRANCH  17  23
ENDBRANCH   1  17
TORSDOF 6
ENDMDL
MODEL 8
REMARK VINA RESULT:      -7.1      2.253      3.328
REMARK  Name = 
REMARK  7 active torsions:
REMARK  status: ('A' for Active; 'I' for Inactive)
REMARK    1  A    between atoms: C_1  and  N_2
REMARK    2  A    between atoms: N_6  and  C_7
REMARK    3  A    between atoms: C_7  and  C_8
REMARK    4  A    between atoms: N_10  and  C_11
REMARK    5  A    between atoms: C_15  and  C_16
REMARK    6  A    between atoms: C_16  and  C_17
REMARK    7  A    between atoms: C_17  and  C_18
REMARK                            x       y       z     vdW  Elec       q    Type
REMARK                         _______ _______ _______ _____ _____    ______ ____
ROOT
ATOM      1  C   UNL     1       3.434   6.501  18.330  0.00  0.00    +0.000 C 
ATOM      2  O   UNL     1       3.747   7.550  17.762  0.00  0.00    +0.000 OA
ATOM      3  N   UNL     1       4.128   5.297  18.226  0.00  0.00    +0.000 N 
ATOM      4  H   UNL     1       3.670   4.447  18.536  0.00  0.00    +0.000 HD
ENDROOT
BRANCH   3   5
ATOM      5  C   UNL     1       5.343   5.135  17.510  0.00  0.00    +0.000 A 
ATOM      6  C   UNL     1       6.588   5.240  18.130  0.00  0.00    +0.000 A 
ATOM      7  C   UNL     1       7.768   5.130  17.400  0.00  0.00    +0.000 A 
ATOM      8  C   UNL     1       7.717   4.904  16.030  0.00  0.00    +0.000 A 
ATOM      9  C   UNL     1       6.485   4.771  15.376  0.00  0.00    +0.000 A 
ATOM     10  C   UNL     1       5.297   4.876  16.132  0.00  0.00    +0.000 A 
BRANCH   9  11
ATOM     11  C   UNL     1       6.438   4.575  13.876  0.00  0.00    +0.000 C 
BRANCH  11  12
ATOM     12  C   UNL     1       5.468   3.477  13.435  0.00  0.00    +0.000 C 
BRANCH  12  13
ATOM     13  C   UNL     1       5.555   3.194  11.948  0.00  0.00    +0.000 C 
ATOM     14  F   UNL     1       4.526   3.723  11.254  0.00  0.00    +0.000 F 
ATOM     15  F   UNL     1       6.698   3.695  11.430  0.00  0.00    +0.000 F 
ATOM     16  F   UNL     1       5.558   1.861  11.717  0.00  0.00    +0.000 F 
ENDBRANCH  12  13
ENDBRANCH  11  12
ENDBRANCH   9  11
ENDBRANCH   3   5
BRANCH   1  17
ATOM     17  C   UNL     1       2.171   6.450  19.180  0.00  0.00    +0.000 C 
BRANCH  17  23
ATOM     18  C   UNL     1       0.712   1.698  19.178  0.00  0.00    +0.000 C 
ATOM     19  N   UNL     1       1.134   2.989  19.658  0.00  0.00    +0.000 N 
ATOM     20  C   UNL     1       1.310   3.322  20.973  0.00  0.00    +0.000 C 
ATOM     21  O   UNL     1       1.195   2.581  21.941  0.00  0.00    +0.000 OA
ATOM     22  C   UNL     1       1.585   4.811  21.043  0.00  0.00    +0.000 C 
ATOM     23  N   UNL     1       1.861   5.101  19.656  0.00  0.00    +0.000 N 
ATOM     24  C   UNL     1       1.360   4.078  18.850  0.00  0.00    +0.000 C 
ATOM     25  O   UNL     1       1.184   4.135  17.650  0.00  0.00    +0.000 OA
ENDBRANCH  17  23
ENDBRANCH   1  17
TORSDOF 6
ENDMDL
MODEL 9
REMARK VINA RESULT:      -7.0      6.115      8.032
REMARK  Name = 
REMARK  7 active torsions:
REMARK  status: ('A' for Active; 'I' for Inactive)
REMARK    1  A    between atoms: C_1  and  N_2
REMARK    2  A    between atoms: N_6  and  C_7
REMARK    3  A    between atoms: C_7  and  C_8
REMARK    4  A    between atoms: N_10  and  C_11
REMARK    5  A    between atoms: C_15  and  C_16
REMARK    6  A    between atoms: C_16  and  C_17
REMARK    7  A    between atoms: C_17  and  C_18
REMARK                            x       y       z     vdW  Elec       q    Type
REMARK                         _______ _______ _______ _____ _____    ______ ____
ROOT
ATOM      1  C   UNL     1       1.945   8.693  17.851  0.00  0.00    +0.000 C 
ATOM      2  O   UNL     1       0.944   8.214  17.311  0.00  0.00    +0.000 OA
ATOM      3  N   UNL     1       3.094   7.977  18.184  0.00  0.00    +0.000 N 
ATOM      4  H   UNL     1       3.756   8.400  18.825  0.00  0.00    +0.000 HD
ENDROOT
BRANCH   3   5
ATOM      5  C   UNL     1       3.301   6.609  17.871  0.00  0.00    +0.000 A 
ATOM      6  C   UNL     1       4.388   6.179  17.109  0.00  0.00    +0.000 A 
ATOM      7  C   UNL     1       4.544   4.839  16.770  0.00  0.00    +0.000 A 
ATOM      8  C   UNL     1       3.611   3.902  17.198  0.00  0.00    +0.000 A 
ATOM      9  C   UNL     1       2.518   4.293  17.983  0.00  0.00    +0.000 A 
ATOM     10  C   UNL     1       2.379   5.655  18.327  0.00  0.00    +0.000 A 
BRANCH   9  11
ATOM     11  C   UNL     1       1.480   3.274  18.403  0.00  0.00    +0.000 C 
BRANCH  11  12
ATOM     12  C   UNL     1       1.835   2.540  19.698  0.00  0.00    +0.000 C 
BRANCH  12  13
ATOM     13  C   UNL     1       1.412   3.314  20.932  0.00  0.00    +0.000 C 
ATOM     14  F   UNL     1       0.884   2.522  21.888  0.00  0.00    +0.000 F 
ATOM     15  F   UNL     1       2.464   3.964  21.475  0.00  0.00    +0.000 F 
ATOM     16  F   UNL     1       0.483   4.244  20.614  0.00  0.00    +0.000 F 
ENDBRANCH  12  13
ENDBRANCH  11  12
ENDBRANCH   9  11
ENDBRANCH   3   5
BRANCH   1  17
ATOM     17  C   UNL     1       1.955  10.162  18.254  0.00  0.00    +0.000 C 
BRANCH  17  23
ATOM     18  C   UNL     1      -0.498   9.809  22.563  0.00  0.00    +0.000 C 
ATOM     19  N   UNL     1      -0.131  10.248  21.240  0.00  0.00    +0.000 N 
ATOM     20  C   UNL     1      -0.777  11.217  20.525  0.00  0.00    +0.000 C 
ATOM     21  O   UNL     1      -1.723  11.900  20.898  0.00  0.00    +0.000 OA
ATOM     22  C   UNL     1      -0.179  11.245  19.133  0.00  0.00    +0.000 C 
ATOM     23  N   UNL     1       1.016  10.460  19.335  0.00  0.00    +0.000 N 
ATOM     24  C   UNL     1       0.891   9.702  20.501  0.00  0.00    +0.000 C 
ATOM     25  O   UNL     1       1.582   8.754  20.813  0.00  0.00    +0.000 OA
ENDBRANCH  17  23
ENDBRANCH   1  17
TORSDOF 6
ENDMDL
