MODEL 1
REMARK VINA RESULT:      -9.4      0.000      0.000
REMARK  Name = 
REMARK  6 active torsions:
REMARK  status: ('A' for Active; 'I' for Inactive)
REMARK    1  A    between atoms: C_1  and  N_2
REMARK    2  A    between atoms: C_7  and  C_9
REMARK    3  A    between atoms: C_12  and  C_13
REMARK    4  A    between atoms: C_16  and  N_17
REMARK    5  A    between atoms: C_18  and  C_19
REMARK    6  A    between atoms: C_22  and  C_23
REMARK                            x       y       z     vdW  Elec       q    Type
REMARK                         _______ _______ _______ _____ _____    ______ ____
ROOT
ATOM      1  C   UNL     1       3.040   6.482  18.894  0.00  0.00    +0.000 A 
ATOM      2  C   UNL     1       3.094   5.512  19.884  0.00  0.00    +0.000 A 
ATOM      3  N   UNL     1       3.875   4.413  19.820  0.00  0.00    +0.000 NA
ATOM      4  C   UNL     1       4.633   4.294  18.713  0.00  0.00    +0.000 A 
ATOM      5  C   UNL     1       4.613   5.263  17.685  0.00  0.00    +0.000 A 
ATOM      6  N   UNL     1       3.828   6.378  17.788  0.00  0.00    +0.000 NA
ENDROOT
BRANCH   1  10
ATOM      7  C   UNL     1       0.657  10.061  19.210  0.00  0.00    +0.000 A 
ATOM      8  C   UNL     1       1.259   9.692  18.005  0.00  0.00    +0.000 A 
ATOM      9  C   UNL     1       1.942   8.481  17.886  0.00  0.00    +0.000 A 
ATOM     10  C   UNL     1       2.188   7.679  19.007  0.00  0.00    +0.000 A 
ATOM     11  C   UNL     1       1.649   8.102  20.239  0.00  0.00    +0.000 A 
ATOM     12  C   UNL     1       0.884   9.272  20.340  0.00  0.00    +0.000 A 
BRANCH   7  19
ATOM     13  C   UNL     1       3.601  15.420  18.924  0.00  0.00    +0.000 C 
ATOM     14  N   UNL     1       2.345  14.908  18.371  0.00  0.00    +0.000 NA
ATOM     15  C   UNL     1       1.190  15.520  19.045  0.00  0.00    +0.000 C 
ATOM     16  C   UNL     1      -0.160  14.810  18.856  0.00  0.00    +0.000 C 
ATOM     17  C   UNL     1      -0.398  13.691  19.878  0.00  0.00    +0.000 C 
ATOM     18  N   UNL     1       0.458  12.516  19.702  0.00  0.00    +0.000 N 
ATOM     19  C   UNL     1      -0.153  11.303  19.350  0.00  0.00    +0.000 C 
ATOM     20  O   UNL     1      -1.367  11.200  19.144  0.00  0.00    +0.000 OA
ATOM     21  C   UNL     1       1.904  12.789  19.672  0.00  0.00    +0.000 C 
ATOM     22  C   UNL     1       2.342  13.443  18.357  0.00  0.00    +0.000 C 
ENDBRANCH   7  19
ENDBRANCH   1  10
BRANCH   5  23
ATOM     23  C   UNL     1       5.413   5.167  16.444  0.00  0.00    +0.000 A 
ATOM     24  C   UNL     1       4.950   4.493  15.304  0.00  0.00    +0.000 A 
ATOM     25  C   UNL     1       5.727   4.432  14.140  0.00  0.00    +0.000 A 
ATOM     26  C   UNL     1       6.976   5.051  14.118  0.00  0.00    +0.000 A 
ATOM     27  N   UNL     1       7.457   5.701  15.213  0.00  0.00    +0.000 NA
ATOM     28  C   UNL     1       6.685   5.725  16.329  0.00  0.00    +0.000 A 
BRANCH  26  29
ATOM     29  C   UNL     1       7.843   5.002  12.868  0.00  0.00    +0.000 C 
ATOM     30  F   UNL     1       7.725   6.116  12.085  0.00  0.00    +0.000 F 
ATOM     31  F   UNL     1       9.175   4.896  13.145  0.00  0.00    +0.000 F 
ATOM     32  F   UNL     1       7.542   3.951  12.052  0.00  0.00    +0.000 F 
ENDBRANCH  26  29
ENDBRANCH   5  23
BRANCH   4  33
ATOM     33  N   UNL     1       5.384   3.121  18.679  0.00  0.00    +0.000 N 
ATOM     34  H   UNL     1       5.751   3.031  17.733  0.00  0.00    +0.000 HD
ATOM     35  H   UNL     1       4.852   2.305  18.959  0.00  0.00    +0.000 HD
ENDBRANCH   4  33
TORSDOF 5
ENDMDL
MODEL 2
REMARK VINA RESULT:      -8.6      2.009      3.055
REMARK  Name = 
REMARK  6 active torsions:
REMARK  status: ('A' for Active; 'I' for Inactive)
REMARK    1  A    between atoms: C_1  and  N_2
REMARK    2  A    between atoms: C_7  and  C_9
REMARK    3  A    between atoms: C_12  and  C_13
REMARK    4  A    between atoms: C_16  and  N_17
REMARK    5  A    between atoms: C_18  and  C_19
REMARK    6  A    between atoms: C_22  and  C_23
REMARK                            x       y       z     vdW  Elec       q    Type
REMARK                         _______ _______ _______ _____ _____    ______ ____
ROOT
ATOM      1  C   UNL     1       3.144   6.148  19.116  0.00  0.00    +0.000 A 
ATOM      2  C   UNL     1       3.176   5.077  19.998  0.00  0.00    +0.000 A 
ATOM      3  N   UNL     1       3.923   3.969  19.811  0.00  0.00    +0.000 NA
ATOM      4  C   UNL     1       4.667   3.944  18.689  0.00  0.00    +0.000 A 
ATOM      5  C   UNL     1       4.669   5.016  17.768  0.00  0.00    +0.000 A 
ATOM      6  N   UNL     1       3.919   6.136  17.996  0.00  0.00    +0.000 NA
ENDROOT
BRANCH   1  10
ATOM      7  C   UNL     1       0.650   9.590  19.834  0.00  0.00    +0.000 A 
ATOM      8  C   UNL     1       0.783   8.577  20.787  0.00  0.00    +0.000 A 
ATOM      9  C   UNL     1       1.671   7.519  20.588  0.00  0.00    +0.000 A 
ATOM     10  C   UNL     1       2.330   7.350  19.364  0.00  0.00    +0.000 A 
ATOM     11  C   UNL     1       2.122   8.333  18.374  0.00  0.00    +0.000 A 
ATOM     12  C   UNL     1       1.303   9.445  18.608  0.00  0.00    +0.000 A 
BRANCH   7  19
ATOM     13  C   UNL     1      -4.048  10.401  15.994  0.00  0.00    +0.000 C 
ATOM     14  N   UNL     1      -3.874  10.520  17.443  0.00  0.00    +0.000 NA
ATOM     15  C   UNL     1      -3.903  11.931  17.858  0.00  0.00    +0.000 C 
ATOM     16  C   UNL     1      -3.351  12.237  19.259  0.00  0.00    +0.000 C 
ATOM     17  C   UNL     1      -1.833  12.463  19.272  0.00  0.00    +0.000 C 
ATOM     18  N   UNL     1      -1.039  11.259  19.016  0.00  0.00    +0.000 N 
ATOM     19  C   UNL     1      -0.223  10.778  20.050  0.00  0.00    +0.000 C 
ATOM     20  O   UNL     1      -0.181  11.301  21.169  0.00  0.00    +0.000 OA
ATOM     21  C   UNL     1      -1.371  10.536  17.777  0.00  0.00    +0.000 C 
ATOM     22  C   UNL     1      -2.695   9.773  17.890  0.00  0.00    +0.000 C 
ENDBRANCH   7  19
ENDBRANCH   1  10
BRANCH   5  23
ATOM     23  C   UNL     1       5.455   5.027  16.515  0.00  0.00    +0.000 A 
ATOM     24  C   UNL     1       5.011   4.391  15.345  0.00  0.00    +0.000 A 
ATOM     25  C   UNL     1       5.773   4.431  14.172  0.00  0.00    +0.000 A 
ATOM     26  C   UNL     1       6.989   5.114  14.169  0.00  0.00    +0.000 A 
ATOM     27  N   UNL     1       7.451   5.729  15.291  0.00  0.00    +0.000 NA
ATOM     28  C   UNL     1       6.695   5.655  16.415  0.00  0.00    +0.000 A 
BRANCH  26  29
ATOM     29  C   UNL     1       7.839   5.176  12.908  0.00  0.00    +0.000 C 
ATOM     30  F   UNL     1       7.583   6.276  12.137  0.00  0.00    +0.000 F 
ATOM     31  F   UNL     1       9.178   5.222  13.168  0.00  0.00    +0.000 F 
ATOM     32  F   UNL     1       7.651   4.104  12.085  0.00  0.00    +0.000 F 
ENDBRANCH  26  29
ENDBRANCH   5  23
BRANCH   4  33
ATOM     33  N   UNL     1       5.382   2.760  18.524  0.00  0.00    +0.000 N 
ATOM     34  H   UNL     1       6.146   2.778  19.197  0.00  0.00    +0.000 HD
ATOM     35  H   UNL     1       5.716   2.631  17.575  0.00  0.00    +0.000 HD
ENDBRANCH   4  33
TORSDOF 5
ENDMDL
MODEL 3
REMARK VINA RESULT:      -8.4      0.771      1.375
REMARK  Name = 
REMARK  6 active torsions:
REMARK  status: ('A' for Active; 'I' for Inactive)
REMARK    1  A    between atoms: C_1  and  N_2
REMARK    2  A    between atoms: C_7  and  C_9
REMARK    3  A    between atoms: C_12  and  C_13
REMARK    4  A    between atoms: C_16  and  N_17
REMARK    5  A    between atoms: C_18  and  C_19
REMARK    6  A    between atoms: C_22  and  C_23
REMARK                            x       y       z     vdW  Elec       q    Type
REMARK                         _______ _______ _______ _____ _____    ______ ____
ROOT
ATOM      1  C   UNL     1       3.086   6.437  18.899  0.00  0.00    +0.000 A 
ATOM      2  C   UNL     1       3.205   5.542  19.953  0.00  0.00    +0.000 A 
ATOM      3  N   UNL     1       3.932   4.407  19.897  0.00  0.00    +0.000 NA
ATOM      4  C   UNL     1       4.564   4.169  18.732  0.00  0.00    +0.000 A 
ATOM      5  C   UNL     1       4.475   5.059  17.637  0.00  0.00    +0.000 A 
ATOM      6  N   UNL     1       3.748   6.214  17.730  0.00  0.00    +0.000 NA
ENDROOT
BRANCH   1  10
ATOM      7  C   UNL     1       0.666   9.991  19.223  0.00  0.00    +0.000 A 
ATOM      8  C   UNL     1       0.902   9.169  20.327  0.00  0.00    +0.000 A 
ATOM      9  C   UNL     1       1.769   8.079  20.237  0.00  0.00    +0.000 A 
ATOM     10  C   UNL     1       2.297   7.677  19.003  0.00  0.00    +0.000 A 
ATOM     11  C   UNL     1       1.983   8.464  17.876  0.00  0.00    +0.000 A 
ATOM     12  C   UNL     1       1.187   9.613  17.984  0.00  0.00    +0.000 A 
BRANCH   7  19
ATOM     13  C   UNL     1       3.478  15.427  19.116  0.00  0.00    +0.000 C 
ATOM     14  N   UNL     1       2.276  14.880  18.482  0.00  0.00    +0.000 NA
ATOM     15  C   UNL     1       1.063  15.462  19.075  0.00  0.00    +0.000 C 
ATOM     16  C   UNL     1      -0.252  14.716  18.799  0.00  0.00    +0.000 C 
ATOM     17  C   UNL     1      -0.529  13.592  19.806  0.00  0.00    +0.000 C 
ATOM     18  N   UNL     1       0.369  12.440  19.693  0.00  0.00    +0.000 N 
ATOM     19  C   UNL     1      -0.184  11.211  19.305  0.00  0.00    +0.000 C 
ATOM     20  O   UNL     1      -1.378  11.075  19.018  0.00  0.00    +0.000 OA
ATOM     21  C   UNL     1       1.806  12.753  19.758  0.00  0.00    +0.000 C 
ATOM     22  C   UNL     1       2.314  13.416  18.473  0.00  0.00    +0.000 C 
ENDBRANCH   7  19
ENDBRANCH   1  10
BRANCH   5  23
ATOM     23  C   UNL     1       5.135   4.833  16.334  0.00  0.00    +0.000 A 
ATOM     24  C   UNL     1       6.483   5.156  16.109  0.00  0.00    +0.000 A 
ATOM     25  C   UNL     1       7.082   4.918  14.867  0.00  0.00    +0.000 A 
ATOM     26  C   UNL     1       6.328   4.349  13.841  0.00  0.00    +0.000 A 
ATOM     27  N   UNL     1       5.016   4.037  14.025  0.00  0.00    +0.000 NA
ATOM     28  C   UNL     1       4.463   4.298  15.236  0.00  0.00    +0.000 A 
BRANCH  26  29
ATOM     29  C   UNL     1       6.952   4.077  12.480  0.00  0.00    +0.000 C 
ATOM     30  F   UNL     1       6.040   4.052  11.463  0.00  0.00    +0.000 F 
ATOM     31  F   UNL     1       7.873   5.016  12.116  0.00  0.00    +0.000 F 
ATOM     32  F   UNL     1       7.595   2.875  12.420  0.00  0.00    +0.000 F 
ENDBRANCH  26  29
ENDBRANCH   5  23
BRANCH   4  33
ATOM     33  N   UNL     1       5.262   2.964  18.715  0.00  0.00    +0.000 N 
ATOM     34  H   UNL     1       5.465   2.725  19.684  0.00  0.00    +0.000 HD
ATOM     35  H   UNL     1       6.103   3.004  18.150  0.00  0.00    +0.000 HD
ENDBRANCH   4  33
TORSDOF 5
ENDMDL
MODEL 4
REMARK VINA RESULT:      -8.0      6.358     11.406
REMARK  Name = 
REMARK  6 active torsions:
REMARK  status: ('A' for Active; 'I' for Inactive)
REMARK    1  A    between atoms: C_1  and  N_2
REMARK    2  A    between atoms: C_7  and  C_9
REMARK    3  A    between atoms: C_12  and  C_13
REMARK    4  A    between atoms: C_16  and  N_17
REMARK    5  A    between atoms: C_18  and  C_19
REMARK    6  A    between atoms: C_22  and  C_23
REMARK                            x       y       z     vdW  Elec       q    Type
REMARK                         _______ _______ _______ _____ _____    ______ ____
ROOT
ATOM      1  C   UNL     1       0.467  11.190  19.240  0.00  0.00    +0.000 A 
ATOM      2  C   UNL     1       1.146  12.388  19.408  0.00  0.00    +0.000 A 
ATOM      3  N   UNL     1       0.541  13.567  19.663  0.00  0.00    +0.000 NA
ATOM      4  C   UNL     1      -0.802  13.531  19.754  0.00  0.00    +0.000 A 
ATOM      5  C   UNL     1      -1.531  12.331  19.597  0.00  0.00    +0.000 A 
ATOM      6  N   UNL     1      -0.888  11.147  19.361  0.00  0.00    +0.000 NA
ENDROOT
BRANCH   1  10
ATOM      7  C   UNL     1       2.606   7.508  18.564  0.00  0.00    +0.000 A 
ATOM      8  C   UNL     1       2.022   7.793  19.800  0.00  0.00    +0.000 A 
ATOM      9  C   UNL     1       1.245   8.939  19.979  0.00  0.00    +0.000 A 
ATOM     10  C   UNL     1       1.164   9.918  18.980  0.00  0.00    +0.000 A 
ATOM     11  C   UNL     1       1.830   9.661  17.764  0.00  0.00    +0.000 A 
ATOM     12  C   UNL     1       2.533   8.468  17.552  0.00  0.00    +0.000 A 
BRANCH   7  19
ATOM     13  C   UNL     1       1.193   2.597  21.936  0.00  0.00    +0.000 C 
ATOM     14  N   UNL     1       1.488   2.820  20.518  0.00  0.00    +0.000 NA
ATOM     15  C   UNL     1       2.802   2.262  20.165  0.00  0.00    +0.000 C 
ATOM     16  C   UNL     1       3.413   2.752  18.842  0.00  0.00    +0.000 C 
ATOM     17  C   UNL     1       4.216   4.050  18.995  0.00  0.00    +0.000 C 
ATOM     18  N   UNL     1       3.405   5.236  19.278  0.00  0.00    +0.000 N 
ATOM     19  C   UNL     1       3.369   6.253  18.313  0.00  0.00    +0.000 C 
ATOM     20  O   UNL     1       3.954   6.168  17.228  0.00  0.00    +0.000 OA
ATOM     21  C   UNL     1       2.512   5.126  20.443  0.00  0.00    +0.000 C 
ATOM     22  C   UNL     1       1.303   4.229  20.163  0.00  0.00    +0.000 C 
ENDBRANCH   7  19
ENDBRANCH   1  10
BRANCH   5  23
ATOM     23  C   UNL     1      -3.005  12.245  19.671  0.00  0.00    +0.000 A 
ATOM     24  C   UNL     1      -3.727  12.678  20.794  0.00  0.00    +0.000 A 
ATOM     25  C   UNL     1      -5.124  12.594  20.827  0.00  0.00    +0.000 A 
ATOM     26  C   UNL     1      -5.804  12.075  19.727  0.00  0.00    +0.000 A 
ATOM     27  N   UNL     1      -5.132  11.635  18.629  0.00  0.00    +0.000 NA
ATOM     28  C   UNL     1      -3.777  11.714  18.638  0.00  0.00    +0.000 A 
BRANCH  26  29
ATOM     29  C   UNL     1      -7.323  11.973  19.733  0.00  0.00    +0.000 C 
ATOM     30  F   UNL     1      -7.916  12.791  20.653  0.00  0.00    +0.000 F 
ATOM     31  F   UNL     1      -7.887  12.309  18.536  0.00  0.00    +0.000 F 
ATOM     32  F   UNL     1      -7.772  10.716  20.021  0.00  0.00    +0.000 F 
ENDBRANCH  26  29
ENDBRANCH   5  23
BRANCH   4  33
ATOM     33  N   UNL     1      -1.377  14.781  19.974  0.00  0.00    +0.000 N 
ATOM     34  H   UNL     1      -1.998  14.964  19.187  0.00  0.00    +0.000 HD
ATOM     35  H   UNL     1      -0.688  15.515  20.092  0.00  0.00    +0.000 HD
ENDBRANCH   4  33
TORSDOF 5
ENDMDL
MODEL 5
REMARK VINA RESULT:      -7.9      1.592      2.444
REMARK  Name = 
REMARK  6 active torsions:
REMARK  status: ('A' for Active; 'I' for Inactive)
REMARK    1  A    between atoms: C_1  and  N_2
REMARK    2  A    between atoms: C_7  and  C_9
REMARK    3  A    between atoms: C_12  and  C_13
REMARK    4  A    between atoms: C_16  and  N_17
REMARK    5  A    between atoms: C_18  and  C_19
REMARK    6  A    between atoms: C_22  and  C_23
REMARK                            x       y       z     vdW  Elec       q    Type
REMARK                         _______ _______ _______ _____ _____    ______ ____
ROOT
ATOM      1  C   UNL     1       1.652   7.850  19.971  0.00  0.00    +0.000 A 
ATOM      2  C   UNL     1       1.402   6.986  21.028  0.00  0.00    +0.000 A 
ATOM      3  N   UNL     1       1.870   5.722  21.094  0.00  0.00    +0.000 NA
ATOM      4  C   UNL     1       2.621   5.318  20.052  0.00  0.00    +0.000 A 
ATOM      5  C   UNL     1       2.906   6.168  18.960  0.00  0.00    +0.000 A 
ATOM      6  N   UNL     1       2.436   7.452  18.931  0.00  0.00    +0.000 NA
ENDROOT
BRANCH   1  10
ATOM      7  C   UNL     1       0.028  11.843  19.918  0.00  0.00    +0.000 A 
ATOM      8  C   UNL     1       0.150  11.124  21.108  0.00  0.00    +0.000 A 
ATOM      9  C   UNL     1       0.771   9.874  21.130  0.00  0.00    +0.000 A 
ATOM     10  C   UNL     1       1.139   9.231  19.942  0.00  0.00    +0.000 A 
ATOM     11  C   UNL     1       0.933   9.930  18.735  0.00  0.00    +0.000 A 
ATOM     12  C   UNL     1       0.395  11.224  18.721  0.00  0.00    +0.000 A 
BRANCH   7  19
ATOM     13  C   UNL     1       3.813  16.481  18.636  0.00  0.00    +0.000 C 
ATOM     14  N   UNL     1       2.458  16.116  18.218  0.00  0.00    +0.000 NA
ATOM     15  C   UNL     1       1.465  17.023  18.813  0.00  0.00    +0.000 C 
ATOM     16  C   UNL     1       0.006  16.542  18.789  0.00  0.00    +0.000 C 
ATOM     17  C   UNL     1      -0.357  15.662  19.993  0.00  0.00    +0.000 C 
ATOM     18  N   UNL     1       0.277  14.342  19.993  0.00  0.00    +0.000 N 
ATOM     19  C   UNL     1      -0.550  13.216  19.870  0.00  0.00    +0.000 C 
ATOM     20  O   UNL     1      -1.774  13.297  19.722  0.00  0.00    +0.000 OA
ATOM     21  C   UNL     1       1.744  14.347  19.871  0.00  0.00    +0.000 C 
ATOM     22  C   UNL     1       2.207  14.692  18.452  0.00  0.00    +0.000 C 
ENDBRANCH   7  19
ENDBRANCH   1  10
BRANCH   5  23
ATOM     23  C   UNL     1       3.710   5.764  17.787  0.00  0.00    +0.000 A 
ATOM     24  C   UNL     1       4.453   6.685  17.033  0.00  0.00    +0.000 A 
ATOM     25  C   UNL     1       5.215   6.268  15.935  0.00  0.00    +0.000 A 
ATOM     26  C   UNL     1       5.236   4.917  15.591  0.00  0.00    +0.000 A 
ATOM     27  N   UNL     1       4.516   4.002  16.295  0.00  0.00    +0.000 NA
ATOM     28  C   UNL     1       3.774   4.444  17.341  0.00  0.00    +0.000 A 
BRANCH  26  29
ATOM     29  C   UNL     1       6.056   4.433  14.403  0.00  0.00    +0.000 C 
ATOM     30  F   UNL     1       6.952   5.360  13.951  0.00  0.00    +0.000 F 
ATOM     31  F   UNL     1       6.798   3.322  14.683  0.00  0.00    +0.000 F 
ATOM     32  F   UNL     1       5.289   4.111  13.322  0.00  0.00    +0.000 F 
ENDBRANCH  26  29
ENDBRANCH   5  23
BRANCH   4  33
ATOM     33  N   UNL     1       3.039   3.993  20.152  0.00  0.00    +0.000 N 
ATOM     34  H   UNL     1       3.988   4.008  20.522  0.00  0.00    +0.000 HD
ATOM     35  H   UNL     1       2.984   3.496  19.269  0.00  0.00    +0.000 HD
ENDBRANCH   4  33
TORSDOF 5
ENDMDL
MODEL 6
REMARK VINA RESULT:      -7.9      4.543      6.311
REMARK  Name = 
REMARK  6 active torsions:
REMARK  status: ('A' for Active; 'I' for Inactive)
REMARK    1  A    between atoms: C_1  and  N_2
REMARK    2  A    between atoms: C_7  and  C_9
REMARK    3  A    between atoms: C_12  and  C_13
REMARK    4  A    between atoms: C_16  and  N_17
REMARK    5  A    between atoms: C_18  and  C_19
REMARK    6  A    between atoms: C_22  and  C_23
REMARK                            x       y       z     vdW  Elec       q    Type
REMARK                         _______ _______ _______ _____ _____    ______ ____
ROOT
ATOM      1  C   UNL     1       0.837   9.946  19.818  0.00  0.00    +0.000 A 
ATOM      2  C   UNL     1       1.328  10.525  18.656  0.00  0.00    +0.000 A 
ATOM      3  N   UNL     1       2.126   9.886  17.776  0.00  0.00    +0.000 NA
ATOM      4  C   UNL     1       2.437   8.612  18.081  0.00  0.00    +0.000 A 
ATOM      5  C   UNL     1       1.953   7.982  19.250  0.00  0.00    +0.000 A 
ATOM      6  N   UNL     1       1.127   8.648  20.113  0.00  0.00    +0.000 NA
ENDROOT
BRANCH   1  10
ATOM      7  C   UNL     1      -1.831  11.954  22.545  0.00  0.00    +0.000 A 
ATOM      8  C   UNL     1      -1.030  10.889  22.963  0.00  0.00    +0.000 A 
ATOM      9  C   UNL     1      -0.095  10.313  22.101  0.00  0.00    +0.000 A 
ATOM     10  C   UNL     1      -0.047  10.670  20.748  0.00  0.00    +0.000 A 
ATOM     11  C   UNL     1      -0.921  11.687  20.313  0.00  0.00    +0.000 A 
ATOM     12  C   UNL     1      -1.794  12.331  21.200  0.00  0.00    +0.000 A 
BRANCH   7  19
ATOM     13  C   UNL     1      -0.730  17.836  23.839  0.00  0.00    +0.000 C 
ATOM     14  N   UNL     1      -1.931  17.063  23.515  0.00  0.00    +0.000 NA
ATOM     15  C   UNL     1      -2.788  16.909  24.701  0.00  0.00    +0.000 C 
ATOM     16  C   UNL     1      -3.863  15.814  24.624  0.00  0.00    +0.000 C 
ATOM     17  C   UNL     1      -3.347  14.434  25.053  0.00  0.00    +0.000 C 
ATOM     18  N   UNL     1      -2.393  13.826  24.122  0.00  0.00    +0.000 N 
ATOM     19  C   UNL     1      -2.776  12.650  23.462  0.00  0.00    +0.000 C 
ATOM     20  O   UNL     1      -3.891  12.136  23.602  0.00  0.00    +0.000 OA
ATOM     21  C   UNL     1      -1.222  14.655  23.790  0.00  0.00    +0.000 C 
ATOM     22  C   UNL     1      -1.579  15.808  22.846  0.00  0.00    +0.000 C 
ENDBRANCH   7  19
ENDBRANCH   1  10
BRANCH   5  23
ATOM     23  C   UNL     1       2.280   6.593  19.635  0.00  0.00    +0.000 A 
ATOM     24  C   UNL     1       1.432   5.818  20.442  0.00  0.00    +0.000 A 
ATOM     25  C   UNL     1       1.766   4.501  20.779  0.00  0.00    +0.000 A 
ATOM     26  C   UNL     1       2.957   3.954  20.303  0.00  0.00    +0.000 A 
ATOM     27  N   UNL     1       3.805   4.685  19.529  0.00  0.00    +0.000 NA
ATOM     28  C   UNL     1       3.459   5.963  19.238  0.00  0.00    +0.000 A 
BRANCH  26  29
ATOM     29  C   UNL     1       3.346   2.524  20.650  0.00  0.00    +0.000 C 
ATOM     30  F   UNL     1       4.688   2.288  20.541  0.00  0.00    +0.000 F 
ATOM     31  F   UNL     1       3.022   2.178  21.930  0.00  0.00    +0.000 F 
ATOM     32  F   UNL     1       2.747   1.598  19.847  0.00  0.00    +0.000 F 
ENDBRANCH  26  29
ENDBRANCH   5  23
BRANCH   4  33
ATOM     33  N   UNL     1       3.298   8.016  17.162  0.00  0.00    +0.000 N 
ATOM     34  H   UNL     1       4.239   8.088  17.547  0.00  0.00    +0.000 HD
ATOM     35  H   UNL     1       3.234   8.428  16.238  0.00  0.00    +0.000 HD
ENDBRANCH   4  33
TORSDOF 5
ENDMDL
MODEL 7
REMARK VINA RESULT:      -7.8      1.621      2.375
REMARK  Name = 
REMARK  6 active torsions:
REMARK  status: ('A' for Active; 'I' for Inactive)
REMARK    1  A    between atoms: C_1  and  N_2
REMARK    2  A    between atoms: C_7  and  C_9
REMARK    3  A    between atoms: C_12  and  C_13
REMARK    4  A    between atoms: C_16  and  N_17
REMARK    5  A    between atoms: C_18  and  C_19
REMARK    6  A    between atoms: C_22  and  C_23
REMARK                            x       y       z     vdW  Elec       q    Type
REMARK                         _______ _______ _______ _____ _____    ______ ____
ROOT
ATOM      1  C   UNL     1       1.614   7.881  19.968  0.00  0.00    +0.000 A 
ATOM      2  C   UNL     1       1.360   7.022  21.027  0.00  0.00    +0.000 A 
ATOM      3  N   UNL     1       1.827   5.758  21.100  0.00  0.00    +0.000 NA
ATOM      4  C   UNL     1       2.583   5.349  20.063  0.00  0.00    +0.000 A 
ATOM      5  C   UNL     1       2.871   6.195  18.969  0.00  0.00    +0.000 A 
ATOM      6  N   UNL     1       2.402   7.479  18.932  0.00  0.00    +0.000 NA
ENDROOT
BRANCH   1  10
ATOM      7  C   UNL     1       0.240  11.966  19.837  0.00  0.00    +0.000 A 
ATOM      8  C   UNL     1       0.700  11.317  18.690  0.00  0.00    +0.000 A 
ATOM      9  C   UNL     1       1.046   9.964  18.721  0.00  0.00    +0.000 A 
ATOM     10  C   UNL     1       1.101   9.262  19.931  0.00  0.00    +0.000 A 
ATOM     11  C   UNL     1       0.717   9.951  21.100  0.00  0.00    +0.000 A 
ATOM     12  C   UNL     1       0.281  11.282  21.054  0.00  0.00    +0.000 A 
BRANCH   7  19
ATOM     13  C   UNL     1       4.355  16.272  18.423  0.00  0.00    +0.000 C 
ATOM     14  N   UNL     1       2.957  16.029  18.060  0.00  0.00    +0.000 NA
ATOM     15  C   UNL     1       2.072  17.013  18.703  0.00  0.00    +0.000 C 
ATOM     16  C   UNL     1       0.577  16.659  18.738  0.00  0.00    +0.000 C 
ATOM     17  C   UNL     1       0.190  15.802  19.951  0.00  0.00    +0.000 C 
ATOM     18  N   UNL     1       0.707  14.432  19.916  0.00  0.00    +0.000 N 
ATOM     19  C   UNL     1      -0.219  13.383  19.822  0.00  0.00    +0.000 C 
ATOM     20  O   UNL     1      -1.436  13.570  19.727  0.00  0.00    +0.000 OA
ATOM     21  C   UNL     1       2.163  14.312  19.732  0.00  0.00    +0.000 C 
ATOM     22  C   UNL     1       2.593  14.630  18.297  0.00  0.00    +0.000 C 
ENDBRANCH   7  19
ENDBRANCH   1  10
BRANCH   5  23
ATOM     23  C   UNL     1       3.680   5.786  17.800  0.00  0.00    +0.000 A 
ATOM     24  C   UNL     1       4.457   6.698  17.069  0.00  0.00    +0.000 A 
ATOM     25  C   UNL     1       5.222   6.276  15.975  0.00  0.00    +0.000 A 
ATOM     26  C   UNL     1       5.212   4.930  15.612  0.00  0.00    +0.000 A 
ATOM     27  N   UNL     1       4.459   4.024  16.294  0.00  0.00    +0.000 NA
ATOM     28  C   UNL     1       3.715   4.472  17.337  0.00  0.00    +0.000 A 
BRANCH  26  29
ATOM     29  C   UNL     1       6.034   4.440  14.428  0.00  0.00    +0.000 C 
ATOM     30  F   UNL     1       5.278   4.148  13.328  0.00  0.00    +0.000 F 
ATOM     31  F   UNL     1       6.953   5.355  14.001  0.00  0.00    +0.000 F 
ATOM     32  F   UNL     1       6.735   3.301  14.701  0.00  0.00    +0.000 F 
ENDBRANCH  26  29
ENDBRANCH   5  23
BRANCH   4  33
ATOM     33  N   UNL     1       3.000   4.025  20.170  0.00  0.00    +0.000 N 
ATOM     34  H   UNL     1       4.005   4.015  20.000  0.00  0.00    +0.000 HD
ATOM     35  H   UNL     1       2.503   3.404  19.540  0.00  0.00    +0.000 HD
ENDBRANCH   4  33
TORSDOF 5
ENDMDL
MODEL 8
REMARK VINA RESULT:      -7.8      6.739     11.731
REMARK  Name = 
REMARK  6 active torsions:
REMARK  status: ('A' for Active; 'I' for Inactive)
REMARK    1  A    between atoms: C_1  and  N_2
REMARK    2  A    between atoms: C_7  and  C_9
REMARK    3  A    between atoms: C_12  and  C_13
REMARK    4  A    between atoms: C_16  and  N_17
REMARK    5  A    between atoms: C_18  and  C_19
REMARK    6  A    between atoms: C_22  and  C_23
REMARK                            x       y       z     vdW  Elec       q    Type
REMARK                         _______ _______ _______ _____ _____    ______ ____
ROOT
ATOM      1  C   UNL     1      -0.886  10.872  19.571  0.00  0.00    +0.000 A 
ATOM      2  C   UNL     1      -1.962  10.998  18.703  0.00  0.00    +0.000 A 
ATOM      3  N   UNL     1      -2.963  11.888  18.869  0.00  0.00    +0.000 NA
ATOM      4  C   UNL     1      -2.870  12.682  19.953  0.00  0.00    +0.000 A 
ATOM      5  C   UNL     1      -1.788  12.591  20.857  0.00  0.00    +0.000 A 
ATOM      6  N   UNL     1      -0.776  11.694  20.651  0.00  0.00    +0.000 NA
ENDROOT
BRANCH   1  10
ATOM      7  C   UNL     1       2.197   7.944  18.859  0.00  0.00    +0.000 A 
ATOM      8  C   UNL     1       1.585   8.626  17.805  0.00  0.00    +0.000 A 
ATOM      9  C   UNL     1       0.663   9.645  18.050  0.00  0.00    +0.000 A 
ATOM     10  C   UNL     1       0.198   9.900  19.347  0.00  0.00    +0.000 A 
ATOM     11  C   UNL     1       0.760   9.146  20.398  0.00  0.00    +0.000 A 
ATOM     12  C   UNL     1       1.754   8.188  20.161  0.00  0.00    +0.000 A 
BRANCH   7  19
ATOM     13  C   UNL     1       1.462   2.506  21.573  0.00  0.00    +0.000 C 
ATOM     14  N   UNL     1       1.895   2.940  20.243  0.00  0.00    +0.000 NA
ATOM     15  C   UNL     1       3.337   2.713  20.063  0.00  0.00    +0.000 C 
ATOM     16  C   UNL     1       4.001   3.462  18.897  0.00  0.00    +0.000 C 
ATOM     17  C   UNL     1       4.465   4.875  19.276  0.00  0.00    +0.000 C 
ATOM     18  N   UNL     1       3.377   5.826  19.515  0.00  0.00    +0.000 N 
ATOM     19  C   UNL     1       3.249   6.913  18.638  0.00  0.00    +0.000 C 
ATOM     20  O   UNL     1       3.985   7.072  17.658  0.00  0.00    +0.000 OA
ATOM     21  C   UNL     1       2.378   5.404  20.510  0.00  0.00    +0.000 C 
ATOM     22  C   UNL     1       1.451   4.309  19.971  0.00  0.00    +0.000 C 
ENDBRANCH   7  19
ENDBRANCH   1  10
BRANCH   5  23
ATOM     23  C   UNL     1      -1.652  13.428  22.069  0.00  0.00    +0.000 A 
ATOM     24  C   UNL     1      -2.611  13.426  23.094  0.00  0.00    +0.000 A 
ATOM     25  C   UNL     1      -2.446  14.222  24.234  0.00  0.00    +0.000 A 
ATOM     26  C   UNL     1      -1.311  15.023  24.351  0.00  0.00    +0.000 A 
ATOM     27  N   UNL     1      -0.370  15.055  23.368  0.00  0.00    +0.000 NA
ATOM     28  C   UNL     1      -0.572  14.286  22.269  0.00  0.00    +0.000 A 
BRANCH  26  29
ATOM     29  C   UNL     1      -1.103  15.897  25.579  0.00  0.00    +0.000 C 
ATOM     30  F   UNL     1       0.045  16.637  25.528  0.00  0.00    +0.000 F 
ATOM     31  F   UNL     1      -2.107  16.802  25.768  0.00  0.00    +0.000 F 
ATOM     32  F   UNL     1      -1.020  15.179  26.737  0.00  0.00    +0.000 F 
ENDBRANCH  26  29
ENDBRANCH   5  23
BRANCH   4  33
ATOM     33  N   UNL     1      -3.951  13.549  20.099  0.00  0.00    +0.000 N 
ATOM     34  H   UNL     1      -3.575  14.496  20.091  0.00  0.00    +0.000 HD
ATOM     35  H   UNL     1      -4.493  13.363  20.936  0.00  0.00    +0.000 HD
ENDBRANCH   4  33
TORSDOF 5
ENDMDL
MODEL 9
REMARK VINA RESULT:      -7.8      4.511      6.258
REMARK  Name = 
REMARK  6 active torsions:
REMARK  status: ('A' for Active; 'I' for Inactive)
REMARK    1  A    between atoms: C_1  and  N_2
REMARK    2  A    between atoms: C_7  and  C_9
REMARK    3  A    between atoms: C_12  and  C_13
REMARK    4  A    between atoms: C_16  and  N_17
REMARK    5  A    between atoms: C_18  and  C_19
REMARK    6  A    between atoms: C_22  and  C_23
REMARK                            x       y       z     vdW  Elec       q    Type
REMARK                         _______ _______ _______ _____ _____    ______ ____
ROOT
ATOM      1  C   UNL     1       0.723   9.917  19.829  0.00  0.00    +0.000 A 
ATOM      2  C   UNL     1       1.220  10.540  18.692  0.00  0.00    +0.000 A 
ATOM      3  N   UNL     1       2.061   9.949  17.818  0.00  0.00    +0.000 NA
ATOM      4  C   UNL     1       2.410   8.680  18.102  0.00  0.00    +0.000 A 
ATOM      5  C   UNL     1       1.921   8.008  19.245  0.00  0.00    +0.000 A 
ATOM      6  N   UNL     1       1.052   8.624  20.102  0.00  0.00    +0.000 NA
ENDROOT
BRANCH   1  10
ATOM      7  C   UNL     1      -1.931  11.995  22.517  0.00  0.00    +0.000 A 
ATOM      8  C   UNL     1      -1.884  12.306  21.157  0.00  0.00    +0.000 A 
ATOM      9  C   UNL     1      -1.098  11.560  20.277  0.00  0.00    +0.000 A 
ATOM     10  C   UNL     1      -0.209  10.588  20.752  0.00  0.00    +0.000 A 
ATOM     11  C   UNL     1      -0.200  10.340  22.140  0.00  0.00    +0.000 A 
ATOM     12  C   UNL     1      -1.057  11.025  23.012  0.00  0.00    +0.000 A 
BRANCH   7  19
ATOM     13  C   UNL     1      -0.625  17.841  23.778  0.00  0.00    +0.000 C 
ATOM     14  N   UNL     1      -1.858  17.101  23.499  0.00  0.00    +0.000 NA
ATOM     15  C   UNL     1      -2.673  16.968  24.716  0.00  0.00    +0.000 C 
ATOM     16  C   UNL     1      -3.780  15.902  24.676  0.00  0.00    +0.000 C 
ATOM     17  C   UNL     1      -3.286  14.507  25.083  0.00  0.00    +0.000 C 
ATOM     18  N   UNL     1      -2.384  13.877  24.117  0.00  0.00    +0.000 N 
ATOM     19  C   UNL     1      -2.823  12.713  23.470  0.00  0.00    +0.000 C 
ATOM     20  O   UNL     1      -3.945  12.229  23.651  0.00  0.00    +0.000 OA
ATOM     21  C   UNL     1      -1.204  14.675  23.743  0.00  0.00    +0.000 C 
ATOM     22  C   UNL     1      -1.564  15.840  22.815  0.00  0.00    +0.000 C 
ENDBRANCH   7  19
ENDBRANCH   1  10
BRANCH   5  23
ATOM     23  C   UNL     1       2.288   6.622  19.608  0.00  0.00    +0.000 A 
ATOM     24  C   UNL     1       1.546   5.865  20.527  0.00  0.00    +0.000 A 
ATOM     25  C   UNL     1       1.914   4.551  20.840  0.00  0.00    +0.000 A 
ATOM     26  C   UNL     1       3.032   3.989  20.226  0.00  0.00    +0.000 A 
ATOM     27  N   UNL     1       3.779   4.702  19.340  0.00  0.00    +0.000 NA
ATOM     28  C   UNL     1       3.404   5.979  19.074  0.00  0.00    +0.000 A 
BRANCH  26  29
ATOM     29  C   UNL     1       3.456   2.562  20.544  0.00  0.00    +0.000 C 
ATOM     30  F   UNL     1       3.152   2.180  21.821  0.00  0.00    +0.000 F 
ATOM     31  F   UNL     1       2.859   1.635  19.739  0.00  0.00    +0.000 F 
ATOM     32  F   UNL     1       4.800   2.364  20.415  0.00  0.00    +0.000 F 
ENDBRANCH  26  29
ENDBRANCH   5  23
BRANCH   4  33
ATOM     33  N   UNL     1       3.313   8.136  17.192  0.00  0.00    +0.000 N 
ATOM     34  H   UNL     1       3.212   8.659  16.324  0.00  0.00    +0.000 HD
ATOM     35  H   UNL     1       3.179   7.140  17.052  0.00  0.00    +0.000 HD
ENDBRANCH   4  33
TORSDOF 5
ENDMDL
