MODEL 1
REMARK VINA RESULT:      -7.9      0.000      0.000
REMARK  Name = 
REMARK  5 active torsions:
REMARK  status: ('A' for Active; 'I' for Inactive)
REMARK    1  A    between atoms: C_2  and  C_3
REMARK    2  A    between atoms: C_6  and  N_7
REMARK    3  A    between atoms: N_10  and  C_11
REMARK    4  A    between atoms: C_16  and  C_17
REMARK    5  A    between atoms: C_17  and  O_19
REMARK                            x       y       z     vdW  Elec       q    Type
REMARK                         _______ _______ _______ _____ _____    ______ ____
ROOT
ATOM      1  N   UNL     1       0.522  12.247  19.622  0.00  0.00    +0.000 N 
ATOM      2  C   UNL     1       1.271  11.214  19.126  0.00  0.00    +0.000 C 
ATOM      3  O   UNL     1       2.097  11.485  18.257  0.00  0.00    +0.000 OA
ATOM      4  N   UNL     1       1.005   9.970  19.635  0.00  0.00    +0.000 N 
ATOM      5  H   UNL     1       0.750  13.130  19.187  0.00  0.00    +0.000 HD
ATOM      6  H   UNL     1       0.177   9.926  20.223  0.00  0.00    +0.000 HD
ENDROOT
BRANCH   4   7
ATOM      7  C   UNL     1       1.650   8.761  19.336  0.00  0.00    +0.000 A 
ATOM      8  C   UNL     1       2.338   8.563  18.142  0.00  0.00    +0.000 A 
ATOM      9  C   UNL     1       2.915   7.329  17.858  0.00  0.00    +0.000 A 
ATOM     10  C   UNL     1       2.808   6.268  18.759  0.00  0.00    +0.000 A 
ATOM     11  C   UNL     1       3.339   5.017  18.431  0.00  0.00    +0.000 A 
ATOM     12  C   UNL     1       3.224   3.937  19.311  0.00  0.00    +0.000 A 
ATOM     13  C   UNL     1       2.568   4.107  20.534  0.00  0.00    +0.000 A 
ATOM     14  C   UNL     1       2.045   5.363  20.877  0.00  0.00    +0.000 A 
ATOM     15  C   UNL     1       2.149   6.456  19.994  0.00  0.00    +0.000 A 
ATOM     16  C   UNL     1       1.593   7.721  20.278  0.00  0.00    +0.000 A 
BRANCH  12  17
ATOM     17  C   UNL     1       3.770   2.633  18.853  0.00  0.00    +0.000 C 
ATOM     18  O   UNL     1       3.196   1.929  18.039  0.00  0.00    +0.000 OA
BRANCH  17  19
ATOM     19  O   UNL     1       4.971   2.319  19.380  0.00  0.00    +0.000 OA
ATOM     20  H   UNL     1       5.443   3.056  19.801  0.00  0.00    +0.000 HD
ENDBRANCH  17  19
ENDBRANCH  12  17
ENDBRANCH   4   7
BRANCH   1  24
ATOM     21  C   UNL     1      -2.344  12.210  22.540  0.00  0.00    +0.000 A 
ATOM     22  C   UNL     1      -1.033  11.873  22.835  0.00  0.00    +0.000 A 
ATOM     23  N   UNL     1      -0.063  11.854  21.891  0.00  0.00    +0.000 NA
ATOM     24  C   UNL     1      -0.433  12.212  20.637  0.00  0.00    +0.000 A 
ATOM     25  C   UNL     1      -1.754  12.550  20.352  0.00  0.00    +0.000 A 
ATOM     26  N   UNL     1      -2.736  12.555  21.290  0.00  0.00    +0.000 NA
BRANCH  21  28
ATOM     27  N   UNL     1      -4.182  12.170  24.363  0.00  0.00    +0.000 NA
ATOM     28  C   UNL     1      -3.336  12.197  23.568  0.00  0.00    +0.000 C 
ENDBRANCH  21  28
ENDBRANCH   1  24
TORSDOF 5
ENDMDL
MODEL 2
REMARK VINA RESULT:      -7.8      4.103      9.332
REMARK  Name = 
REMARK  5 active torsions:
REMARK  status: ('A' for Active; 'I' for Inactive)
REMARK    1  A    between atoms: C_2  and  C_3
REMARK    2  A    between atoms: C_6  and  N_7
REMARK    3  A    between atoms: N_10  and  C_11
REMARK    4  A    between atoms: C_16  and  C_17
REMARK    5  A    between atoms: C_17  and  O_19
REMARK                            x       y       z     vdW  Elec       q    Type
REMARK                         _______ _______ _______ _____ _____    ______ ____
ROOT
ATOM      1  N   UNL     1       3.538   4.497  19.600  0.00  0.00    +0.000 N 
ATOM      2  C   UNL     1       2.675   5.434  20.102  0.00  0.00    +0.000 C 
ATOM      3  O   UNL     1       2.029   5.125  21.101  0.00  0.00    +0.000 OA
ATOM      4  N   UNL     1       2.601   6.620  19.421  0.00  0.00    +0.000 N 
ATOM      5  H   UNL     1       3.525   3.637  20.132  0.00  0.00    +0.000 HD
ATOM      6  H   UNL     1       3.090   6.623  18.529  0.00  0.00    +0.000 HD
ENDROOT
BRANCH   4   7
ATOM      7  C   UNL     1       1.840   7.753  19.744  0.00  0.00    +0.000 A 
ATOM      8  C   UNL     1       1.625   8.785  18.836  0.00  0.00    +0.000 A 
ATOM      9  C   UNL     1       0.913   9.919  19.213  0.00  0.00    +0.000 A 
ATOM     10  C   UNL     1       0.409  10.045  20.510  0.00  0.00    +0.000 A 
ATOM     11  C   UNL     1      -0.250  11.217  20.892  0.00  0.00    +0.000 A 
ATOM     12  C   UNL     1      -0.744  11.371  22.191  0.00  0.00    +0.000 A 
ATOM     13  C   UNL     1      -0.576  10.340  23.121  0.00  0.00    +0.000 A 
ATOM     14  C   UNL     1       0.071   9.155  22.741  0.00  0.00    +0.000 A 
ATOM     15  C   UNL     1       0.580   8.993  21.437  0.00  0.00    +0.000 A 
ATOM     16  C   UNL     1       1.281   7.840  21.029  0.00  0.00    +0.000 A 
BRANCH  12  17
ATOM     17  C   UNL     1      -1.380  12.672  22.521  0.00  0.00    +0.000 C 
ATOM     18  O   UNL     1      -2.361  13.093  21.932  0.00  0.00    +0.000 OA
BRANCH  17  19
ATOM     19  O   UNL     1      -0.807  13.322  23.555  0.00  0.00    +0.000 OA
ATOM     20  H   UNL     1      -0.551  12.761  24.306  0.00  0.00    +0.000 HD
ENDBRANCH  17  19
ENDBRANCH  12  17
ENDBRANCH   4   7
BRANCH   1  24
ATOM     21  C   UNL     1       6.180   4.893  16.502  0.00  0.00    +0.000 A 
ATOM     22  C   UNL     1       4.820   4.793  16.261  0.00  0.00    +0.000 A 
ATOM     23  N   UNL     1       3.918   4.640  17.259  0.00  0.00    +0.000 NA
ATOM     24  C   UNL     1       4.413   4.618  18.521  0.00  0.00    +0.000 A 
ATOM     25  C   UNL     1       5.783   4.721  18.753  0.00  0.00    +0.000 A 
ATOM     26  N   UNL     1       6.694   4.858  17.756  0.00  0.00    +0.000 NA
BRANCH  21  28
ATOM     27  N   UNL     1       7.816   5.209  14.522  0.00  0.00    +0.000 NA
ATOM     28  C   UNL     1       7.092   5.036  15.413  0.00  0.00    +0.000 C 
ENDBRANCH  21  28
ENDBRANCH   1  24
TORSDOF 5
ENDMDL
MODEL 3
REMARK VINA RESULT:      -7.7      4.517      9.547
REMARK  Name = 
REMARK  5 active torsions:
REMARK  status: ('A' for Active; 'I' for Inactive)
REMARK    1  A    between atoms: C_2  and  C_3
REMARK    2  A    between atoms: C_6  and  N_7
REMARK    3  A    between atoms: N_10  and  C_11
REMARK    4  A    between atoms: C_16  and  C_17
REMARK    5  A    between atoms: C_17  and  O_19
REMARK                            x       y       z     vdW  Elec       q    Type
REMARK                         _______ _______ _______ _____ _____    ______ ____
ROOT
ATOM      1  N   UNL     1       4.644   4.263  18.358  0.00  0.00    +0.000 N 
ATOM      2  C   UNL     1       3.746   5.100  18.966  0.00  0.00    +0.000 C 
ATOM      3  O   UNL     1       3.273   4.730  20.039  0.00  0.00    +0.000 OA
ATOM      4  N   UNL     1       3.447   6.259  18.302  0.00  0.00    +0.000 N 
ATOM      5  H   UNL     1       4.800   3.416  18.887  0.00  0.00    +0.000 HD
ATOM      6  H   UNL     1       3.814   6.307  17.355  0.00  0.00    +0.000 HD
ENDROOT
BRANCH   4   7
ATOM      7  C   UNL     1       2.603   7.299  18.720  0.00  0.00    +0.000 A 
ATOM      8  C   UNL     1       2.173   8.298  17.853  0.00  0.00    +0.000 A 
ATOM      9  C   UNL     1       1.384   9.345  18.321  0.00  0.00    +0.000 A 
ATOM     10  C   UNL     1       1.017   9.414  19.667  0.00  0.00    +0.000 A 
ATOM     11  C   UNL     1       0.277  10.505  20.134  0.00  0.00    +0.000 A 
ATOM     12  C   UNL     1      -0.082  10.603  21.480  0.00  0.00    +0.000 A 
ATOM     13  C   UNL     1       0.304   9.600  22.375  0.00  0.00    +0.000 A 
ATOM     14  C   UNL     1       1.034   8.495  21.912  0.00  0.00    +0.000 A 
ATOM     15  C   UNL     1       1.408   8.390  20.557  0.00  0.00    +0.000 A 
ATOM     16  C   UNL     1       2.185   7.323  20.060  0.00  0.00    +0.000 A 
BRANCH  12  17
ATOM     17  C   UNL     1      -0.820  11.824  21.895  0.00  0.00    +0.000 C 
ATOM     18  O   UNL     1      -2.036  11.864  21.970  0.00  0.00    +0.000 OA
BRANCH  17  19
ATOM     19  O   UNL     1      -0.029  12.866  22.222  0.00  0.00    +0.000 OA
ATOM     20  H   UNL     1      -0.093  13.636  21.632  0.00  0.00    +0.000 HD
ENDBRANCH  17  19
ENDBRANCH  12  17
ENDBRANCH   4   7
BRANCH   1  24
ATOM     21  C   UNL     1       6.805   4.927  14.949  0.00  0.00    +0.000 A 
ATOM     22  C   UNL     1       5.451   4.645  14.882  0.00  0.00    +0.000 A 
ATOM     23  N   UNL     1       4.708   4.400  15.987  0.00  0.00    +0.000 NA
ATOM     24  C   UNL     1       5.354   4.472  17.176  0.00  0.00    +0.000 A 
ATOM     25  C   UNL     1       6.716   4.758  17.233  0.00  0.00    +0.000 A 
ATOM     26  N   UNL     1       7.471   4.988  16.128  0.00  0.00    +0.000 NA
BRANCH  21  28
ATOM     27  N   UNL     1       8.111   5.324  12.749  0.00  0.00    +0.000 NA
ATOM     28  C   UNL     1       7.549   5.161  13.753  0.00  0.00    +0.000 C 
ENDBRANCH  21  28
ENDBRANCH   1  24
TORSDOF 5
ENDMDL
MODEL 4
REMARK VINA RESULT:      -7.7      2.086      2.891
REMARK  Name = 
REMARK  5 active torsions:
REMARK  status: ('A' for Active; 'I' for Inactive)
REMARK    1  A    between atoms: C_2  and  C_3
REMARK    2  A    between atoms: C_6  and  N_7
REMARK    3  A    between atoms: N_10  and  C_11
REMARK    4  A    between atoms: C_16  and  C_17
REMARK    5  A    between atoms: C_17  and  O_19
REMARK                            x       y       z     vdW  Elec       q    Type
REMARK                         _______ _______ _______ _____ _____    ______ ____
ROOT
ATOM      1  N   UNL     1       0.047  11.351  18.643  0.00  0.00    +0.000 N 
ATOM      2  C   UNL     1       0.411  10.060  18.373  0.00  0.00    +0.000 C 
ATOM      3  O   UNL     1      -0.272   9.442  17.558  0.00  0.00    +0.000 OA
ATOM      4  N   UNL     1       1.493   9.575  19.059  0.00  0.00    +0.000 N 
ATOM      5  H   UNL     1      -0.772  11.637  18.124  0.00  0.00    +0.000 HD
ATOM      6  H   UNL     1       1.821  10.182  19.806  0.00  0.00    +0.000 HD
ENDROOT
BRANCH   4   7
ATOM      7  C   UNL     1       2.096   8.314  18.939  0.00  0.00    +0.000 A 
ATOM      8  C   UNL     1       2.887   7.973  17.847  0.00  0.00    +0.000 A 
ATOM      9  C   UNL     1       3.419   6.692  17.735  0.00  0.00    +0.000 A 
ATOM     10  C   UNL     1       3.163   5.726  18.712  0.00  0.00    +0.000 A 
ATOM     11  C   UNL     1       3.653   4.426  18.555  0.00  0.00    +0.000 A 
ATOM     12  C   UNL     1       3.390   3.441  19.510  0.00  0.00    +0.000 A 
ATOM     13  C   UNL     1       2.626   3.757  20.638  0.00  0.00    +0.000 A 
ATOM     14  C   UNL     1       2.143   5.063  20.811  0.00  0.00    +0.000 A 
ATOM     15  C   UNL     1       2.396   6.062  19.850  0.00  0.00    +0.000 A 
ATOM     16  C   UNL     1       1.886   7.372  19.959  0.00  0.00    +0.000 A 
BRANCH  12  17
ATOM     17  C   UNL     1       3.904   2.076  19.230  0.00  0.00    +0.000 C 
ATOM     18  O   UNL     1       3.401   1.341  18.398  0.00  0.00    +0.000 OA
BRANCH  17  19
ATOM     19  O   UNL     1       4.999   1.739  19.942  0.00  0.00    +0.000 OA
ATOM     20  H   UNL     1       5.684   2.426  19.998  0.00  0.00    +0.000 HD
ENDBRANCH  17  19
ENDBRANCH  12  17
ENDBRANCH   4   7
BRANCH   1  24
ATOM     21  C   UNL     1       1.811  14.061  21.149  0.00  0.00    +0.000 A 
ATOM     22  C   UNL     1       2.374  13.769  19.917  0.00  0.00    +0.000 A 
ATOM     23  N   UNL     1       1.829  12.863  19.071  0.00  0.00    +0.000 NA
ATOM     24  C   UNL     1       0.680  12.270  19.479  0.00  0.00    +0.000 A 
ATOM     25  C   UNL     1       0.122  12.573  20.719  0.00  0.00    +0.000 A 
ATOM     26  N   UNL     1       0.671  13.467  21.580  0.00  0.00    +0.000 NA
BRANCH  21  28
ATOM     27  N   UNL     1       2.966  15.741  22.744  0.00  0.00    +0.000 NA
ATOM     28  C   UNL     1       2.433  15.012  22.013  0.00  0.00    +0.000 C 
ENDBRANCH  21  28
ENDBRANCH   1  24
TORSDOF 5
ENDMDL
MODEL 5
REMARK VINA RESULT:      -7.6      4.563      9.763
REMARK  Name = 
REMARK  5 active torsions:
REMARK  status: ('A' for Active; 'I' for Inactive)
REMARK    1  A    between atoms: C_2  and  C_3
REMARK    2  A    between atoms: C_6  and  N_7
REMARK    3  A    between atoms: N_10  and  C_11
REMARK    4  A    between atoms: C_16  and  C_17
REMARK    5  A    between atoms: C_17  and  O_19
REMARK                            x       y       z     vdW  Elec       q    Type
REMARK                         _______ _______ _______ _____ _____    ______ ____
ROOT
ATOM      1  N   UNL     1       4.864   3.710  18.153  0.00  0.00    +0.000 N 
ATOM      2  C   UNL     1       3.991   4.446  18.909  0.00  0.00    +0.000 C 
ATOM      3  O   UNL     1       3.549   3.919  19.928  0.00  0.00    +0.000 OA
ATOM      4  N   UNL     1       3.677   5.693  18.438  0.00  0.00    +0.000 N 
ATOM      5  H   UNL     1       5.031   2.793  18.542  0.00  0.00    +0.000 HD
ATOM      6  H   UNL     1       4.016   5.883  17.498  0.00  0.00    +0.000 HD
ENDROOT
BRANCH   4   7
ATOM      7  C   UNL     1       2.853   6.658  19.035  0.00  0.00    +0.000 A 
ATOM      8  C   UNL     1       2.298   6.479  20.298  0.00  0.00    +0.000 A 
ATOM      9  C   UNL     1       1.438   7.434  20.832  0.00  0.00    +0.000 A 
ATOM     10  C   UNL     1       1.112   8.583  20.108  0.00  0.00    +0.000 A 
ATOM     11  C   UNL     1       0.198   9.503  20.631  0.00  0.00    +0.000 A 
ATOM     12  C   UNL     1      -0.157  10.648  19.913  0.00  0.00    +0.000 A 
ATOM     13  C   UNL     1       0.407  10.878  18.654  0.00  0.00    +0.000 A 
ATOM     14  C   UNL     1       1.336   9.967  18.128  0.00  0.00    +0.000 A 
ATOM     15  C   UNL     1       1.694   8.806  18.840  0.00  0.00    +0.000 A 
ATOM     16  C   UNL     1       2.585   7.840  18.326  0.00  0.00    +0.000 A 
BRANCH  12  17
ATOM     17  C   UNL     1      -1.177  11.538  20.525  0.00  0.00    +0.000 C 
ATOM     18  O   UNL     1      -1.135  11.880  21.694  0.00  0.00    +0.000 OA
BRANCH  17  19
ATOM     19  O   UNL     1      -2.124  11.968  19.665  0.00  0.00    +0.000 OA
ATOM     20  H   UNL     1      -2.402  11.319  18.997  0.00  0.00    +0.000 HD
ENDBRANCH  17  19
ENDBRANCH  12  17
ENDBRANCH   4   7
BRANCH   1  24
ATOM     21  C   UNL     1       6.918   4.887  14.818  0.00  0.00    +0.000 A 
ATOM     22  C   UNL     1       5.582   4.532  14.734  0.00  0.00    +0.000 A 
ATOM     23  N   UNL     1       4.876   4.118  15.812  0.00  0.00    +0.000 NA
ATOM     24  C   UNL     1       5.538   4.095  16.995  0.00  0.00    +0.000 A 
ATOM     25  C   UNL     1       6.882   4.456  17.068  0.00  0.00    +0.000 A 
ATOM     26  N   UNL     1       7.601   4.856  15.988  0.00  0.00    +0.000 NA
BRANCH  21  28
ATOM     27  N   UNL     1       8.180   5.588  12.668  0.00  0.00    +0.000 NA
ATOM     28  C   UNL     1       7.624   5.301  13.647  0.00  0.00    +0.000 C 
ENDBRANCH  21  28
ENDBRANCH   1  24
TORSDOF 5
ENDMDL
MODEL 6
REMARK VINA RESULT:      -7.6      2.299      3.372
REMARK  Name = 
REMARK  5 active torsions:
REMARK  status: ('A' for Active; 'I' for Inactive)
REMARK    1  A    between atoms: C_2  and  C_3
REMARK    2  A    between atoms: C_6  and  N_7
REMARK    3  A    between atoms: N_10  and  C_11
REMARK    4  A    between atoms: C_16  and  C_17
REMARK    5  A    between atoms: C_17  and  O_19
REMARK                            x       y       z     vdW  Elec       q    Type
REMARK                         _______ _______ _______ _____ _____    ______ ____
ROOT
ATOM      1  N   UNL     1      -0.224  12.289  18.337  0.00  0.00    +0.000 N 
ATOM      2  C   UNL     1       0.791  11.387  18.511  0.00  0.00    +0.000 C 
ATOM      3  O   UNL     1       1.936  11.833  18.559  0.00  0.00    +0.000 OA
ATOM      4  N   UNL     1       0.428  10.069  18.591  0.00  0.00    +0.000 N 
ATOM      5  H   UNL     1       0.114  13.238  18.259  0.00  0.00    +0.000 HD
ATOM      6  H   UNL     1      -0.547   9.888  18.365  0.00  0.00    +0.000 HD
ENDROOT
BRANCH   4   7
ATOM      7  C   UNL     1       1.257   8.958  18.811  0.00  0.00    +0.000 A 
ATOM      8  C   UNL     1       1.293   8.293  20.032  0.00  0.00    +0.000 A 
ATOM      9  C   UNL     1       2.172   7.232  20.230  0.00  0.00    +0.000 A 
ATOM     10  C   UNL     1       3.036   6.823  19.211  0.00  0.00    +0.000 A 
ATOM     11  C   UNL     1       3.956   5.796  19.445  0.00  0.00    +0.000 A 
ATOM     12  C   UNL     1       4.843   5.387  18.446  0.00  0.00    +0.000 A 
ATOM     13  C   UNL     1       4.812   6.012  17.195  0.00  0.00    +0.000 A 
ATOM     14  C   UNL     1       3.882   7.032  16.947  0.00  0.00    +0.000 A 
ATOM     15  C   UNL     1       2.989   7.458  17.950  0.00  0.00    +0.000 A 
ATOM     16  C   UNL     1       2.073   8.514  17.759  0.00  0.00    +0.000 A 
BRANCH  12  17
ATOM     17  C   UNL     1       5.822   4.328  18.805  0.00  0.00    +0.000 C 
ATOM     18  O   UNL     1       7.024   4.525  18.827  0.00  0.00    +0.000 OA
BRANCH  17  19
ATOM     19  O   UNL     1       5.262   3.149  19.145  0.00  0.00    +0.000 OA
ATOM     20  H   UNL     1       4.308   3.180  19.323  0.00  0.00    +0.000 HD
ENDBRANCH  17  19
ENDBRANCH  12  17
ENDBRANCH   4   7
BRANCH   1  24
ATOM     21  C   UNL     1      -4.253  11.582  18.344  0.00  0.00    +0.000 A 
ATOM     22  C   UNL     1      -3.487  11.283  17.230  0.00  0.00    +0.000 A 
ATOM     23  N   UNL     1      -2.155  11.522  17.184  0.00  0.00    +0.000 NA
ATOM     24  C   UNL     1      -1.597  12.047  18.302  0.00  0.00    +0.000 A 
ATOM     25  C   UNL     1      -2.377  12.343  19.418  0.00  0.00    +0.000 A 
ATOM     26  N   UNL     1      -3.715  12.121  19.465  0.00  0.00    +0.000 NA
BRANCH  21  28
ATOM     27  N   UNL     1      -6.795  11.096  18.387  0.00  0.00    +0.000 NA
ATOM     28  C   UNL     1      -5.658  11.326  18.337  0.00  0.00    +0.000 C 
ENDBRANCH  21  28
ENDBRANCH   1  24
TORSDOF 5
ENDMDL
MODEL 7
REMARK VINA RESULT:      -7.5      1.623      2.505
REMARK  Name = 
REMARK  5 active torsions:
REMARK  status: ('A' for Active; 'I' for Inactive)
REMARK    1  A    between atoms: C_2  and  C_3
REMARK    2  A    between atoms: C_6  and  N_7
REMARK    3  A    between atoms: N_10  and  C_11
REMARK    4  A    between atoms: C_16  and  C_17
REMARK    5  A    between atoms: C_17  and  O_19
REMARK                            x       y       z     vdW  Elec       q    Type
REMARK                         _______ _______ _______ _____ _____    ______ ____
ROOT
ATOM      1  N   UNL     1       1.267  11.126  18.419  0.00  0.00    +0.000 N 
ATOM      2  C   UNL     1       1.674   9.823  18.303  0.00  0.00    +0.000 C 
ATOM      3  O   UNL     1       2.162   9.481  17.228  0.00  0.00    +0.000 OA
ATOM      4  N   UNL     1       1.472   9.023  19.396  0.00  0.00    +0.000 N 
ATOM      5  H   UNL     1       1.420  11.653  17.570  0.00  0.00    +0.000 HD
ATOM      6  H   UNL     1       0.907   9.446  20.127  0.00  0.00    +0.000 HD
ENDROOT
BRANCH   4   7
ATOM      7  C   UNL     1       1.833   7.677  19.557  0.00  0.00    +0.000 A 
ATOM      8  C   UNL     1       1.447   6.934  20.668  0.00  0.00    +0.000 A 
ATOM      9  C   UNL     1       1.875   5.618  20.820  0.00  0.00    +0.000 A 
ATOM     10  C   UNL     1       2.704   5.025  19.865  0.00  0.00    +0.000 A 
ATOM     11  C   UNL     1       3.177   3.724  20.062  0.00  0.00    +0.000 A 
ATOM     12  C   UNL     1       4.024   3.120  19.130  0.00  0.00    +0.000 A 
ATOM     13  C   UNL     1       4.407   3.825  17.984  0.00  0.00    +0.000 A 
ATOM     14  C   UNL     1       3.925   5.125  17.771  0.00  0.00    +0.000 A 
ATOM     15  C   UNL     1       3.077   5.746  18.709  0.00  0.00    +0.000 A 
ATOM     16  C   UNL     1       2.612   7.070  18.559  0.00  0.00    +0.000 A 
BRANCH  12  17
ATOM     17  C   UNL     1       4.520   1.757  19.451  0.00  0.00    +0.000 C 
ATOM     18  O   UNL     1       5.147   1.508  20.467  0.00  0.00    +0.000 OA
BRANCH  17  19
ATOM     19  O   UNL     1       4.178   0.815  18.548  0.00  0.00    +0.000 OA
ATOM     20  H   UNL     1       3.311   0.940  18.128  0.00  0.00    +0.000 HD
ENDBRANCH  17  19
ENDBRANCH  12  17
ENDBRANCH   4   7
BRANCH   1  24
ATOM     21  C   UNL     1      -0.188  13.029  21.734  0.00  0.00    +0.000 A 
ATOM     22  C   UNL     1      -0.994  12.172  21.002  0.00  0.00    +0.000 A 
ATOM     23  N   UNL     1      -0.553  11.542  19.889  0.00  0.00    +0.000 NA
ATOM     24  C   UNL     1       0.736  11.768  19.536  0.00  0.00    +0.000 A 
ATOM     25  C   UNL     1       1.539  12.631  20.281  0.00  0.00    +0.000 A 
ATOM     26  N   UNL     1       1.099  13.280  21.389  0.00  0.00    +0.000 NA
BRANCH  21  28
ATOM     27  N   UNL     1      -1.071  14.236  23.847  0.00  0.00    +0.000 NA
ATOM     28  C   UNL     1      -0.705  13.684  22.893  0.00  0.00    +0.000 C 
ENDBRANCH  21  28
ENDBRANCH   1  24
TORSDOF 5
ENDMDL
MODEL 8
REMARK VINA RESULT:      -7.5      2.717      4.253
REMARK  Name = 
REMARK  5 active torsions:
REMARK  status: ('A' for Active; 'I' for Inactive)
REMARK    1  A    between atoms: C_2  and  C_3
REMARK    2  A    between atoms: C_6  and  N_7
REMARK    3  A    between atoms: N_10  and  C_11
REMARK    4  A    between atoms: C_16  and  C_17
REMARK    5  A    between atoms: C_17  and  O_19
REMARK                            x       y       z     vdW  Elec       q    Type
REMARK                         _______ _______ _______ _____ _____    ______ ____
ROOT
ATOM      1  N   UNL     1      -0.335  12.324  18.588  0.00  0.00    +0.000 N 
ATOM      2  C   UNL     1      -0.226  10.977  18.802  0.00  0.00    +0.000 C 
ATOM      3  O   UNL     1      -1.253  10.308  18.706  0.00  0.00    +0.000 OA
ATOM      4  N   UNL     1       1.020  10.510  19.126  0.00  0.00    +0.000 N 
ATOM      5  H   UNL     1      -1.283  12.606  18.380  0.00  0.00    +0.000 HD
ATOM      6  H   UNL     1       1.704  11.238  19.316  0.00  0.00    +0.000 HD
ENDROOT
BRANCH   4   7
ATOM      7  C   UNL     1       1.412   9.181  19.349  0.00  0.00    +0.000 A 
ATOM      8  C   UNL     1       1.163   8.528  20.551  0.00  0.00    +0.000 A 
ATOM      9  C   UNL     1       1.620   7.229  20.755  0.00  0.00    +0.000 A 
ATOM     10  C   UNL     1       2.341   6.563  19.760  0.00  0.00    +0.000 A 
ATOM     11  C   UNL     1       2.847   5.283  20.003  0.00  0.00    +0.000 A 
ATOM     12  C   UNL     1       3.589   4.609  19.030  0.00  0.00    +0.000 A 
ATOM     13  C   UNL     1       3.831   5.223  17.796  0.00  0.00    +0.000 A 
ATOM     14  C   UNL     1       3.315   6.501  17.539  0.00  0.00    +0.000 A 
ATOM     15  C   UNL     1       2.572   7.193  18.517  0.00  0.00    +0.000 A 
ATOM     16  C   UNL     1       2.079   8.499  18.319  0.00  0.00    +0.000 A 
BRANCH  12  17
ATOM     17  C   UNL     1       4.132   3.276  19.398  0.00  0.00    +0.000 C 
ATOM     18  O   UNL     1       3.420   2.307  19.593  0.00  0.00    +0.000 OA
BRANCH  17  19
ATOM     19  O   UNL     1       5.479   3.223  19.452  0.00  0.00    +0.000 OA
ATOM     20  H   UNL     1       5.857   2.328  19.472  0.00  0.00    +0.000 HD
ENDBRANCH  17  19
ENDBRANCH  12  17
ENDBRANCH   4   7
BRANCH   1  24
ATOM     21  C   UNL     1       2.559  15.215  18.579  0.00  0.00    +0.000 A 
ATOM     22  C   UNL     1       2.856  13.919  18.192  0.00  0.00    +0.000 A 
ATOM     23  N   UNL     1       1.930  12.932  18.202  0.00  0.00    +0.000 NA
ATOM     24  C   UNL     1       0.678  13.283  18.586  0.00  0.00    +0.000 A 
ATOM     25  C   UNL     1       0.389  14.591  18.971  0.00  0.00    +0.000 A 
ATOM     26  N   UNL     1       1.317  15.582  18.979  0.00  0.00    +0.000 NA
BRANCH  21  28
ATOM     27  N   UNL     1       4.367  17.069  18.586  0.00  0.00    +0.000 NA
ATOM     28  C   UNL     1       3.577  16.217  18.567  0.00  0.00    +0.000 C 
ENDBRANCH  21  28
ENDBRANCH   1  24
TORSDOF 5
ENDMDL
MODEL 9
REMARK VINA RESULT:      -7.5      4.314      9.399
REMARK  Name = 
REMARK  5 active torsions:
REMARK  status: ('A' for Active; 'I' for Inactive)
REMARK    1  A    between atoms: C_2  and  C_3
REMARK    2  A    between atoms: C_6  and  N_7
REMARK    3  A    between atoms: N_10  and  C_11
REMARK    4  A    between atoms: C_16  and  C_17
REMARK    5  A    between atoms: C_17  and  O_19
REMARK                            x       y       z     vdW  Elec       q    Type
REMARK                         _______ _______ _______ _____ _____    ______ ____
ROOT
ATOM      1  N   UNL     1       4.193   4.492  18.870  0.00  0.00    +0.000 N 
ATOM      2  C   UNL     1       3.278   5.346  19.426  0.00  0.00    +0.000 C 
ATOM      3  O   UNL     1       2.713   4.972  20.452  0.00  0.00    +0.000 OA
ATOM      4  N   UNL     1       3.067   6.527  18.765  0.00  0.00    +0.000 N 
ATOM      5  H   UNL     1       4.281   3.630  19.391  0.00  0.00    +0.000 HD
ATOM      6  H   UNL     1       3.507   6.580  17.850  0.00  0.00    +0.000 HD
ENDROOT
BRANCH   4   7
ATOM      7  C   UNL     1       2.227   7.586  19.140  0.00  0.00    +0.000 A 
ATOM      8  C   UNL     1       1.816   8.561  18.237  0.00  0.00    +0.000 A 
ATOM      9  C   UNL     1       1.030   9.628  18.662  0.00  0.00    +0.000 A 
ATOM     10  C   UNL     1       0.647   9.742  20.000  0.00  0.00    +0.000 A 
ATOM     11  C   UNL     1      -0.090  10.853  20.424  0.00  0.00    +0.000 A 
ATOM     12  C   UNL     1      -0.464  10.996  21.762  0.00  0.00    +0.000 A 
ATOM     13  C   UNL     1      -0.097  10.018  22.692  0.00  0.00    +0.000 A 
ATOM     14  C   UNL     1       0.629   8.894  22.273  0.00  0.00    +0.000 A 
ATOM     15  C   UNL     1       1.019   8.744  20.927  0.00  0.00    +0.000 A 
ATOM     16  C   UNL     1       1.793   7.655  20.474  0.00  0.00    +0.000 A 
BRANCH  12  17
ATOM     17  C   UNL     1      -1.197  12.236  22.129  0.00  0.00    +0.000 C 
ATOM     18  O   UNL     1      -1.816  12.899  21.314  0.00  0.00    +0.000 OA
BRANCH  17  19
ATOM     19  O   UNL     1      -1.155  12.536  23.443  0.00  0.00    +0.000 OA
ATOM     20  H   UNL     1      -0.440  13.139  23.707  0.00  0.00    +0.000 HD
ENDBRANCH  17  19
ENDBRANCH  12  17
ENDBRANCH   4   7
BRANCH   1  24
ATOM     21  C   UNL     1       6.529   4.998  15.550  0.00  0.00    +0.000 A 
ATOM     22  C   UNL     1       6.713   5.793  16.670  0.00  0.00    +0.000 A 
ATOM     23  N   UNL     1       5.945   5.668  17.778  0.00  0.00    +0.000 NA
ATOM     24  C   UNL     1       4.998   4.699  17.750  0.00  0.00    +0.000 A 
ATOM     25  C   UNL     1       4.823   3.903  16.620  0.00  0.00    +0.000 A 
ATOM     26  N   UNL     1       5.578   4.034  15.499  0.00  0.00    +0.000 NA
BRANCH  21  28
ATOM     27  N   UNL     1       7.983   5.302  13.430  0.00  0.00    +0.000 NA
ATOM     28  C   UNL     1       7.354   5.180  14.399  0.00  0.00    +0.000 C 
ENDBRANCH  21  28
ENDBRANCH   1  24
TORSDOF 5
ENDMDL
