MODEL 1
REMARK VINA RESULT:      -8.6      0.000      0.000
REMARK  Name = 
REMARK  11 active torsions:
REMARK  status: ('A' for Active; 'I' for Inactive)
REMARK    1  A    between atoms: C_1  and  C_2
REMARK    2  A    between atoms: C_5  and  C_6
REMARK    3  A    between atoms: C_8  and  O_9
REMARK    4  A    between atoms: C_12  and  C_13
REMARK    5  A    between atoms: N_15  and  C_16
REMARK    6  A    between atoms: C_16  and  C_17
REMARK    7  A    between atoms: C_17  and  C_18
REMARK    8  A    between atoms: C_21  and  C_22
REMARK    9  A    between atoms: C_22  and  C_23
REMARK   10  A    between atoms: C_22  and  C_24
REMARK   11  A    between atoms: C_22  and  C_25
REMARK                            x       y       z     vdW  Elec       q    Type
REMARK                         _______ _______ _______ _____ _____    ______ ____
ROOT
ATOM      1  C   UNL     1       5.210   6.503  16.749  0.00  0.00    +0.000 C 
ATOM      2  O   UNL     1       5.092   6.984  15.632  0.00  0.00    +0.000 OA
ATOM      3  N   UNL     1       6.121   6.991  17.670  0.00  0.00    +0.000 N 
ATOM      4  H   UNL     1       6.231   6.551  18.573  0.00  0.00    +0.000 HD
ENDROOT
BRANCH   1  10
ATOM      5  C   UNL     1       3.182   5.541  17.989  0.00  0.00    +0.000 A 
ATOM      6  C   UNL     1       2.543   4.372  18.450  0.00  0.00    +0.000 A 
ATOM      7  C   UNL     1       3.015   3.101  18.135  0.00  0.00    +0.000 A 
ATOM      8  C   UNL     1       4.100   2.936  17.294  0.00  0.00    +0.000 A 
ATOM      9  C   UNL     1       4.760   4.062  16.803  0.00  0.00    +0.000 A 
ATOM     10  C   UNL     1       4.331   5.360  17.155  0.00  0.00    +0.000 A 
BRANCH   5  15
ATOM     11  C   UNL     1       0.698  10.611  19.502  0.00  0.00    +0.000 C 
ATOM     12  C   UNL     1       1.425   9.358  19.124  0.00  0.00    +0.000 A 
ATOM     13  C   UNL     1       1.834   9.123  17.812  0.00  0.00    +0.000 A 
ATOM     14  C   UNL     1       2.410   7.896  17.458  0.00  0.00    +0.000 A 
ATOM     15  C   UNL     1       2.631   6.872  18.404  0.00  0.00    +0.000 A 
ATOM     16  C   UNL     1       2.298   7.174  19.734  0.00  0.00    +0.000 A 
ATOM     17  C   UNL     1       1.663   8.373  20.083  0.00  0.00    +0.000 A 
ENDBRANCH   5  15
BRANCH   7  18
ATOM     18  O   UNL     1       2.431   1.979  18.645  0.00  0.00    +0.000 OA
ATOM     19  H   UNL     1       1.805   1.625  17.991  0.00  0.00    +0.000 HD
ENDBRANCH   7  18
ENDBRANCH   1  10
BRANCH   3  20
ATOM     20  C   UNL     1       7.100   7.999  17.271  0.00  0.00    +0.000 C 
BRANCH  20  21
ATOM     21  C   UNL     1       8.239   8.164  18.287  0.00  0.00    +0.000 C 
BRANCH  21  22
ATOM     22  C   UNL     1       8.647   9.595  18.511  0.00  0.00    +0.000 A 
ATOM     23  C   UNL     1       9.411   9.933  19.631  0.00  0.00    +0.000 A 
ATOM     24  C   UNL     1       9.839  11.248  19.828  0.00  0.00    +0.000 A 
ATOM     25  C   UNL     1       9.508  12.270  18.923  0.00  0.00    +0.000 A 
ATOM     26  C   UNL     1       8.737  11.909  17.801  0.00  0.00    +0.000 A 
ATOM     27  C   UNL     1       8.311  10.591  17.597  0.00  0.00    +0.000 A 
BRANCH  25  28
ATOM     28  C   UNL     1       9.962  13.725  19.128  0.00  0.00    +0.000 C 
ATOM     29  C   UNL     1      10.325  14.443  17.808  0.00  0.00    +0.000 C 
ATOM     30  C   UNL     1       8.840  14.541  19.803  0.00  0.00    +0.000 C 
ATOM     31  C   UNL     1      11.218  13.763  20.026  0.00  0.00    +0.000 C 
ENDBRANCH  25  28
ENDBRANCH  21  22
ENDBRANCH  20  21
ENDBRANCH   3  20
TORSDOF 7
ENDMDL
MODEL 2
REMARK VINA RESULT:      -8.5      3.208      7.634
REMARK  Name = 
REMARK  11 active torsions:
REMARK  status: ('A' for Active; 'I' for Inactive)
REMARK    1  A    between atoms: C_1  and  C_2
REMARK    2  A    between atoms: C_5  and  C_6
REMARK    3  A    between atoms: C_8  and  O_9
REMARK    4  A    between atoms: C_12  and  C_13
REMARK    5  A    between atoms: N_15  and  C_16
REMARK    6  A    between atoms: C_16  and  C_17
REMARK    7  A    between atoms: C_17  and  C_18
REMARK    8  A    between atoms: C_21  and  C_22
REMARK    9  A    between atoms: C_22  and  C_23
REMARK   10  A    between atoms: C_22  and  C_24
REMARK   11  A    between atoms: C_22  and  C_25
REMARK                            x       y       z     vdW  Elec       q    Type
REMARK                         _______ _______ _______ _____ _____    ______ ____
ROOT
ATOM      1  C   UNL     1       2.369   5.943  19.029  0.00  0.00    +0.000 C 
ATOM      2  O   UNL     1       2.144   6.525  17.978  0.00  0.00    +0.000 OA
ATOM      3  N   UNL     1       2.150   6.533  20.261  0.00  0.00    +0.000 N 
ATOM      4  H   UNL     1       2.383   6.049  21.116  0.00  0.00    +0.000 HD
ENDROOT
BRANCH   1  10
ATOM      5  C   UNL     1       4.210   4.217  18.573  0.00  0.00    +0.000 A 
ATOM      6  C   UNL     1       4.514   2.850  18.411  0.00  0.00    +0.000 A 
ATOM      7  C   UNL     1       3.565   1.853  18.626  0.00  0.00    +0.000 A 
ATOM      8  C   UNL     1       2.296   2.168  19.074  0.00  0.00    +0.000 A 
ATOM      9  C   UNL     1       1.951   3.507  19.259  0.00  0.00    +0.000 A 
ATOM     10  C   UNL     1       2.880   4.535  18.995  0.00  0.00    +0.000 A 
BRANCH   5  15
ATOM     11  C   UNL     1       8.184   8.406  17.658  0.00  0.00    +0.000 C 
ATOM     12  C   UNL     1       7.212   7.277  17.820  0.00  0.00    +0.000 A 
ATOM     13  C   UNL     1       6.088   7.163  17.002  0.00  0.00    +0.000 A 
ATOM     14  C   UNL     1       5.133   6.167  17.243  0.00  0.00    +0.000 A 
ATOM     15  C   UNL     1       5.279   5.228  18.287  0.00  0.00    +0.000 A 
ATOM     16  C   UNL     1       6.466   5.308  19.032  0.00  0.00    +0.000 A 
ATOM     17  C   UNL     1       7.393   6.340  18.837  0.00  0.00    +0.000 A 
ENDBRANCH   5  15
BRANCH   7  18
ATOM     18  O   UNL     1       3.850   0.539  18.397  0.00  0.00    +0.000 OA
ATOM     19  H   UNL     1       4.517   0.480  17.692  0.00  0.00    +0.000 HD
ENDBRANCH   7  18
ENDBRANCH   1  10
BRANCH   3  20
ATOM     20  C   UNL     1       1.800   7.949  20.345  0.00  0.00    +0.000 C 
BRANCH  20  21
ATOM     21  C   UNL     1       1.629   8.440  21.790  0.00  0.00    +0.000 C 
BRANCH  21  22
ATOM     22  C   UNL     1       0.616   9.543  21.937  0.00  0.00    +0.000 A 
ATOM     23  C   UNL     1      -0.224   9.572  23.054  0.00  0.00    +0.000 A 
ATOM     24  C   UNL     1      -1.136  10.615  23.230  0.00  0.00    +0.000 A 
ATOM     25  C   UNL     1      -1.249  11.655  22.293  0.00  0.00    +0.000 A 
ATOM     26  C   UNL     1      -0.396  11.608  21.174  0.00  0.00    +0.000 A 
ATOM     27  C   UNL     1       0.524  10.567  20.997  0.00  0.00    +0.000 A 
BRANCH  25  28
ATOM     28  C   UNL     1      -2.254  12.807  22.465  0.00  0.00    +0.000 C 
ATOM     29  C   UNL     1      -2.995  13.170  21.158  0.00  0.00    +0.000 C 
ATOM     30  C   UNL     1      -3.322  12.428  23.512  0.00  0.00    +0.000 C 
ATOM     31  C   UNL     1      -1.519  14.080  22.939  0.00  0.00    +0.000 C 
ENDBRANCH  25  28
ENDBRANCH  21  22
ENDBRANCH  20  21
ENDBRANCH   3  20
TORSDOF 7
ENDMDL
MODEL 3
REMARK VINA RESULT:      -8.5      3.201      7.738
REMARK  Name = 
REMARK  11 active torsions:
REMARK  status: ('A' for Active; 'I' for Inactive)
REMARK    1  A    between atoms: C_1  and  C_2
REMARK    2  A    between atoms: C_5  and  C_6
REMARK    3  A    between atoms: C_8  and  O_9
REMARK    4  A    between atoms: C_12  and  C_13
REMARK    5  A    between atoms: N_15  and  C_16
REMARK    6  A    between atoms: C_16  and  C_17
REMARK    7  A    between atoms: C_17  and  C_18
REMARK    8  A    between atoms: C_21  and  C_22
REMARK    9  A    between atoms: C_22  and  C_23
REMARK   10  A    between atoms: C_22  and  C_24
REMARK   11  A    between atoms: C_22  and  C_25
REMARK                            x       y       z     vdW  Elec       q    Type
REMARK                         _______ _______ _______ _____ _____    ______ ____
ROOT
ATOM      1  C   UNL     1       2.381   5.959  19.033  0.00  0.00    +0.000 C 
ATOM      2  O   UNL     1       2.177   6.552  17.984  0.00  0.00    +0.000 OA
ATOM      3  N   UNL     1       2.140   6.538  20.266  0.00  0.00    +0.000 N 
ATOM      4  H   UNL     1       2.356   6.044  21.121  0.00  0.00    +0.000 HD
ENDROOT
BRANCH   1  10
ATOM      5  C   UNL     1       4.219   4.232  18.567  0.00  0.00    +0.000 A 
ATOM      6  C   UNL     1       4.521   2.865  18.402  0.00  0.00    +0.000 A 
ATOM      7  C   UNL     1       3.573   1.869  18.618  0.00  0.00    +0.000 A 
ATOM      8  C   UNL     1       2.305   2.184  19.072  0.00  0.00    +0.000 A 
ATOM      9  C   UNL     1       1.961   3.523  19.261  0.00  0.00    +0.000 A 
ATOM     10  C   UNL     1       2.891   4.551  18.995  0.00  0.00    +0.000 A 
BRANCH   5  15
ATOM     11  C   UNL     1       8.191   8.420  17.644  0.00  0.00    +0.000 C 
ATOM     12  C   UNL     1       7.220   7.292  17.809  0.00  0.00    +0.000 A 
ATOM     13  C   UNL     1       6.097   7.175  16.989  0.00  0.00    +0.000 A 
ATOM     14  C   UNL     1       5.142   6.179  17.233  0.00  0.00    +0.000 A 
ATOM     15  C   UNL     1       5.288   5.244  18.280  0.00  0.00    +0.000 A 
ATOM     16  C   UNL     1       6.474   5.326  19.026  0.00  0.00    +0.000 A 
ATOM     17  C   UNL     1       7.401   6.358  18.829  0.00  0.00    +0.000 A 
ENDBRANCH   5  15
BRANCH   7  18
ATOM     18  O   UNL     1       3.855   0.556  18.386  0.00  0.00    +0.000 OA
ATOM     19  H   UNL     1       3.885   0.405  17.426  0.00  0.00    +0.000 HD
ENDBRANCH   7  18
ENDBRANCH   1  10
BRANCH   3  20
ATOM     20  C   UNL     1       1.790   7.953  20.358  0.00  0.00    +0.000 C 
BRANCH  20  21
ATOM     21  C   UNL     1       1.599   8.431  21.805  0.00  0.00    +0.000 C 
BRANCH  21  22
ATOM     22  C   UNL     1       0.601   9.549  21.945  0.00  0.00    +0.000 A 
ATOM     23  C   UNL     1       0.437  10.469  20.906  0.00  0.00    +0.000 A 
ATOM     24  C   UNL     1      -0.518  11.483  20.999  0.00  0.00    +0.000 A 
ATOM     25  C   UNL     1      -1.332  11.621  22.135  0.00  0.00    +0.000 A 
ATOM     26  C   UNL     1      -1.151  10.686  23.172  0.00  0.00    +0.000 A 
ATOM     27  C   UNL     1      -0.198   9.664  23.080  0.00  0.00    +0.000 A 
BRANCH  25  28
ATOM     28  C   UNL     1      -2.383  12.737  22.260  0.00  0.00    +0.000 C 
ATOM     29  C   UNL     1      -3.349  12.535  23.450  0.00  0.00    +0.000 C 
ATOM     30  C   UNL     1      -1.688  14.101  22.457  0.00  0.00    +0.000 C 
ATOM     31  C   UNL     1      -3.244  12.794  20.980  0.00  0.00    +0.000 C 
ENDBRANCH  25  28
ENDBRANCH  21  22
ENDBRANCH  20  21
ENDBRANCH   3  20
TORSDOF 7
ENDMDL
MODEL 4
REMARK VINA RESULT:      -8.4      0.210      1.209
REMARK  Name = 
REMARK  11 active torsions:
REMARK  status: ('A' for Active; 'I' for Inactive)
REMARK    1  A    between atoms: C_1  and  C_2
REMARK    2  A    between atoms: C_5  and  C_6
REMARK    3  A    between atoms: C_8  and  O_9
REMARK    4  A    between atoms: C_12  and  C_13
REMARK    5  A    between atoms: N_15  and  C_16
REMARK    6  A    between atoms: C_16  and  C_17
REMARK    7  A    between atoms: C_17  and  C_18
REMARK    8  A    between atoms: C_21  and  C_22
REMARK    9  A    between atoms: C_22  and  C_23
REMARK   10  A    between atoms: C_22  and  C_24
REMARK   11  A    between atoms: C_22  and  C_25
REMARK                            x       y       z     vdW  Elec       q    Type
REMARK                         _______ _______ _______ _____ _____    ______ ____
ROOT
ATOM      1  C   UNL     1       5.227   6.519  16.743  0.00  0.00    +0.000 C 
ATOM      2  O   UNL     1       4.988   7.180  15.743  0.00  0.00    +0.000 OA
ATOM      3  N   UNL     1       6.244   6.850  17.620  0.00  0.00    +0.000 N 
ATOM      4  H   UNL     1       6.451   6.266  18.418  0.00  0.00    +0.000 HD
ENDROOT
BRANCH   1  10
ATOM      5  C   UNL     1       3.192   5.407  17.838  0.00  0.00    +0.000 A 
ATOM      6  C   UNL     1       2.588   4.189  18.212  0.00  0.00    +0.000 A 
ATOM      7  C   UNL     1       3.131   2.957  17.857  0.00  0.00    +0.000 A 
ATOM      8  C   UNL     1       4.259   2.883  17.061  0.00  0.00    +0.000 A 
ATOM      9  C   UNL     1       4.888   4.061  16.657  0.00  0.00    +0.000 A 
ATOM     10  C   UNL     1       4.384   5.319  17.051  0.00  0.00    +0.000 A 
BRANCH   5  15
ATOM     11  C   UNL     1       1.075  10.536  19.677  0.00  0.00    +0.000 C 
ATOM     12  C   UNL     1       1.522   9.185  19.208  0.00  0.00    +0.000 A 
ATOM     13  C   UNL     1       1.793   8.157  20.110  0.00  0.00    +0.000 A 
ATOM     14  C   UNL     1       2.319   6.939  19.658  0.00  0.00    +0.000 A 
ATOM     15  C   UNL     1       2.562   6.690  18.291  0.00  0.00    +0.000 A 
ATOM     16  C   UNL     1       2.189   7.708  17.399  0.00  0.00    +0.000 A 
ATOM     17  C   UNL     1       1.723   8.950  17.848  0.00  0.00    +0.000 A 
ENDBRANCH   5  15
BRANCH   7  18
ATOM     18  O   UNL     1       2.578   1.787  18.284  0.00  0.00    +0.000 OA
ATOM     19  H   UNL     1       1.614   1.899  18.345  0.00  0.00    +0.000 HD
ENDBRANCH   7  18
ENDBRANCH   1  10
BRANCH   3  20
ATOM     20  C   UNL     1       7.185   7.916  17.285  0.00  0.00    +0.000 C 
BRANCH  20  21
ATOM     21  C   UNL     1       8.276   8.111  18.348  0.00  0.00    +0.000 C 
BRANCH  21  22
ATOM     22  C   UNL     1       8.673   9.548  18.550  0.00  0.00    +0.000 A 
ATOM     23  C   UNL     1       9.403   9.915  19.684  0.00  0.00    +0.000 A 
ATOM     24  C   UNL     1       9.822  11.236  19.862  0.00  0.00    +0.000 A 
ATOM     25  C   UNL     1       9.516  12.234  18.924  0.00  0.00    +0.000 A 
ATOM     26  C   UNL     1       8.779  11.845  17.789  0.00  0.00    +0.000 A 
ATOM     27  C   UNL     1       8.363  10.521  17.603  0.00  0.00    +0.000 A 
BRANCH  25  28
ATOM     28  C   UNL     1       9.960  13.696  19.107  0.00  0.00    +0.000 C 
ATOM     29  C   UNL     1      11.239  13.841  19.963  0.00  0.00    +0.000 C 
ATOM     30  C   UNL     1      10.246  14.340  17.735  0.00  0.00    +0.000 C 
ATOM     31  C   UNL     1       8.847  14.498  19.815  0.00  0.00    +0.000 C 
ENDBRANCH  25  28
ENDBRANCH  21  22
ENDBRANCH  20  21
ENDBRANCH   3  20
TORSDOF 7
ENDMDL
MODEL 5
REMARK VINA RESULT:      -8.4      1.278      1.666
REMARK  Name = 
REMARK  11 active torsions:
REMARK  status: ('A' for Active; 'I' for Inactive)
REMARK    1  A    between atoms: C_1  and  C_2
REMARK    2  A    between atoms: C_5  and  C_6
REMARK    3  A    between atoms: C_8  and  O_9
REMARK    4  A    between atoms: C_12  and  C_13
REMARK    5  A    between atoms: N_15  and  C_16
REMARK    6  A    between atoms: C_16  and  C_17
REMARK    7  A    between atoms: C_17  and  C_18
REMARK    8  A    between atoms: C_21  and  C_22
REMARK    9  A    between atoms: C_22  and  C_23
REMARK   10  A    between atoms: C_22  and  C_24
REMARK   11  A    between atoms: C_22  and  C_25
REMARK                            x       y       z     vdW  Elec       q    Type
REMARK                         _______ _______ _______ _____ _____    ______ ____
ROOT
ATOM      1  C   UNL     1       5.570   5.405  18.673  0.00  0.00    +0.000 C 
ATOM      2  O   UNL     1       5.729   5.687  19.851  0.00  0.00    +0.000 OA
ATOM      3  N   UNL     1       6.443   5.832  17.688  0.00  0.00    +0.000 N 
ATOM      4  H   UNL     1       6.270   5.623  16.715  0.00  0.00    +0.000 HD
ENDROOT
BRANCH   1  10
ATOM      5  C   UNL     1       3.060   5.034  18.307  0.00  0.00    +0.000 A 
ATOM      6  C   UNL     1       2.041   4.086  18.082  0.00  0.00    +0.000 A 
ATOM      7  C   UNL     1       2.322   2.740  17.858  0.00  0.00    +0.000 A 
ATOM      8  C   UNL     1       3.627   2.292  17.782  0.00  0.00    +0.000 A 
ATOM      9  C   UNL     1       4.671   3.194  17.988  0.00  0.00    +0.000 A 
ATOM     10  C   UNL     1       4.407   4.552  18.271  0.00  0.00    +0.000 A 
BRANCH   5  15
ATOM     11  C   UNL     1       1.207  10.503  19.214  0.00  0.00    +0.000 C 
ATOM     12  C   UNL     1       1.777   9.134  19.001  0.00  0.00    +0.000 A 
ATOM     13  C   UNL     1       2.302   8.750  17.767  0.00  0.00    +0.000 A 
ATOM     14  C   UNL     1       2.725   7.431  17.557  0.00  0.00    +0.000 A 
ATOM     15  C   UNL     1       2.670   6.456  18.576  0.00  0.00    +0.000 A 
ATOM     16  C   UNL     1       2.228   6.897  19.833  0.00  0.00    +0.000 A 
ATOM     17  C   UNL     1       1.744   8.197  20.033  0.00  0.00    +0.000 A 
ENDBRANCH   5  15
BRANCH   7  18
ATOM     18  O   UNL     1       1.326   1.821  17.712  0.00  0.00    +0.000 OA
ATOM     19  H   UNL     1       0.590   2.228  17.225  0.00  0.00    +0.000 HD
ENDBRANCH   7  18
ENDBRANCH   1  10
BRANCH   3  20
ATOM     20  C   UNL     1       7.501   6.788  18.007  0.00  0.00    +0.000 C 
BRANCH  20  21
ATOM     21  C   UNL     1       7.296   8.156  17.341  0.00  0.00    +0.000 C 
BRANCH  21  22
ATOM     22  C   UNL     1       8.115   9.257  17.958  0.00  0.00    +0.000 A 
ATOM     23  C   UNL     1       8.062  10.547  17.422  0.00  0.00    +0.000 A 
ATOM     24  C   UNL     1       8.778  11.591  18.012  0.00  0.00    +0.000 A 
ATOM     25  C   UNL     1       9.580  11.380  19.145  0.00  0.00    +0.000 A 
ATOM     26  C   UNL     1       9.622  10.074  19.669  0.00  0.00    +0.000 A 
ATOM     27  C   UNL     1       8.901   9.026  19.085  0.00  0.00    +0.000 A 
BRANCH  25  28
ATOM     28  C   UNL     1      10.384  12.516  19.803  0.00  0.00    +0.000 C 
ATOM     29  C   UNL     1      10.167  13.888  19.126  0.00  0.00    +0.000 C 
ATOM     30  C   UNL     1       9.979  12.663  21.284  0.00  0.00    +0.000 C 
ATOM     31  C   UNL     1      11.894  12.204  19.725  0.00  0.00    +0.000 C 
ENDBRANCH  25  28
ENDBRANCH  21  22
ENDBRANCH  20  21
ENDBRANCH   3  20
TORSDOF 7
ENDMDL
MODEL 6
REMARK VINA RESULT:      -8.2      3.761      8.185
REMARK  Name = 
REMARK  11 active torsions:
REMARK  status: ('A' for Active; 'I' for Inactive)
REMARK    1  A    between atoms: C_1  and  C_2
REMARK    2  A    between atoms: C_5  and  C_6
REMARK    3  A    between atoms: C_8  and  O_9
REMARK    4  A    between atoms: C_12  and  C_13
REMARK    5  A    between atoms: N_15  and  C_16
REMARK    6  A    between atoms: C_16  and  C_17
REMARK    7  A    between atoms: C_17  and  C_18
REMARK    8  A    between atoms: C_21  and  C_22
REMARK    9  A    between atoms: C_22  and  C_23
REMARK   10  A    between atoms: C_22  and  C_24
REMARK   11  A    between atoms: C_22  and  C_25
REMARK                            x       y       z     vdW  Elec       q    Type
REMARK                         _______ _______ _______ _____ _____    ______ ____
ROOT
ATOM      1  C   UNL     1       2.042   6.691  19.986  0.00  0.00    +0.000 C 
ATOM      2  O   UNL     1       2.532   7.415  19.132  0.00  0.00    +0.000 OA
ATOM      3  N   UNL     1       1.411   7.197  21.109  0.00  0.00    +0.000 N 
ATOM      4  H   UNL     1       1.050   6.580  21.823  0.00  0.00    +0.000 HD
ENDROOT
BRANCH   1  10
ATOM      5  C   UNL     1       3.152   4.564  19.082  0.00  0.00    +0.000 A 
ATOM      6  C   UNL     1       3.001   3.184  18.833  0.00  0.00    +0.000 A 
ATOM      7  C   UNL     1       1.877   2.478  19.253  0.00  0.00    +0.000 A 
ATOM      8  C   UNL     1       0.888   3.096  19.994  0.00  0.00    +0.000 A 
ATOM      9  C   UNL     1       0.996   4.458  20.275  0.00  0.00    +0.000 A 
ATOM     10  C   UNL     1       2.101   5.204  19.812  0.00  0.00    +0.000 A 
BRANCH   5  15
ATOM     11  C   UNL     1       7.793   7.582  17.207  0.00  0.00    +0.000 C 
ATOM     12  C   UNL     1       6.635   6.731  17.629  0.00  0.00    +0.000 A 
ATOM     13  C   UNL     1       5.466   6.668  16.870  0.00  0.00    +0.000 A 
ATOM     14  C   UNL     1       4.354   5.957  17.339  0.00  0.00    +0.000 A 
ATOM     15  C   UNL     1       4.376   5.257  18.565  0.00  0.00    +0.000 A 
ATOM     16  C   UNL     1       5.597   5.259  19.258  0.00  0.00    +0.000 A 
ATOM     17  C   UNL     1       6.691   6.020  18.827  0.00  0.00    +0.000 A 
ENDBRANCH   5  15
BRANCH   7  18
ATOM     18  O   UNL     1       1.710   1.160  18.944  0.00  0.00    +0.000 OA
ATOM     19  H   UNL     1       2.459   0.867  18.399  0.00  0.00    +0.000 HD
ENDBRANCH   7  18
ENDBRANCH   1  10
BRANCH   3  20
ATOM     20  C   UNL     1       1.461   8.628  21.398  0.00  0.00    +0.000 C 
BRANCH  20  21
ATOM     21  C   UNL     1       0.599   9.464  20.442  0.00  0.00    +0.000 C 
BRANCH  21  22
ATOM     22  C   UNL     1      -0.354  10.393  21.145  0.00  0.00    +0.000 A 
ATOM     23  C   UNL     1      -0.566  10.263  22.520  0.00  0.00    +0.000 A 
ATOM     24  C   UNL     1      -1.409  11.147  23.196  0.00  0.00    +0.000 A 
ATOM     25  C   UNL     1      -2.078  12.181  22.521  0.00  0.00    +0.000 A 
ATOM     26  C   UNL     1      -1.853  12.296  21.136  0.00  0.00    +0.000 A 
ATOM     27  C   UNL     1      -1.004  11.415  20.456  0.00  0.00    +0.000 A 
BRANCH  25  28
ATOM     28  C   UNL     1      -3.019  13.159  23.247  0.00  0.00    +0.000 C 
ATOM     29  C   UNL     1      -3.937  12.469  24.281  0.00  0.00    +0.000 C 
ATOM     30  C   UNL     1      -2.197  14.227  23.999  0.00  0.00    +0.000 C 
ATOM     31  C   UNL     1      -3.936  13.863  22.223  0.00  0.00    +0.000 C 
ENDBRANCH  25  28
ENDBRANCH  21  22
ENDBRANCH  20  21
ENDBRANCH   3  20
TORSDOF 7
ENDMDL
MODEL 7
REMARK VINA RESULT:      -8.2      5.613      9.207
REMARK  Name = 
REMARK  11 active torsions:
REMARK  status: ('A' for Active; 'I' for Inactive)
REMARK    1  A    between atoms: C_1  and  C_2
REMARK    2  A    between atoms: C_5  and  C_6
REMARK    3  A    between atoms: C_8  and  O_9
REMARK    4  A    between atoms: C_12  and  C_13
REMARK    5  A    between atoms: N_15  and  C_16
REMARK    6  A    between atoms: C_16  and  C_17
REMARK    7  A    between atoms: C_17  and  C_18
REMARK    8  A    between atoms: C_21  and  C_22
REMARK    9  A    between atoms: C_22  and  C_23
REMARK   10  A    between atoms: C_22  and  C_24
REMARK   11  A    between atoms: C_22  and  C_25
REMARK                            x       y       z     vdW  Elec       q    Type
REMARK                         _______ _______ _______ _____ _____    ______ ____
ROOT
ATOM      1  C   UNL     1      -0.555  10.119  18.846  0.00  0.00    +0.000 C 
ATOM      2  O   UNL     1      -0.525   9.737  20.007  0.00  0.00    +0.000 OA
ATOM      3  N   UNL     1       0.557  10.068  18.024  0.00  0.00    +0.000 N 
ATOM      4  H   UNL     1       0.521  10.429  17.081  0.00  0.00    +0.000 HD
ENDROOT
BRANCH   1  10
ATOM      5  C   UNL     1      -2.580  11.691  18.907  0.00  0.00    +0.000 A 
ATOM      6  C   UNL     1      -3.856  11.971  18.378  0.00  0.00    +0.000 A 
ATOM      7  C   UNL     1      -4.386  11.252  17.311  0.00  0.00    +0.000 A 
ATOM      8  C   UNL     1      -3.645  10.270  16.681  0.00  0.00    +0.000 A 
ATOM      9  C   UNL     1      -2.371   9.962  17.161  0.00  0.00    +0.000 A 
ATOM     10  C   UNL     1      -1.838  10.643  18.276  0.00  0.00    +0.000 A 
BRANCH   5  15
ATOM     11  C   UNL     1      -0.921  15.080  23.372  0.00  0.00    +0.000 C 
ATOM     12  C   UNL     1      -1.269  14.149  22.251  0.00  0.00    +0.000 A 
ATOM     13  C   UNL     1      -0.644  14.244  21.008  0.00  0.00    +0.000 A 
ATOM     14  C   UNL     1      -1.064  13.439  19.940  0.00  0.00    +0.000 A 
ATOM     15  C   UNL     1      -2.098  12.490  20.081  0.00  0.00    +0.000 A 
ATOM     16  C   UNL     1      -2.641  12.350  21.368  0.00  0.00    +0.000 A 
ATOM     17  C   UNL     1      -2.271  13.194  22.423  0.00  0.00    +0.000 A 
ENDBRANCH   5  15
BRANCH   7  18
ATOM     18  O   UNL     1      -5.650  11.484  16.854  0.00  0.00    +0.000 OA
ATOM     19  H   UNL     1      -6.164  11.916  17.557  0.00  0.00    +0.000 HD
ENDBRANCH   7  18
ENDBRANCH   1  10
BRANCH   3  20
ATOM     20  C   UNL     1       1.862   9.711  18.574  0.00  0.00    +0.000 C 
BRANCH  20  21
ATOM     21  C   UNL     1       2.583   8.631  17.755  0.00  0.00    +0.000 C 
BRANCH  21  22
ATOM     22  C   UNL     1       2.543   7.266  18.387  0.00  0.00    +0.000 A 
ATOM     23  C   UNL     1       2.172   7.130  19.727  0.00  0.00    +0.000 A 
ATOM     24  C   UNL     1       2.081   5.866  20.315  0.00  0.00    +0.000 A 
ATOM     25  C   UNL     1       2.370   4.699  19.590  0.00  0.00    +0.000 A 
ATOM     26  C   UNL     1       2.744   4.856  18.241  0.00  0.00    +0.000 A 
ATOM     27  C   UNL     1       2.829   6.120  17.647  0.00  0.00    +0.000 A 
BRANCH  25  28
ATOM     28  C   UNL     1       2.286   3.299  20.223  0.00  0.00    +0.000 C 
ATOM     29  C   UNL     1       2.002   3.332  21.742  0.00  0.00    +0.000 C 
ATOM     30  C   UNL     1       1.157   2.484  19.559  0.00  0.00    +0.000 C 
ATOM     31  C   UNL     1       3.624   2.553  20.028  0.00  0.00    +0.000 C 
ENDBRANCH  25  28
ENDBRANCH  21  22
ENDBRANCH  20  21
ENDBRANCH   3  20
TORSDOF 7
ENDMDL
MODEL 8
REMARK VINA RESULT:      -8.2      2.338      3.555
REMARK  Name = 
REMARK  11 active torsions:
REMARK  status: ('A' for Active; 'I' for Inactive)
REMARK    1  A    between atoms: C_1  and  C_2
REMARK    2  A    between atoms: C_5  and  C_6
REMARK    3  A    between atoms: C_8  and  O_9
REMARK    4  A    between atoms: C_12  and  C_13
REMARK    5  A    between atoms: N_15  and  C_16
REMARK    6  A    between atoms: C_16  and  C_17
REMARK    7  A    between atoms: C_17  and  C_18
REMARK    8  A    between atoms: C_21  and  C_22
REMARK    9  A    between atoms: C_22  and  C_23
REMARK   10  A    between atoms: C_22  and  C_24
REMARK   11  A    between atoms: C_22  and  C_25
REMARK                            x       y       z     vdW  Elec       q    Type
REMARK                         _______ _______ _______ _____ _____    ______ ____
ROOT
ATOM      1  C   UNL     1       7.303   5.803  16.746  0.00  0.00    +0.000 C 
ATOM      2  O   UNL     1       7.479   5.127  17.749  0.00  0.00    +0.000 OA
ATOM      3  N   UNL     1       7.652   7.141  16.688  0.00  0.00    +0.000 N 
ATOM      4  H   UNL     1       7.458   7.692  15.864  0.00  0.00    +0.000 HD
ENDROOT
BRANCH   1  10
ATOM      5  C   UNL     1       5.451   4.487  15.557  0.00  0.00    +0.000 A 
ATOM      6  C   UNL     1       5.085   3.778  14.394  0.00  0.00    +0.000 A 
ATOM      7  C   UNL     1       5.912   3.720  13.276  0.00  0.00    +0.000 A 
ATOM      8  C   UNL     1       7.105   4.418  13.239  0.00  0.00    +0.000 A 
ATOM      9  C   UNL     1       7.506   5.142  14.362  0.00  0.00    +0.000 A 
ATOM     10  C   UNL     1       6.708   5.170  15.526  0.00  0.00    +0.000 A 
BRANCH   5  15
ATOM     11  C   UNL     1       1.535   4.431  19.897  0.00  0.00    +0.000 C 
ATOM     12  C   UNL     1       2.611   4.464  18.855  0.00  0.00    +0.000 A 
ATOM     13  C   UNL     1       3.038   5.665  18.289  0.00  0.00    +0.000 A 
ATOM     14  C   UNL     1       3.962   5.664  17.236  0.00  0.00    +0.000 A 
ATOM     15  C   UNL     1       4.519   4.470  16.731  0.00  0.00    +0.000 A 
ATOM     16  C   UNL     1       4.144   3.285  17.385  0.00  0.00    +0.000 A 
ATOM     17  C   UNL     1       3.172   3.273  18.394  0.00  0.00    +0.000 A 
ENDBRANCH   5  15
BRANCH   7  18
ATOM     18  O   UNL     1       5.580   2.974  12.184  0.00  0.00    +0.000 OA
ATOM     19  H   UNL     1       6.288   2.329  12.017  0.00  0.00    +0.000 HD
ENDBRANCH   7  18
ENDBRANCH   1  10
BRANCH   3  20
ATOM     20  C   UNL     1       8.090   7.839  17.894  0.00  0.00    +0.000 C 
BRANCH  20  21
ATOM     21  C   UNL     1       7.428   9.213  18.067  0.00  0.00    +0.000 C 
BRANCH  21  22
ATOM     22  C   UNL     1       8.411  10.344  18.204  0.00  0.00    +0.000 A 
ATOM     23  C   UNL     1       9.534  10.195  19.022  0.00  0.00    +0.000 A 
ATOM     24  C   UNL     1      10.481  11.217  19.121  0.00  0.00    +0.000 A 
ATOM     25  C   UNL     1      10.333  12.424  18.419  0.00  0.00    +0.000 A 
ATOM     26  C   UNL     1       9.195  12.556  17.601  0.00  0.00    +0.000 A 
ATOM     27  C   UNL     1       8.246  11.532  17.494  0.00  0.00    +0.000 A 
BRANCH  25  28
ATOM     28  C   UNL     1      11.361  13.564  18.524  0.00  0.00    +0.000 C 
ATOM     29  C   UNL     1      12.223  13.727  17.251  0.00  0.00    +0.000 C 
ATOM     30  C   UNL     1      10.641  14.906  18.769  0.00  0.00    +0.000 C 
ATOM     31  C   UNL     1      12.329  13.294  19.696  0.00  0.00    +0.000 C 
ENDBRANCH  25  28
ENDBRANCH  21  22
ENDBRANCH  20  21
ENDBRANCH   3  20
TORSDOF 7
ENDMDL
MODEL 9
REMARK VINA RESULT:      -8.2      3.351      7.764
REMARK  Name = 
REMARK  11 active torsions:
REMARK  status: ('A' for Active; 'I' for Inactive)
REMARK    1  A    between atoms: C_1  and  C_2
REMARK    2  A    between atoms: C_5  and  C_6
REMARK    3  A    between atoms: C_8  and  O_9
REMARK    4  A    between atoms: C_12  and  C_13
REMARK    5  A    between atoms: N_15  and  C_16
REMARK    6  A    between atoms: C_16  and  C_17
REMARK    7  A    between atoms: C_17  and  C_18
REMARK    8  A    between atoms: C_21  and  C_22
REMARK    9  A    between atoms: C_22  and  C_23
REMARK   10  A    between atoms: C_22  and  C_24
REMARK   11  A    between atoms: C_22  and  C_25
REMARK                            x       y       z     vdW  Elec       q    Type
REMARK                         _______ _______ _______ _____ _____    ______ ____
ROOT
ATOM      1  C   UNL     1       2.161   5.879  19.053  0.00  0.00    +0.000 C 
ATOM      2  O   UNL     1       1.697   6.374  18.037  0.00  0.00    +0.000 OA
ATOM      3  N   UNL     1       2.160   6.546  20.266  0.00  0.00    +0.000 N 
ATOM      4  H   UNL     1       2.587   6.135  21.084  0.00  0.00    +0.000 HD
ENDROOT
BRANCH   1  10
ATOM      5  C   UNL     1       4.087   4.246  18.607  0.00  0.00    +0.000 A 
ATOM      6  C   UNL     1       4.455   2.897  18.424  0.00  0.00    +0.000 A 
ATOM      7  C   UNL     1       3.546   1.856  18.593  0.00  0.00    +0.000 A 
ATOM      8  C   UNL     1       2.254   2.104  19.017  0.00  0.00    +0.000 A 
ATOM      9  C   UNL     1       1.845   3.422  19.222  0.00  0.00    +0.000 A 
ATOM     10  C   UNL     1       2.734   4.496  19.003  0.00  0.00    +0.000 A 
BRANCH   5  15
ATOM     11  C   UNL     1       8.278   8.156  17.461  0.00  0.00    +0.000 C 
ATOM     12  C   UNL     1       7.172   7.215  17.830  0.00  0.00    +0.000 A 
ATOM     13  C   UNL     1       7.331   6.270  18.843  0.00  0.00    +0.000 A 
ATOM     14  C   UNL     1       6.327   5.325  19.095  0.00  0.00    +0.000 A 
ATOM     15  C   UNL     1       5.116   5.310  18.370  0.00  0.00    +0.000 A 
ATOM     16  C   UNL     1       4.946   6.333  17.424  0.00  0.00    +0.000 A 
ATOM     17  C   UNL     1       5.970   7.240  17.123  0.00  0.00    +0.000 A 
ENDBRANCH   5  15
BRANCH   7  18
ATOM     18  O   UNL     1       3.894   0.561  18.344  0.00  0.00    +0.000 OA
ATOM     19  H   UNL     1       4.778   0.546  17.939  0.00  0.00    +0.000 HD
ENDBRANCH   7  18
ENDBRANCH   1  10
BRANCH   3  20
ATOM     20  C   UNL     1       1.754   7.948  20.333  0.00  0.00    +0.000 C 
BRANCH  20  21
ATOM     21  C   UNL     1       1.443   8.415  21.762  0.00  0.00    +0.000 C 
BRANCH  21  22
ATOM     22  C   UNL     1       0.420   9.516  21.829  0.00  0.00    +0.000 A 
ATOM     23  C   UNL     1      -0.254   9.768  23.027  0.00  0.00    +0.000 A 
ATOM     24  C   UNL     1      -1.171  10.817  23.120  0.00  0.00    +0.000 A 
ATOM     25  C   UNL     1      -1.456  11.640  22.018  0.00  0.00    +0.000 A 
ATOM     26  C   UNL     1      -0.768  11.370  20.819  0.00  0.00    +0.000 A 
ATOM     27  C   UNL     1       0.156  10.323  20.725  0.00  0.00    +0.000 A 
BRANCH  25  28
ATOM     28  C   UNL     1      -2.470  12.795  22.098  0.00  0.00    +0.000 C 
ATOM     29  C   UNL     1      -1.811  14.168  22.362  0.00  0.00    +0.000 C 
ATOM     30  C   UNL     1      -3.253  12.905  20.773  0.00  0.00    +0.000 C 
ATOM     31  C   UNL     1      -3.467  12.540  23.249  0.00  0.00    +0.000 C 
ENDBRANCH  25  28
ENDBRANCH  21  22
ENDBRANCH  20  21
ENDBRANCH   3  20
TORSDOF 7
ENDMDL
