MODEL 1
REMARK VINA RESULT:      -8.3      0.000      0.000
REMARK  Name = 
REMARK  3 active torsions:
REMARK  status: ('A' for Active; 'I' for Inactive)
REMARK    1  A    between atoms: C_2  and  C_10
REMARK    2  A    between atoms: N_3  and  C_4
REMARK    3  A    between atoms: C_17  and  C_19
REMARK                            x       y       z     vdW  Elec       q    Type
REMARK                         _______ _______ _______ _____ _____    ______ ____
ROOT
ATOM      1  C   UNL     1       2.708   4.512  19.998  0.00  0.00    +0.000 C 
ATOM      2  C   UNL     1       1.593   3.886  20.880  0.00  0.00    +0.000 C 
ATOM      3  C   UNL     1       0.408   3.355  20.045  0.00  0.00    +0.000 C 
ATOM      4  C   UNL     1       1.026   2.179  19.264  0.00  0.00    +0.000 C 
ATOM      5  C   UNL     1       2.470   2.164  19.786  0.00  0.00    +0.000 C 
ATOM      6  C   UNL     1       2.275   2.566  21.252  0.00  0.00    +0.000 C 
ATOM      7  N   UNL     1       3.145   3.342  19.219  0.00  0.00    +0.000 N 
ATOM      8  C   UNL     1       4.209   3.190  18.340  0.00  0.00    +0.000 C 
ATOM      9  O   UNL     1       4.514   2.083  17.897  0.00  0.00    +0.000 OA
ENDROOT
BRANCH   8  10
ATOM     10  C   UNL     1       4.945   4.373  17.807  0.00  0.00    +0.000 A 
ATOM     11  C   UNL     1       5.888   5.102  18.535  0.00  0.00    +0.000 A 
ATOM     12  C   UNL     1       6.455   6.264  18.004  0.00  0.00    +0.000 A 
ATOM     13  C   UNL     1       6.149   6.662  16.706  0.00  0.00    +0.000 A 
ATOM     14  C   UNL     1       5.285   5.891  15.932  0.00  0.00    +0.000 A 
ATOM     15  C   UNL     1       4.683   4.755  16.481  0.00  0.00    +0.000 A 
ENDBRANCH   8  10
BRANCH   1  17
ATOM     16  O   UNL     1       1.978   5.692  18.050  0.00  0.00    +0.000 OA
ATOM     17  C   UNL     1       2.230   5.768  19.254  0.00  0.00    +0.000 C 
ATOM     18  N   UNL     1       2.260   6.931  19.999  0.00  0.00    +0.000 N 
ATOM     19  H   UNL     1       2.671   6.867  20.923  0.00  0.00    +0.000 HD
BRANCH  18  20
ATOM     20  C   UNL     1       1.896   8.213  19.543  0.00  0.00    +0.000 A 
ATOM     21  C   UNL     1       2.300   8.724  18.307  0.00  0.00    +0.000 A 
ATOM     22  C   UNL     1       1.913  10.005  17.909  0.00  0.00    +0.000 A 
ATOM     23  C   UNL     1       1.127  10.791  18.747  0.00  0.00    +0.000 A 
ATOM     24  C   UNL     1       0.714  10.287  19.979  0.00  0.00    +0.000 A 
ATOM     25  C   UNL     1       1.082   8.995  20.369  0.00  0.00    +0.000 A 
ENDBRANCH  18  20
ENDBRANCH   1  17
TORSDOF 3
ENDMDL
MODEL 2
REMARK VINA RESULT:      -8.2      0.202      1.400
REMARK  Name = 
REMARK  3 active torsions:
REMARK  status: ('A' for Active; 'I' for Inactive)
REMARK    1  A    between atoms: C_2  and  C_10
REMARK    2  A    between atoms: N_3  and  C_4
REMARK    3  A    between atoms: C_17  and  C_19
REMARK                            x       y       z     vdW  Elec       q    Type
REMARK                         _______ _______ _______ _____ _____    ______ ____
ROOT
ATOM      1  C   UNL     1       2.794   4.610  20.075  0.00  0.00    +0.000 C 
ATOM      2  C   UNL     1       1.736   3.941  20.996  0.00  0.00    +0.000 C 
ATOM      3  C   UNL     1       0.542   3.366  20.204  0.00  0.00    +0.000 C 
ATOM      4  C   UNL     1       1.176   2.214  19.399  0.00  0.00    +0.000 C 
ATOM      5  C   UNL     1       2.638   2.254  19.869  0.00  0.00    +0.000 C 
ATOM      6  C   UNL     1       2.481   2.648  21.341  0.00  0.00    +0.000 C 
ATOM      7  N   UNL     1       3.246   3.457  19.280  0.00  0.00    +0.000 N 
ATOM      8  C   UNL     1       4.283   3.347  18.362  0.00  0.00    +0.000 C 
ATOM      9  O   UNL     1       4.614   2.252  17.906  0.00  0.00    +0.000 OA
ENDROOT
BRANCH   8  10
ATOM     10  C   UNL     1       4.954   4.558  17.805  0.00  0.00    +0.000 A 
ATOM     11  C   UNL     1       4.618   5.146  16.584  0.00  0.00    +0.000 A 
ATOM     12  C   UNL     1       5.367   6.213  16.078  0.00  0.00    +0.000 A 
ATOM     13  C   UNL     1       6.405   6.757  16.827  0.00  0.00    +0.000 A 
ATOM     14  C   UNL     1       6.689   6.244  18.090  0.00  0.00    +0.000 A 
ATOM     15  C   UNL     1       5.970   5.147  18.575  0.00  0.00    +0.000 A 
ENDBRANCH   8  10
BRANCH   1  17
ATOM     16  O   UNL     1       1.941   5.759  18.159  0.00  0.00    +0.000 OA
ATOM     17  C   UNL     1       2.241   5.846  19.351  0.00  0.00    +0.000 C 
ATOM     18  N   UNL     1       2.262   7.012  20.093  0.00  0.00    +0.000 N 
ATOM     19  H   UNL     1       2.714   6.964  20.999  0.00  0.00    +0.000 HD
BRANCH  18  20
ATOM     20  C   UNL     1       1.835   8.279  19.653  0.00  0.00    +0.000 A 
ATOM     21  C   UNL     1       0.994   9.103  20.405  0.00  0.00    +0.000 A 
ATOM     22  C   UNL     1       0.599  10.349  19.915  0.00  0.00    +0.000 A 
ATOM     23  C   UNL     1       1.033  10.779  18.664  0.00  0.00    +0.000 A 
ATOM     24  C   UNL     1       1.878   9.967  17.910  0.00  0.00    +0.000 A 
ATOM     25  C   UNL     1       2.293   8.728  18.409  0.00  0.00    +0.000 A 
ENDBRANCH  18  20
ENDBRANCH   1  17
TORSDOF 3
ENDMDL
MODEL 3
REMARK VINA RESULT:      -8.1      1.109      4.310
REMARK  Name = 
REMARK  3 active torsions:
REMARK  status: ('A' for Active; 'I' for Inactive)
REMARK    1  A    between atoms: C_2  and  C_10
REMARK    2  A    between atoms: N_3  and  C_4
REMARK    3  A    between atoms: C_17  and  C_19
REMARK                            x       y       z     vdW  Elec       q    Type
REMARK                         _______ _______ _______ _____ _____    ______ ____
ROOT
ATOM      1  C   UNL     1       3.990   5.021  17.218  0.00  0.00    +0.000 C 
ATOM      2  C   UNL     1       5.057   5.834  16.434  0.00  0.00    +0.000 C 
ATOM      3  C   UNL     1       5.780   6.870  17.321  0.00  0.00    +0.000 C 
ATOM      4  C   UNL     1       6.573   5.995  18.312  0.00  0.00    +0.000 C 
ATOM      5  C   UNL     1       6.234   4.574  17.835  0.00  0.00    +0.000 C 
ATOM      6  C   UNL     1       6.152   4.768  16.317  0.00  0.00    +0.000 C 
ATOM      7  N   UNL     1       4.832   4.321  18.201  0.00  0.00    +0.000 N 
ATOM      8  C   UNL     1       4.511   3.328  19.118  0.00  0.00    +0.000 C 
ATOM      9  O   UNL     1       5.388   2.746  19.757  0.00  0.00    +0.000 OA
ENDROOT
BRANCH   8  10
ATOM     10  C   UNL     1       3.091   3.014  19.451  0.00  0.00    +0.000 A 
ATOM     11  C   UNL     1       2.251   2.239  18.649  0.00  0.00    +0.000 A 
ATOM     12  C   UNL     1       0.901   2.081  18.975  0.00  0.00    +0.000 A 
ATOM     13  C   UNL     1       0.397   2.624  20.152  0.00  0.00    +0.000 A 
ATOM     14  C   UNL     1       1.245   3.318  21.012  0.00  0.00    +0.000 A 
ATOM     15  C   UNL     1       2.584   3.516  20.661  0.00  0.00    +0.000 A 
ENDBRANCH   8  10
BRANCH   1  17
ATOM     16  O   UNL     1       1.677   5.497  17.597  0.00  0.00    +0.000 OA
ATOM     17  C   UNL     1       2.835   5.902  17.717  0.00  0.00    +0.000 C 
ATOM     18  N   UNL     1       3.207   7.162  18.143  0.00  0.00    +0.000 N 
ATOM     19  H   UNL     1       4.178   7.418  18.006  0.00  0.00    +0.000 HD
BRANCH  18  20
ATOM     20  C   UNL     1       2.339   8.162  18.621  0.00  0.00    +0.000 A 
ATOM     21  C   UNL     1       1.935   9.253  17.847  0.00  0.00    +0.000 A 
ATOM     22  C   UNL     1       1.075  10.218  18.376  0.00  0.00    +0.000 A 
ATOM     23  C   UNL     1       0.619  10.106  19.687  0.00  0.00    +0.000 A 
ATOM     24  C   UNL     1       1.012   9.018  20.464  0.00  0.00    +0.000 A 
ATOM     25  C   UNL     1       1.855   8.039  19.928  0.00  0.00    +0.000 A 
ENDBRANCH  18  20
ENDBRANCH   1  17
TORSDOF 3
ENDMDL
MODEL 4
REMARK VINA RESULT:      -8.1      1.327      4.458
REMARK  Name = 
REMARK  3 active torsions:
REMARK  status: ('A' for Active; 'I' for Inactive)
REMARK    1  A    between atoms: C_2  and  C_10
REMARK    2  A    between atoms: N_3  and  C_4
REMARK    3  A    between atoms: C_17  and  C_19
REMARK                            x       y       z     vdW  Elec       q    Type
REMARK                         _______ _______ _______ _____ _____    ______ ____
ROOT
ATOM      1  C   UNL     1       4.045   5.360  17.030  0.00  0.00    +0.000 C 
ATOM      2  C   UNL     1       5.124   6.012  16.121  0.00  0.00    +0.000 C 
ATOM      3  C   UNL     1       6.485   6.160  16.833  0.00  0.00    +0.000 C 
ATOM      4  C   UNL     1       6.940   4.701  17.031  0.00  0.00    +0.000 C 
ATOM      5  C   UNL     1       5.800   3.911  16.369  0.00  0.00    +0.000 C 
ATOM      6  C   UNL     1       5.428   4.827  15.199  0.00  0.00    +0.000 C 
ATOM      7  N   UNL     1       4.628   4.027  17.251  0.00  0.00    +0.000 N 
ATOM      8  C   UNL     1       4.098   2.903  17.871  0.00  0.00    +0.000 C 
ATOM      9  O   UNL     1       4.679   1.818  17.824  0.00  0.00    +0.000 OA
ENDROOT
BRANCH   8  10
ATOM     10  C   UNL     1       2.871   2.993  18.715  0.00  0.00    +0.000 A 
ATOM     11  C   UNL     1       1.569   2.965  18.211  0.00  0.00    +0.000 A 
ATOM     12  C   UNL     1       0.474   3.165  19.056  0.00  0.00    +0.000 A 
ATOM     13  C   UNL     1       0.664   3.308  20.426  0.00  0.00    +0.000 A 
ATOM     14  C   UNL     1       1.950   3.239  20.957  0.00  0.00    +0.000 A 
ATOM     15  C   UNL     1       3.048   3.087  20.105  0.00  0.00    +0.000 A 
ENDBRANCH   8  10
BRANCH   1  17
ATOM     16  O   UNL     1       4.384   6.144  19.264  0.00  0.00    +0.000 OA
ATOM     17  C   UNL     1       3.698   6.234  18.244  0.00  0.00    +0.000 C 
ATOM     18  N   UNL     1       2.530   6.962  18.121  0.00  0.00    +0.000 N 
ATOM     19  H   UNL     1       1.972   6.787  17.293  0.00  0.00    +0.000 HD
BRANCH  18  20
ATOM     20  C   UNL     1       1.983   7.816  19.098  0.00  0.00    +0.000 A 
ATOM     21  C   UNL     1       1.819   7.439  20.433  0.00  0.00    +0.000 A 
ATOM     22  C   UNL     1       1.267   8.327  21.358  0.00  0.00    +0.000 A 
ATOM     23  C   UNL     1       0.861   9.596  20.954  0.00  0.00    +0.000 A 
ATOM     24  C   UNL     1       1.026   9.983  19.625  0.00  0.00    +0.000 A 
ATOM     25  C   UNL     1       1.601   9.103  18.703  0.00  0.00    +0.000 A 
ENDBRANCH  18  20
ENDBRANCH   1  17
TORSDOF 3
ENDMDL
MODEL 5
REMARK VINA RESULT:      -7.8      1.365      4.324
REMARK  Name = 
REMARK  3 active torsions:
REMARK  status: ('A' for Active; 'I' for Inactive)
REMARK    1  A    between atoms: C_2  and  C_10
REMARK    2  A    between atoms: N_3  and  C_4
REMARK    3  A    between atoms: C_17  and  C_19
REMARK                            x       y       z     vdW  Elec       q    Type
REMARK                         _______ _______ _______ _____ _____    ______ ____
ROOT
ATOM      1  C   UNL     1       4.126   5.306  16.894  0.00  0.00    +0.000 C 
ATOM      2  C   UNL     1       5.201   5.847  15.911  0.00  0.00    +0.000 C 
ATOM      3  C   UNL     1       6.576   6.038  16.586  0.00  0.00    +0.000 C 
ATOM      4  C   UNL     1       7.009   4.596  16.918  0.00  0.00    +0.000 C 
ATOM      5  C   UNL     1       5.846   3.768  16.352  0.00  0.00    +0.000 C 
ATOM      6  C   UNL     1       5.470   4.574  15.104  0.00  0.00    +0.000 C 
ATOM      7  N   UNL     1       4.690   3.990  17.234  0.00  0.00    +0.000 N 
ATOM      8  C   UNL     1       4.151   2.941  17.967  0.00  0.00    +0.000 C 
ATOM      9  O   UNL     1       4.712   1.846  18.017  0.00  0.00    +0.000 OA
ENDROOT
BRANCH   8  10
ATOM     10  C   UNL     1       2.939   3.134  18.817  0.00  0.00    +0.000 A 
ATOM     11  C   UNL     1       2.970   3.626  20.124  0.00  0.00    +0.000 A 
ATOM     12  C   UNL     1       1.804   3.674  20.893  0.00  0.00    +0.000 A 
ATOM     13  C   UNL     1       0.582   3.312  20.337  0.00  0.00    +0.000 A 
ATOM     14  C   UNL     1       0.521   2.912  19.004  0.00  0.00    +0.000 A 
ATOM     15  C   UNL     1       1.694   2.819  18.249  0.00  0.00    +0.000 A 
ENDBRANCH   8  10
BRANCH   1  17
ATOM     16  O   UNL     1       4.627   6.443  18.938  0.00  0.00    +0.000 OA
ATOM     17  C   UNL     1       3.813   6.299  18.023  0.00  0.00    +0.000 C 
ATOM     18  N   UNL     1       2.549   6.853  17.976  0.00  0.00    +0.000 N 
ATOM     19  H   UNL     1       1.923   6.493  17.265  0.00  0.00    +0.000 HD
BRANCH  18  20
ATOM     20  C   UNL     1       2.013   7.768  18.902  0.00  0.00    +0.000 A 
ATOM     21  C   UNL     1       1.644   9.071  18.559  0.00  0.00    +0.000 A 
ATOM     22  C   UNL     1       1.121   9.937  19.522  0.00  0.00    +0.000 A 
ATOM     23  C   UNL     1       0.972   9.511  20.839  0.00  0.00    +0.000 A 
ATOM     24  C   UNL     1       1.331   8.211  21.189  0.00  0.00    +0.000 A 
ATOM     25  C   UNL     1       1.833   7.335  20.221  0.00  0.00    +0.000 A 
ENDBRANCH  18  20
ENDBRANCH   1  17
TORSDOF 3
ENDMDL
MODEL 6
REMARK VINA RESULT:      -7.8      0.624      1.160
REMARK  Name = 
REMARK  3 active torsions:
REMARK  status: ('A' for Active; 'I' for Inactive)
REMARK    1  A    between atoms: C_2  and  C_10
REMARK    2  A    between atoms: N_3  and  C_4
REMARK    3  A    between atoms: C_17  and  C_19
REMARK                            x       y       z     vdW  Elec       q    Type
REMARK                         _______ _______ _______ _____ _____    ______ ____
ROOT
ATOM      1  C   UNL     1       3.162   4.653  19.980  0.00  0.00    +0.000 C 
ATOM      2  C   UNL     1       2.080   4.306  21.040  0.00  0.00    +0.000 C 
ATOM      3  C   UNL     1       0.696   4.044  20.409  0.00  0.00    +0.000 C 
ATOM      4  C   UNL     1       0.916   2.749  19.602  0.00  0.00    +0.000 C 
ATOM      5  C   UNL     1       2.383   2.416  19.913  0.00  0.00    +0.000 C 
ATOM      6  C   UNL     1       2.502   2.871  21.372  0.00  0.00    +0.000 C 
ATOM      7  N   UNL     1       3.208   3.405  19.202  0.00  0.00    +0.000 N 
ATOM      8  C   UNL     1       4.069   3.007  18.188  0.00  0.00    +0.000 C 
ATOM      9  O   UNL     1       4.053   1.854  17.757  0.00  0.00    +0.000 OA
ENDROOT
BRANCH   8  10
ATOM     10  C   UNL     1       4.960   3.987  17.502  0.00  0.00    +0.000 A 
ATOM     11  C   UNL     1       4.753   4.458  16.203  0.00  0.00    +0.000 A 
ATOM     12  C   UNL     1       5.693   5.291  15.589  0.00  0.00    +0.000 A 
ATOM     13  C   UNL     1       6.807   5.730  16.296  0.00  0.00    +0.000 A 
ATOM     14  C   UNL     1       6.977   5.348  17.625  0.00  0.00    +0.000 A 
ATOM     15  C   UNL     1       6.061   4.477  18.223  0.00  0.00    +0.000 A 
ENDBRANCH   8  10
BRANCH   1  17
ATOM     16  O   UNL     1       3.333   6.158  18.129  0.00  0.00    +0.000 OA
ATOM     17  C   UNL     1       2.866   5.975  19.255  0.00  0.00    +0.000 C 
ATOM     18  N   UNL     1       2.199   6.917  20.014  0.00  0.00    +0.000 N 
ATOM     19  H   UNL     1       2.047   6.688  20.989  0.00  0.00    +0.000 HD
BRANCH  18  20
ATOM     20  C   UNL     1       1.834   8.209  19.591  0.00  0.00    +0.000 A 
ATOM     21  C   UNL     1       2.152   8.715  18.328  0.00  0.00    +0.000 A 
ATOM     22  C   UNL     1       1.767  10.007  17.964  0.00  0.00    +0.000 A 
ATOM     23  C   UNL     1       1.071  10.810  18.863  0.00  0.00    +0.000 A 
ATOM     24  C   UNL     1       0.744  10.311  20.123  0.00  0.00    +0.000 A 
ATOM     25  C   UNL     1       1.108   9.010  20.480  0.00  0.00    +0.000 A 
ENDBRANCH  18  20
ENDBRANCH   1  17
TORSDOF 3
ENDMDL
MODEL 7
REMARK VINA RESULT:      -7.6      1.139      4.310
REMARK  Name = 
REMARK  3 active torsions:
REMARK  status: ('A' for Active; 'I' for Inactive)
REMARK    1  A    between atoms: C_2  and  C_10
REMARK    2  A    between atoms: N_3  and  C_4
REMARK    3  A    between atoms: C_17  and  C_19
REMARK                            x       y       z     vdW  Elec       q    Type
REMARK                         _______ _______ _______ _____ _____    ______ ____
ROOT
ATOM      1  C   UNL     1       3.989   5.077  17.220  0.00  0.00    +0.000 C 
ATOM      2  C   UNL     1       5.028   5.875  16.385  0.00  0.00    +0.000 C 
ATOM      3  C   UNL     1       5.756   6.951  17.220  0.00  0.00    +0.000 C 
ATOM      4  C   UNL     1       6.582   6.119  18.222  0.00  0.00    +0.000 C 
ATOM      5  C   UNL     1       6.252   4.680  17.801  0.00  0.00    +0.000 C 
ATOM      6  C   UNL     1       6.133   4.821  16.280  0.00  0.00    +0.000 C 
ATOM      7  N   UNL     1       4.862   4.421  18.206  0.00  0.00    +0.000 N 
ATOM      8  C   UNL     1       4.574   3.457  19.163  0.00  0.00    +0.000 C 
ATOM      9  O   UNL     1       5.472   2.907  19.802  0.00  0.00    +0.000 OA
ENDROOT
BRANCH   8  10
ATOM     10  C   UNL     1       3.166   3.136  19.539  0.00  0.00    +0.000 A 
ATOM     11  C   UNL     1       2.544   3.590  20.704  0.00  0.00    +0.000 A 
ATOM     12  C   UNL     1       1.258   3.156  21.040  0.00  0.00    +0.000 A 
ATOM     13  C   UNL     1       0.548   2.333  20.173  0.00  0.00    +0.000 A 
ATOM     14  C   UNL     1       1.118   1.950  18.961  0.00  0.00    +0.000 A 
ATOM     15  C   UNL     1       2.422   2.346  18.647  0.00  0.00    +0.000 A 
ENDBRANCH   8  10
BRANCH   1  17
ATOM     16  O   UNL     1       1.673   5.592  17.521  0.00  0.00    +0.000 OA
ATOM     17  C   UNL     1       2.833   5.960  17.715  0.00  0.00    +0.000 C 
ATOM     18  N   UNL     1       3.216   7.186  18.224  0.00  0.00    +0.000 N 
ATOM     19  H   UNL     1       4.197   7.423  18.143  0.00  0.00    +0.000 HD
BRANCH  18  20
ATOM     20  C   UNL     1       2.350   8.181  18.717  0.00  0.00    +0.000 A 
ATOM     21  C   UNL     1       1.811   8.150  20.005  0.00  0.00    +0.000 A 
ATOM     22  C   UNL     1       0.954   9.163  20.440  0.00  0.00    +0.000 A 
ATOM     23  C   UNL     1       0.620  10.211  19.586  0.00  0.00    +0.000 A 
ATOM     24  C   UNL     1       1.158  10.254  18.301  0.00  0.00    +0.000 A 
ATOM     25  C   UNL     1       2.035   9.252  17.873  0.00  0.00    +0.000 A 
ENDBRANCH  18  20
ENDBRANCH   1  17
TORSDOF 3
ENDMDL
MODEL 8
REMARK VINA RESULT:      -7.4      1.549      2.404
REMARK  Name = 
REMARK  3 active torsions:
REMARK  status: ('A' for Active; 'I' for Inactive)
REMARK    1  A    between atoms: C_2  and  C_10
REMARK    2  A    between atoms: N_3  and  C_4
REMARK    3  A    between atoms: C_17  and  C_19
REMARK                            x       y       z     vdW  Elec       q    Type
REMARK                         _______ _______ _______ _____ _____    ______ ____
ROOT
ATOM      1  C   UNL     1       4.034   3.771  19.153  0.00  0.00    +0.000 C 
ATOM      2  C   UNL     1       2.926   2.707  19.384  0.00  0.00    +0.000 C 
ATOM      3  C   UNL     1       1.676   2.954  18.511  0.00  0.00    +0.000 C 
ATOM      4  C   UNL     1       2.193   2.708  17.080  0.00  0.00    +0.000 C 
ATOM      5  C   UNL     1       3.656   2.310  17.325  0.00  0.00    +0.000 C 
ATOM      6  C   UNL     1       3.549   1.525  18.636  0.00  0.00    +0.000 C 
ATOM      7  N   UNL     1       4.369   3.528  17.741  0.00  0.00    +0.000 N 
ATOM      8  C   UNL     1       5.383   4.056  16.952  0.00  0.00    +0.000 C 
ATOM      9  O   UNL     1       5.606   3.614  15.824  0.00  0.00    +0.000 OA
ENDROOT
BRANCH   8  10
ATOM     10  C   UNL     1       6.160   5.252  17.390  0.00  0.00    +0.000 A 
ATOM     11  C   UNL     1       5.973   6.538  16.878  0.00  0.00    +0.000 A 
ATOM     12  C   UNL     1       6.815   7.586  17.259  0.00  0.00    +0.000 A 
ATOM     13  C   UNL     1       7.798   7.380  18.221  0.00  0.00    +0.000 A 
ATOM     14  C   UNL     1       7.933   6.126  18.813  0.00  0.00    +0.000 A 
ATOM     15  C   UNL     1       7.122   5.067  18.397  0.00  0.00    +0.000 A 
ENDBRANCH   8  10
BRANCH   1  17
ATOM     16  O   UNL     1       3.720   5.509  20.765  0.00  0.00    +0.000 OA
ATOM     17  C   UNL     1       3.593   5.177  19.585  0.00  0.00    +0.000 C 
ATOM     18  N   UNL     1       2.951   5.912  18.607  0.00  0.00    +0.000 N 
ATOM     19  H   UNL     1       2.752   5.431  17.737  0.00  0.00    +0.000 HD
BRANCH  18  20
ATOM     20  C   UNL     1       2.432   7.212  18.757  0.00  0.00    +0.000 A 
ATOM     21  C   UNL     1       1.791   7.645  19.921  0.00  0.00    +0.000 A 
ATOM     22  C   UNL     1       1.292   8.946  20.013  0.00  0.00    +0.000 A 
ATOM     23  C   UNL     1       1.418   9.821  18.938  0.00  0.00    +0.000 A 
ATOM     24  C   UNL     1       2.061   9.400  17.776  0.00  0.00    +0.000 A 
ATOM     25  C   UNL     1       2.582   8.105  17.691  0.00  0.00    +0.000 A 
ENDBRANCH  18  20
ENDBRANCH   1  17
TORSDOF 3
ENDMDL
MODEL 9
REMARK VINA RESULT:      -7.4      1.529      4.425
REMARK  Name = 
REMARK  3 active torsions:
REMARK  status: ('A' for Active; 'I' for Inactive)
REMARK    1  A    between atoms: C_2  and  C_10
REMARK    2  A    between atoms: N_3  and  C_4
REMARK    3  A    between atoms: C_17  and  C_19
REMARK                            x       y       z     vdW  Elec       q    Type
REMARK                         _______ _______ _______ _____ _____    ______ ____
ROOT
ATOM      1  C   UNL     1       5.037   5.338  17.186  0.00  0.00    +0.000 C 
ATOM      2  C   UNL     1       6.369   5.931  16.649  0.00  0.00    +0.000 C 
ATOM      3  C   UNL     1       7.055   6.865  17.670  0.00  0.00    +0.000 C 
ATOM      4  C   UNL     1       7.458   5.906  18.808  0.00  0.00    +0.000 C 
ATOM      5  C   UNL     1       6.990   4.546  18.270  0.00  0.00    +0.000 C 
ATOM      6  C   UNL     1       7.265   4.694  16.770  0.00  0.00    +0.000 C 
ATOM      7  N   UNL     1       5.520   4.544  18.327  0.00  0.00    +0.000 N 
ATOM      8  C   UNL     1       4.847   3.654  19.154  0.00  0.00    +0.000 C 
ATOM      9  O   UNL     1       5.456   2.957  19.967  0.00  0.00    +0.000 OA
ENDROOT
BRANCH   8  10
ATOM     10  C   UNL     1       3.357   3.594  19.175  0.00  0.00    +0.000 A 
ATOM     11  C   UNL     1       2.565   3.380  18.044  0.00  0.00    +0.000 A 
ATOM     12  C   UNL     1       1.172   3.447  18.127  0.00  0.00    +0.000 A 
ATOM     13  C   UNL     1       0.552   3.643  19.357  0.00  0.00    +0.000 A 
ATOM     14  C   UNL     1       1.326   3.760  20.509  0.00  0.00    +0.000 A 
ATOM     15  C   UNL     1       2.721   3.740  20.418  0.00  0.00    +0.000 A 
ENDBRANCH   8  10
BRANCH   1  17
ATOM     16  O   UNL     1       3.686   7.192  16.509  0.00  0.00    +0.000 OA
ATOM     17  C   UNL     1       3.971   6.417  17.425  0.00  0.00    +0.000 C 
ATOM     18  N   UNL     1       3.517   6.507  18.726  0.00  0.00    +0.000 N 
ATOM     19  H   UNL     1       3.984   5.924  19.411  0.00  0.00    +0.000 HD
BRANCH  18  20
ATOM     20  C   UNL     1       2.563   7.425  19.206  0.00  0.00    +0.000 A 
ATOM     21  C   UNL     1       2.094   8.501  18.448  0.00  0.00    +0.000 A 
ATOM     22  C   UNL     1       1.150   9.384  18.977  0.00  0.00    +0.000 A 
ATOM     23  C   UNL     1       0.675   9.205  20.274  0.00  0.00    +0.000 A 
ATOM     24  C   UNL     1       1.132   8.130  21.035  0.00  0.00    +0.000 A 
ATOM     25  C   UNL     1       2.060   7.233  20.498  0.00  0.00    +0.000 A 
ENDBRANCH  18  20
ENDBRANCH   1  17
TORSDOF 3
ENDMDL
