MODEL 1
REMARK VINA RESULT:      -6.1      0.000      0.000
REMARK  Name = 
REMARK  6 active torsions:
REMARK  status: ('A' for Active; 'I' for Inactive)
REMARK    1  A    between atoms: C_1  and  C_2
REMARK    2  A    between atoms: C_2  and  C_3
REMARK    3  A    between atoms: C_3  and  O_4
REMARK    4  A    between atoms: O_4  and  C_5
REMARK    5  A    between atoms: C_5  and  C_7
REMARK    6  A    between atoms: C_8  and  C_9
REMARK                            x       y       z     vdW  Elec       q    Type
REMARK                         _______ _______ _______ _____ _____    ______ ____
ROOT
ATOM      1  C   UNL     1       5.722   4.225  17.448  0.00  0.00    +0.000 C 
ATOM      2  C   UNL     1       4.580   3.858  16.848  0.00  0.00    +0.000 C 
ENDROOT
BRANCH   2   3
ATOM      3  C   UNL     1       3.375   3.404  17.557  0.00  0.00    +0.000 A 
ATOM      4  C   UNL     1       2.281   4.275  17.656  0.00  0.00    +0.000 A 
ATOM      5  C   UNL     1       1.114   3.885  18.318  0.00  0.00    +0.000 A 
ATOM      6  C   UNL     1       1.022   2.613  18.878  0.00  0.00    +0.000 A 
ATOM      7  C   UNL     1       2.087   1.724  18.758  0.00  0.00    +0.000 A 
ATOM      8  C   UNL     1       3.255   2.114  18.095  0.00  0.00    +0.000 A 
ENDBRANCH   2   3
BRANCH   1   9
ATOM      9  C   UNL     1       6.890   4.616  16.632  0.00  0.00    +0.000 C 
ATOM     10  O   UNL     1       8.056   4.426  16.941  0.00  0.00    +0.000 OA
BRANCH   9  11
ATOM     11  O   UNL     1       6.435   5.293  15.549  0.00  0.00    +0.000 OA
BRANCH  11  12
ATOM     12  C   UNL     1       6.948   4.855  14.282  0.00  0.00    +0.000 C 
BRANCH  12  14
ATOM     13  C   UNL     1       6.443   3.524  12.225  0.00  0.00    +0.000 C 
ATOM     14  C   UNL     1       6.078   3.757  13.684  0.00  0.00    +0.000 C 
ENDBRANCH  12  14
ENDBRANCH  11  12
ENDBRANCH   9  11
ENDBRANCH   1   9
TORSDOF 5
ENDMDL
MODEL 2
REMARK VINA RESULT:      -6.1      1.647      2.212
REMARK  Name = 
REMARK  6 active torsions:
REMARK  status: ('A' for Active; 'I' for Inactive)
REMARK    1  A    between atoms: C_1  and  C_2
REMARK    2  A    between atoms: C_2  and  C_3
REMARK    3  A    between atoms: C_3  and  O_4
REMARK    4  A    between atoms: O_4  and  C_5
REMARK    5  A    between atoms: C_5  and  C_7
REMARK    6  A    between atoms: C_8  and  C_9
REMARK                            x       y       z     vdW  Elec       q    Type
REMARK                         _______ _______ _______ _____ _____    ______ ____
ROOT
ATOM      1  C   UNL     1       4.478   5.898  17.561  0.00  0.00    +0.000 C 
ATOM      2  C   UNL     1       3.558   4.929  17.444  0.00  0.00    +0.000 C 
ENDROOT
BRANCH   2   3
ATOM      3  C   UNL     1       2.667   4.490  18.527  0.00  0.00    +0.000 A 
ATOM      4  C   UNL     1       1.809   3.406  18.299  0.00  0.00    +0.000 A 
ATOM      5  C   UNL     1       0.946   2.953  19.300  0.00  0.00    +0.000 A 
ATOM      6  C   UNL     1       0.942   3.570  20.548  0.00  0.00    +0.000 A 
ATOM      7  C   UNL     1       1.812   4.627  20.802  0.00  0.00    +0.000 A 
ATOM      8  C   UNL     1       2.676   5.079  19.800  0.00  0.00    +0.000 A 
ENDBRANCH   2   3
BRANCH   1   9
ATOM      9  C   UNL     1       5.356   6.222  16.418  0.00  0.00    +0.000 C 
ATOM     10  O   UNL     1       5.057   6.962  15.493  0.00  0.00    +0.000 OA
BRANCH   9  11
ATOM     11  O   UNL     1       6.488   5.487  16.539  0.00  0.00    +0.000 OA
BRANCH  11  12
ATOM     12  C   UNL     1       6.993   4.919  15.321  0.00  0.00    +0.000 C 
BRANCH  12  14
ATOM     13  C   UNL     1       6.053   3.782  13.302  0.00  0.00    +0.000 C 
ATOM     14  C   UNL     1       6.096   3.793  14.823  0.00  0.00    +0.000 C 
ENDBRANCH  12  14
ENDBRANCH  11  12
ENDBRANCH   9  11
ENDBRANCH   1   9
TORSDOF 5
ENDMDL
MODEL 3
REMARK VINA RESULT:      -6.1      1.410      1.751
REMARK  Name = 
REMARK  6 active torsions:
REMARK  status: ('A' for Active; 'I' for Inactive)
REMARK    1  A    between atoms: C_1  and  C_2
REMARK    2  A    between atoms: C_2  and  C_3
REMARK    3  A    between atoms: C_3  and  O_4
REMARK    4  A    between atoms: O_4  and  C_5
REMARK    5  A    between atoms: C_5  and  C_7
REMARK    6  A    between atoms: C_8  and  C_9
REMARK                            x       y       z     vdW  Elec       q    Type
REMARK                         _______ _______ _______ _____ _____    ______ ____
ROOT
ATOM      1  C   UNL     1       5.499   4.351  16.160  0.00  0.00    +0.000 C 
ATOM      2  C   UNL     1       4.934   5.109  17.111  0.00  0.00    +0.000 C 
ENDROOT
BRANCH   2   3
ATOM      3  C   UNL     1       3.715   4.748  17.849  0.00  0.00    +0.000 A 
ATOM      4  C   UNL     1       3.409   5.441  19.029  0.00  0.00    +0.000 A 
ATOM      5  C   UNL     1       2.260   5.134  19.762  0.00  0.00    +0.000 A 
ATOM      6  C   UNL     1       1.395   4.138  19.316  0.00  0.00    +0.000 A 
ATOM      7  C   UNL     1       1.667   3.463  18.129  0.00  0.00    +0.000 A 
ATOM      8  C   UNL     1       2.817   3.772  17.395  0.00  0.00    +0.000 A 
ENDBRANCH   2   3
BRANCH   1   9
ATOM      9  C   UNL     1       6.698   4.838  15.446  0.00  0.00    +0.000 C 
ATOM     10  O   UNL     1       7.417   5.748  15.827  0.00  0.00    +0.000 OA
BRANCH   9  11
ATOM     11  O   UNL     1       6.788   4.165  14.273  0.00  0.00    +0.000 OA
BRANCH  11  12
ATOM     12  C   UNL     1       5.547   3.946  13.585  0.00  0.00    +0.000 C 
BRANCH  12  14
ATOM     13  C   UNL     1       4.456   3.150  11.480  0.00  0.00    +0.000 C 
ATOM     14  C   UNL     1       5.779   3.329  12.212  0.00  0.00    +0.000 C 
ENDBRANCH  12  14
ENDBRANCH  11  12
ENDBRANCH   9  11
ENDBRANCH   1   9
TORSDOF 5
ENDMDL
MODEL 4
REMARK VINA RESULT:      -6.1      2.609      3.584
REMARK  Name = 
REMARK  6 active torsions:
REMARK  status: ('A' for Active; 'I' for Inactive)
REMARK    1  A    between atoms: C_1  and  C_2
REMARK    2  A    between atoms: C_2  and  C_3
REMARK    3  A    between atoms: C_3  and  O_4
REMARK    4  A    between atoms: O_4  and  C_5
REMARK    5  A    between atoms: C_5  and  C_7
REMARK    6  A    between atoms: C_8  and  C_9
REMARK                            x       y       z     vdW  Elec       q    Type
REMARK                         _______ _______ _______ _____ _____    ______ ____
ROOT
ATOM      1  C   UNL     1       4.311   6.385  17.434  0.00  0.00    +0.000 C 
ATOM      2  C   UNL     1       3.681   5.201  17.413  0.00  0.00    +0.000 C 
ENDROOT
BRANCH   2   3
ATOM      3  C   UNL     1       2.735   4.743  18.440  0.00  0.00    +0.000 A 
ATOM      4  C   UNL     1       1.949   3.612  18.178  0.00  0.00    +0.000 A 
ATOM      5  C   UNL     1       1.038   3.139  19.126  0.00  0.00    +0.000 A 
ATOM      6  C   UNL     1       0.912   3.783  20.354  0.00  0.00    +0.000 A 
ATOM      7  C   UNL     1       1.710   4.887  20.643  0.00  0.00    +0.000 A 
ATOM      8  C   UNL     1       2.622   5.360  19.695  0.00  0.00    +0.000 A 
ENDBRANCH   2   3
BRANCH   1   9
ATOM      9  C   UNL     1       5.283   6.721  16.373  0.00  0.00    +0.000 C 
ATOM     10  O   UNL     1       5.204   6.355  15.210  0.00  0.00    +0.000 OA
BRANCH   9  11
ATOM     11  O   UNL     1       6.301   7.413  16.941  0.00  0.00    +0.000 OA
BRANCH  11  12
ATOM     12  C   UNL     1       7.509   6.670  17.162  0.00  0.00    +0.000 C 
BRANCH  12  14
ATOM     13  C   UNL     1       7.448   5.609  19.426  0.00  0.00    +0.000 C 
ATOM     14  C   UNL     1       7.969   6.783  18.610  0.00  0.00    +0.000 C 
ENDBRANCH  12  14
ENDBRANCH  11  12
ENDBRANCH   9  11
ENDBRANCH   1   9
TORSDOF 5
ENDMDL
MODEL 5
REMARK VINA RESULT:      -6.0      1.792      2.956
REMARK  Name = 
REMARK  6 active torsions:
REMARK  status: ('A' for Active; 'I' for Inactive)
REMARK    1  A    between atoms: C_1  and  C_2
REMARK    2  A    between atoms: C_2  and  C_3
REMARK    3  A    between atoms: C_3  and  O_4
REMARK    4  A    between atoms: O_4  and  C_5
REMARK    5  A    between atoms: C_5  and  C_7
REMARK    6  A    between atoms: C_8  and  C_9
REMARK                            x       y       z     vdW  Elec       q    Type
REMARK                         _______ _______ _______ _____ _____    ______ ____
ROOT
ATOM      1  C   UNL     1       4.568   4.871  16.760  0.00  0.00    +0.000 C 
ATOM      2  C   UNL     1       4.148   3.775  17.410  0.00  0.00    +0.000 C 
ENDROOT
BRANCH   2   3
ATOM      3  C   UNL     1       3.025   3.748  18.358  0.00  0.00    +0.000 A 
ATOM      4  C   UNL     1       2.994   4.691  19.394  0.00  0.00    +0.000 A 
ATOM      5  C   UNL     1       1.944   4.705  20.318  0.00  0.00    +0.000 A 
ATOM      6  C   UNL     1       0.905   3.784  20.206  0.00  0.00    +0.000 A 
ATOM      7  C   UNL     1       0.905   2.863  19.161  0.00  0.00    +0.000 A 
ATOM      8  C   UNL     1       1.954   2.850  18.237  0.00  0.00    +0.000 A 
ENDBRANCH   2   3
BRANCH   1   9
ATOM      9  C   UNL     1       5.743   4.791  15.867  0.00  0.00    +0.000 C 
ATOM     10  O   UNL     1       6.158   3.768  15.346  0.00  0.00    +0.000 OA
BRANCH   9  11
ATOM     11  O   UNL     1       6.313   6.020  15.815  0.00  0.00    +0.000 OA
BRANCH  11  12
ATOM     12  C   UNL     1       6.141   6.834  16.986  0.00  0.00    +0.000 C 
BRANCH  12  14
ATOM     13  C   UNL     1       7.750   6.132  18.768  0.00  0.00    +0.000 C 
ATOM     14  C   UNL     1       7.478   7.131  17.652  0.00  0.00    +0.000 C 
ENDBRANCH  12  14
ENDBRANCH  11  12
ENDBRANCH   9  11
ENDBRANCH   1   9
TORSDOF 5
ENDMDL
MODEL 6
REMARK VINA RESULT:      -6.0      1.029      1.631
REMARK  Name = 
REMARK  6 active torsions:
REMARK  status: ('A' for Active; 'I' for Inactive)
REMARK    1  A    between atoms: C_1  and  C_2
REMARK    2  A    between atoms: C_2  and  C_3
REMARK    3  A    between atoms: C_3  and  O_4
REMARK    4  A    between atoms: O_4  and  C_5
REMARK    5  A    between atoms: C_5  and  C_7
REMARK    6  A    between atoms: C_8  and  C_9
REMARK                            x       y       z     vdW  Elec       q    Type
REMARK                         _______ _______ _______ _____ _____    ______ ____
ROOT
ATOM      1  C   UNL     1       5.409   4.709  16.733  0.00  0.00    +0.000 C 
ATOM      2  C   UNL     1       4.363   3.886  16.568  0.00  0.00    +0.000 C 
ENDROOT
BRANCH   2   3
ATOM      3  C   UNL     1       3.256   3.743  17.524  0.00  0.00    +0.000 A 
ATOM      4  C   UNL     1       2.659   2.485  17.684  0.00  0.00    +0.000 A 
ATOM      5  C   UNL     1       1.605   2.302  18.583  0.00  0.00    +0.000 A 
ATOM      6  C   UNL     1       1.144   3.374  19.344  0.00  0.00    +0.000 A 
ATOM      7  C   UNL     1       1.749   4.622  19.221  0.00  0.00    +0.000 A 
ATOM      8  C   UNL     1       2.804   4.804  18.322  0.00  0.00    +0.000 A 
ENDBRANCH   2   3
BRANCH   1   9
ATOM      9  C   UNL     1       6.493   4.733  15.729  0.00  0.00    +0.000 C 
ATOM     10  O   UNL     1       7.356   5.593  15.650  0.00  0.00    +0.000 OA
BRANCH   9  11
ATOM     11  O   UNL     1       6.296   3.698  14.876  0.00  0.00    +0.000 OA
BRANCH  11  12
ATOM     12  C   UNL     1       6.468   3.999  13.483  0.00  0.00    +0.000 C 
BRANCH  12  14
ATOM     13  C   UNL     1       5.584   2.478  11.705  0.00  0.00    +0.000 C 
ATOM     14  C   UNL     1       5.240   3.600  12.676  0.00  0.00    +0.000 C 
ENDBRANCH  12  14
ENDBRANCH  11  12
ENDBRANCH   9  11
ENDBRANCH   1   9
TORSDOF 5
ENDMDL
MODEL 7
REMARK VINA RESULT:      -6.0      1.264      1.897
REMARK  Name = 
REMARK  6 active torsions:
REMARK  status: ('A' for Active; 'I' for Inactive)
REMARK    1  A    between atoms: C_1  and  C_2
REMARK    2  A    between atoms: C_2  and  C_3
REMARK    3  A    between atoms: C_3  and  O_4
REMARK    4  A    between atoms: O_4  and  C_5
REMARK    5  A    between atoms: C_5  and  C_7
REMARK    6  A    between atoms: C_8  and  C_9
REMARK                            x       y       z     vdW  Elec       q    Type
REMARK                         _______ _______ _______ _____ _____    ______ ____
ROOT
ATOM      1  C   UNL     1       5.620   4.494  16.386  0.00  0.00    +0.000 C 
ATOM      2  C   UNL     1       4.410   3.916  16.347  0.00  0.00    +0.000 C 
ENDROOT
BRANCH   2   3
ATOM      3  C   UNL     1       3.568   3.665  17.526  0.00  0.00    +0.000 A 
ATOM      4  C   UNL     1       4.164   3.145  18.683  0.00  0.00    +0.000 A 
ATOM      5  C   UNL     1       3.404   2.892  19.828  0.00  0.00    +0.000 A 
ATOM      6  C   UNL     1       2.039   3.171  19.834  0.00  0.00    +0.000 A 
ATOM      7  C   UNL     1       1.439   3.719  18.703  0.00  0.00    +0.000 A 
ATOM      8  C   UNL     1       2.200   3.973  17.558  0.00  0.00    +0.000 A 
ENDBRANCH   2   3
BRANCH   1   9
ATOM      9  C   UNL     1       6.401   4.650  15.141  0.00  0.00    +0.000 C 
ATOM     10  O   UNL     1       7.413   5.325  15.030  0.00  0.00    +0.000 OA
BRANCH   9  11
ATOM     11  O   UNL     1       5.745   3.997  14.151  0.00  0.00    +0.000 OA
BRANCH  11  12
ATOM     12  C   UNL     1       6.462   3.863  12.914  0.00  0.00    +0.000 C 
BRANCH  12  14
ATOM     13  C   UNL     1       4.412   3.348  11.578  0.00  0.00    +0.000 C 
ATOM     14  C   UNL     1       5.790   2.854  11.993  0.00  0.00    +0.000 C 
ENDBRANCH  12  14
ENDBRANCH  11  12
ENDBRANCH   9  11
ENDBRANCH   1   9
TORSDOF 5
ENDMDL
MODEL 8
REMARK VINA RESULT:      -5.9      1.496      1.820
REMARK  Name = 
REMARK  6 active torsions:
REMARK  status: ('A' for Active; 'I' for Inactive)
REMARK    1  A    between atoms: C_1  and  C_2
REMARK    2  A    between atoms: C_2  and  C_3
REMARK    3  A    between atoms: C_3  and  O_4
REMARK    4  A    between atoms: O_4  and  C_5
REMARK    5  A    between atoms: C_5  and  C_7
REMARK    6  A    between atoms: C_8  and  C_9
REMARK                            x       y       z     vdW  Elec       q    Type
REMARK                         _______ _______ _______ _____ _____    ______ ____
ROOT
ATOM      1  C   UNL     1       4.586   5.346  17.333  0.00  0.00    +0.000 C 
ATOM      2  C   UNL     1       3.476   4.598  17.245  0.00  0.00    +0.000 C 
ENDROOT
BRANCH   2   3
ATOM      3  C   UNL     1       2.622   4.236  18.385  0.00  0.00    +0.000 A 
ATOM      4  C   UNL     1       2.708   4.995  19.560  0.00  0.00    +0.000 A 
ATOM      5  C   UNL     1       1.915   4.688  20.669  0.00  0.00    +0.000 A 
ATOM      6  C   UNL     1       1.014   3.627  20.610  0.00  0.00    +0.000 A 
ATOM      7  C   UNL     1       0.893   2.885  19.438  0.00  0.00    +0.000 A 
ATOM      8  C   UNL     1       1.687   3.193  18.329  0.00  0.00    +0.000 A 
ENDBRANCH   2   3
BRANCH   1   9
ATOM      9  C   UNL     1       5.397   5.605  16.125  0.00  0.00    +0.000 C 
ATOM     10  O   UNL     1       6.119   6.576  15.962  0.00  0.00    +0.000 OA
BRANCH   9  11
ATOM     11  O   UNL     1       5.120   4.636  15.219  0.00  0.00    +0.000 OA
BRANCH  11  12
ATOM     12  C   UNL     1       6.243   3.860  14.777  0.00  0.00    +0.000 C 
BRANCH  12  14
ATOM     13  C   UNL     1       5.774   3.311  12.382  0.00  0.00    +0.000 C 
ATOM     14  C   UNL     1       6.596   4.174  13.329  0.00  0.00    +0.000 C 
ENDBRANCH  12  14
ENDBRANCH  11  12
ENDBRANCH   9  11
ENDBRANCH   1   9
TORSDOF 5
ENDMDL
MODEL 9
REMARK VINA RESULT:      -5.9      1.614      3.027
REMARK  Name = 
REMARK  6 active torsions:
REMARK  status: ('A' for Active; 'I' for Inactive)
REMARK    1  A    between atoms: C_1  and  C_2
REMARK    2  A    between atoms: C_2  and  C_3
REMARK    3  A    between atoms: C_3  and  O_4
REMARK    4  A    between atoms: O_4  and  C_5
REMARK    5  A    between atoms: C_5  and  C_7
REMARK    6  A    between atoms: C_8  and  C_9
REMARK                            x       y       z     vdW  Elec       q    Type
REMARK                         _______ _______ _______ _____ _____    ______ ____
ROOT
ATOM      1  C   UNL     1       5.025   4.375  16.887  0.00  0.00    +0.000 C 
ATOM      2  C   UNL     1       3.748   4.005  16.709  0.00  0.00    +0.000 C 
ENDROOT
BRANCH   2   3
ATOM      3  C   UNL     1       2.789   3.771  17.797  0.00  0.00    +0.000 A 
ATOM      4  C   UNL     1       2.204   2.504  17.922  0.00  0.00    +0.000 A 
ATOM      5  C   UNL     1       1.289   2.235  18.942  0.00  0.00    +0.000 A 
ATOM      6  C   UNL     1       0.958   3.228  19.862  0.00  0.00    +0.000 A 
ATOM      7  C   UNL     1       1.556   4.482  19.772  0.00  0.00    +0.000 A 
ATOM      8  C   UNL     1       2.473   4.750  18.750  0.00  0.00    +0.000 A 
ENDBRANCH   2   3
BRANCH   1   9
ATOM      9  C   UNL     1       5.916   4.532  15.718  0.00  0.00    +0.000 C 
ATOM     10  O   UNL     1       6.132   3.670  14.882  0.00  0.00    +0.000 OA
BRANCH   9  11
ATOM     11  O   UNL     1       6.505   5.751  15.802  0.00  0.00    +0.000 OA
BRANCH  11  12
ATOM     12  C   UNL     1       6.175   6.521  16.967  0.00  0.00    +0.000 C 
BRANCH  12  14
ATOM     13  C   UNL     1       7.815   6.120  18.813  0.00  0.00    +0.000 C 
ATOM     14  C   UNL     1       7.429   7.037  17.661  0.00  0.00    +0.000 C 
ENDBRANCH  12  14
ENDBRANCH  11  12
ENDBRANCH   9  11
ENDBRANCH   1   9
TORSDOF 5
ENDMDL
