MODEL 1
REMARK VINA RESULT:      -6.4      0.000      0.000
REMARK  Name = 
REMARK  4 active torsions:
REMARK  status: ('A' for Active; 'I' for Inactive)
REMARK    1  A    between atoms: C_1  and  C_2
REMARK    2  A    between atoms: C_5  and  N_6
REMARK    3  A    between atoms: N_12  and  C_13
REMARK    4  A    between atoms: C_20  and  C_21
REMARK                            x       y       z     vdW  Elec       q    Type
REMARK                         _______ _______ _______ _____ _____    ______ ____
ROOT
ATOM      1  N   UNL     1       1.124   8.657  19.914  0.00  0.00    +0.000 N 
ATOM      2  C   UNL     1       0.457   8.219  21.159  0.00  0.00    +0.000 C 
ATOM      3  C   UNL     1       0.681   9.240  22.289  0.00  0.00    +0.000 C 
ATOM      4  N   UNL     1       0.320  10.601  21.871  0.00  0.00    +0.000 N 
ATOM      5  C   UNL     1      -0.698  11.255  22.535  0.00  0.00    +0.000 C 
ATOM      6  O   UNL     1      -1.318  10.745  23.465  0.00  0.00    +0.000 OA
ATOM      7  N   UNL     1      -0.994  12.510  22.071  0.00  0.00    +0.000 N 
ATOM      8  C   UNL     1       1.000  11.034  20.640  0.00  0.00    +0.000 C 
ATOM      9  C   UNL     1       0.809  10.034  19.468  0.00  0.00    +0.000 C 
ATOM     10  C   UNL     1      -0.610  10.105  18.901  0.00  0.00    +0.000 C 
ATOM     11  H   UNL     1      -0.214  13.015  21.685  0.00  0.00    +0.000 HD
ENDROOT
BRANCH   1  16
ATOM     12  C   UNL     1       4.981   5.411  17.160  0.00  0.00    +0.000 C 
ATOM     13  C   UNL     1       3.978   6.266  17.872  0.00  0.00    +0.000 A 
ATOM     14  C   UNL     1       3.575   7.496  17.356  0.00  0.00    +0.000 A 
ATOM     15  C   UNL     1       2.632   8.279  18.038  0.00  0.00    +0.000 A 
ATOM     16  C   UNL     1       2.054   7.873  19.252  0.00  0.00    +0.000 A 
ATOM     17  C   UNL     1       2.478   6.632  19.749  0.00  0.00    +0.000 A 
ATOM     18  C   UNL     1       3.422   5.840  19.077  0.00  0.00    +0.000 A 
ENDBRANCH   1  16
BRANCH   7  19
ATOM     19  C   UNL     1      -2.020  13.338  22.703  0.00  0.00    +0.000 C 
ATOM     20  C   UNL     1      -1.404  14.286  23.744  0.00  0.00    +0.000 C 
ATOM     21  C   UNL     1      -0.578  15.402  23.103  0.00  0.00    +0.000 C 
ATOM     22  C   UNL     1      -1.376  16.169  22.052  0.00  0.00    +0.000 C 
ATOM     23  C   UNL     1      -1.986  15.241  21.006  0.00  0.00    +0.000 C 
ATOM     24  C   UNL     1      -2.807  14.124  21.647  0.00  0.00    +0.000 C 
ENDBRANCH   7  19
TORSDOF 2
ENDMDL
MODEL 2
REMARK VINA RESULT:      -6.4      1.806      3.050
REMARK  Name = 
REMARK  4 active torsions:
REMARK  status: ('A' for Active; 'I' for Inactive)
REMARK    1  A    between atoms: C_1  and  C_2
REMARK    2  A    between atoms: C_5  and  N_6
REMARK    3  A    between atoms: N_12  and  C_13
REMARK    4  A    between atoms: C_20  and  C_21
REMARK                            x       y       z     vdW  Elec       q    Type
REMARK                         _______ _______ _______ _____ _____    ______ ____
ROOT
ATOM      1  N   UNL     1       1.628   8.123  20.048  0.00  0.00    +0.000 N 
ATOM      2  C   UNL     1       1.824   9.263  19.127  0.00  0.00    +0.000 C 
ATOM      3  C   UNL     1       0.475   9.907  18.757  0.00  0.00    +0.000 C 
ATOM      4  N   UNL     1      -0.315  10.239  19.950  0.00  0.00    +0.000 N 
ATOM      5  C   UNL     1      -0.634  11.559  20.193  0.00  0.00    +0.000 C 
ATOM      6  O   UNL     1      -0.285  12.474  19.451  0.00  0.00    +0.000 OA
ATOM      7  N   UNL     1      -1.349  11.791  21.339  0.00  0.00    +0.000 N 
ATOM      8  C   UNL     1      -0.517   9.095  20.853  0.00  0.00    +0.000 C 
ATOM      9  C   UNL     1       0.815   8.405  21.254  0.00  0.00    +0.000 C 
ATOM     10  C   UNL     1       1.605   9.258  22.249  0.00  0.00    +0.000 C 
ATOM     11  H   UNL     1      -1.968  11.047  21.612  0.00  0.00    +0.000 HD
ENDROOT
BRANCH   1  16
ATOM     12  C   UNL     1       3.549   2.836  18.885  0.00  0.00    +0.000 C 
ATOM     13  C   UNL     1       3.041   4.211  19.195  0.00  0.00    +0.000 A 
ATOM     14  C   UNL     1       2.298   4.468  20.346  0.00  0.00    +0.000 A 
ATOM     15  C   UNL     1       1.835   5.764  20.620  0.00  0.00    +0.000 A 
ATOM     16  C   UNL     1       2.091   6.850  19.766  0.00  0.00    +0.000 A 
ATOM     17  C   UNL     1       2.840   6.562  18.615  0.00  0.00    +0.000 A 
ATOM     18  C   UNL     1       3.308   5.271  18.330  0.00  0.00    +0.000 A 
ENDBRANCH   1  16
BRANCH   7  19
ATOM     19  C   UNL     1      -1.795  13.136  21.704  0.00  0.00    +0.000 C 
ATOM     20  C   UNL     1      -3.066  13.526  20.934  0.00  0.00    +0.000 C 
ATOM     21  C   UNL     1      -4.296  12.747  21.402  0.00  0.00    +0.000 C 
ATOM     22  C   UNL     1      -4.500  12.857  22.911  0.00  0.00    +0.000 C 
ATOM     23  C   UNL     1      -3.248  12.463  23.689  0.00  0.00    +0.000 C 
ATOM     24  C   UNL     1      -2.019  13.238  23.217  0.00  0.00    +0.000 C 
ENDBRANCH   7  19
TORSDOF 2
ENDMDL
MODEL 3
REMARK VINA RESULT:      -6.4      1.793      2.873
REMARK  Name = 
REMARK  4 active torsions:
REMARK  status: ('A' for Active; 'I' for Inactive)
REMARK    1  A    between atoms: C_1  and  C_2
REMARK    2  A    between atoms: C_5  and  N_6
REMARK    3  A    between atoms: N_12  and  C_13
REMARK    4  A    between atoms: C_20  and  C_21
REMARK                            x       y       z     vdW  Elec       q    Type
REMARK                         _______ _______ _______ _____ _____    ______ ____
ROOT
ATOM      1  N   UNL     1       1.616   8.201  20.006  0.00  0.00    +0.000 N 
ATOM      2  C   UNL     1       1.813   9.361  19.110  0.00  0.00    +0.000 C 
ATOM      3  C   UNL     1       0.464  10.006  18.745  0.00  0.00    +0.000 C 
ATOM      4  N   UNL     1      -0.334  10.311  19.939  0.00  0.00    +0.000 N 
ATOM      5  C   UNL     1      -0.660  11.625  20.207  0.00  0.00    +0.000 C 
ATOM      6  O   UNL     1      -0.310  12.556  19.486  0.00  0.00    +0.000 OA
ATOM      7  N   UNL     1      -1.383  11.831  21.353  0.00  0.00    +0.000 N 
ATOM      8  C   UNL     1      -0.538   9.148  20.818  0.00  0.00    +0.000 C 
ATOM      9  C   UNL     1       0.795   8.456  21.213  0.00  0.00    +0.000 C 
ATOM     10  C   UNL     1       1.575   9.290  22.229  0.00  0.00    +0.000 C 
ATOM     11  H   UNL     1      -2.000  11.079  21.607  0.00  0.00    +0.000 HD
ENDROOT
BRANCH   1  16
ATOM     12  C   UNL     1       3.568   2.952  18.729  0.00  0.00    +0.000 C 
ATOM     13  C   UNL     1       3.065   4.325  19.055  0.00  0.00    +0.000 A 
ATOM     14  C   UNL     1       3.267   5.397  18.188  0.00  0.00    +0.000 A 
ATOM     15  C   UNL     1       2.785   6.675  18.510  0.00  0.00    +0.000 A 
ATOM     16  C   UNL     1       2.086   6.936  19.701  0.00  0.00    +0.000 A 
ATOM     17  C   UNL     1       1.898   5.839  20.555  0.00  0.00    +0.000 A 
ATOM     18  C   UNL     1       2.376   4.557  20.243  0.00  0.00    +0.000 A 
ENDBRANCH   1  16
BRANCH   7  19
ATOM     19  C   UNL     1      -1.837  13.166  21.743  0.00  0.00    +0.000 C 
ATOM     20  C   UNL     1      -3.117  13.558  20.989  0.00  0.00    +0.000 C 
ATOM     21  C   UNL     1      -4.337  12.762  21.455  0.00  0.00    +0.000 C 
ATOM     22  C   UNL     1      -4.530  12.847  22.966  0.00  0.00    +0.000 C 
ATOM     23  C   UNL     1      -3.269  12.451  23.728  0.00  0.00    +0.000 C 
ATOM     24  C   UNL     1      -2.049  13.243  23.259  0.00  0.00    +0.000 C 
ENDBRANCH   7  19
TORSDOF 2
ENDMDL
MODEL 4
REMARK VINA RESULT:      -6.4      0.233      1.022
REMARK  Name = 
REMARK  4 active torsions:
REMARK  status: ('A' for Active; 'I' for Inactive)
REMARK    1  A    between atoms: C_1  and  C_2
REMARK    2  A    between atoms: C_5  and  N_6
REMARK    3  A    between atoms: N_12  and  C_13
REMARK    4  A    between atoms: C_20  and  C_21
REMARK                            x       y       z     vdW  Elec       q    Type
REMARK                         _______ _______ _______ _____ _____    ______ ____
ROOT
ATOM      1  N   UNL     1       1.012   8.815  19.947  0.00  0.00    +0.000 N 
ATOM      2  C   UNL     1       0.291   8.391  21.166  0.00  0.00    +0.000 C 
ATOM      3  C   UNL     1       0.507   9.399  22.310  0.00  0.00    +0.000 C 
ATOM      4  N   UNL     1       0.201  10.772  21.889  0.00  0.00    +0.000 N 
ATOM      5  C   UNL     1      -0.819  11.453  22.522  0.00  0.00    +0.000 C 
ATOM      6  O   UNL     1      -1.484  10.958  23.428  0.00  0.00    +0.000 OA
ATOM      7  N   UNL     1      -1.061  12.719  22.056  0.00  0.00    +0.000 N 
ATOM      8  C   UNL     1       0.935  11.191  20.683  0.00  0.00    +0.000 C 
ATOM      9  C   UNL     1       0.753  10.203  19.499  0.00  0.00    +0.000 C 
ATOM     10  C   UNL     1      -0.643  10.320  18.887  0.00  0.00    +0.000 C 
ATOM     11  H   UNL     1      -0.254  13.202  21.700  0.00  0.00    +0.000 HD
ENDROOT
BRANCH   1  16
ATOM     12  C   UNL     1       4.862   5.458  17.319  0.00  0.00    +0.000 C 
ATOM     13  C   UNL     1       3.855   6.325  18.011  0.00  0.00    +0.000 A 
ATOM     14  C   UNL     1       3.293   5.955  19.231  0.00  0.00    +0.000 A 
ATOM     15  C   UNL     1       2.354   6.784  19.864  0.00  0.00    +0.000 A 
ATOM     16  C   UNL     1       1.939   8.007  19.312  0.00  0.00    +0.000 A 
ATOM     17  C   UNL     1       2.520   8.355  18.084  0.00  0.00    +0.000 A 
ATOM     18  C   UNL     1       3.459   7.534  17.441  0.00  0.00    +0.000 A 
ENDBRANCH   1  16
BRANCH   7  19
ATOM     19  C   UNL     1      -2.082  13.575  22.659  0.00  0.00    +0.000 C 
ATOM     20  C   UNL     1      -1.493  14.424  23.796  0.00  0.00    +0.000 C 
ATOM     21  C   UNL     1      -0.557  15.520  23.282  0.00  0.00    +0.000 C 
ATOM     22  C   UNL     1      -1.226  16.390  22.223  0.00  0.00    +0.000 C 
ATOM     23  C   UNL     1      -1.808  15.560  21.083  0.00  0.00    +0.000 C 
ATOM     24  C   UNL     1      -2.739  14.463  21.596  0.00  0.00    +0.000 C 
ENDBRANCH   7  19
TORSDOF 2
ENDMDL
MODEL 5
REMARK VINA RESULT:      -6.2      2.011      3.231
REMARK  Name = 
REMARK  4 active torsions:
REMARK  status: ('A' for Active; 'I' for Inactive)
REMARK    1  A    between atoms: C_1  and  C_2
REMARK    2  A    between atoms: C_5  and  N_6
REMARK    3  A    between atoms: N_12  and  C_13
REMARK    4  A    between atoms: C_20  and  C_21
REMARK                            x       y       z     vdW  Elec       q    Type
REMARK                         _______ _______ _______ _____ _____    ______ ____
ROOT
ATOM      1  N   UNL     1       0.824  10.054  20.368  0.00  0.00    +0.000 N 
ATOM      2  C   UNL     1       1.312  11.450  20.348  0.00  0.00    +0.000 C 
ATOM      3  C   UNL     1       0.222  12.405  19.829  0.00  0.00    +0.000 C 
ATOM      4  N   UNL     1      -1.044  12.230  20.554  0.00  0.00    +0.000 N 
ATOM      5  C   UNL     1      -1.551  13.291  21.277  0.00  0.00    +0.000 C 
ATOM      6  O   UNL     1      -0.986  14.380  21.340  0.00  0.00    +0.000 OA
ATOM      7  N   UNL     1      -2.720  13.042  21.947  0.00  0.00    +0.000 N 
ATOM      8  C   UNL     1      -1.530  10.841  20.555  0.00  0.00    +0.000 C 
ATOM      9  C   UNL     1      -0.463   9.835  21.067  0.00  0.00    +0.000 C 
ATOM     10  C   UNL     1      -0.280   9.942  22.581  0.00  0.00    +0.000 C 
ATOM     11  H   UNL     1      -3.328  12.374  21.506  0.00  0.00    +0.000 HD
ENDROOT
BRANCH   1  16
ATOM     12  C   UNL     1       3.519   5.797  17.608  0.00  0.00    +0.000 C 
ATOM     13  C   UNL     1       2.812   6.900  18.335  0.00  0.00    +0.000 A 
ATOM     14  C   UNL     1       2.415   6.757  19.663  0.00  0.00    +0.000 A 
ATOM     15  C   UNL     1       1.758   7.805  20.327  0.00  0.00    +0.000 A 
ATOM     16  C   UNL     1       1.473   9.029  19.701  0.00  0.00    +0.000 A 
ATOM     17  C   UNL     1       1.883   9.146  18.365  0.00  0.00    +0.000 A 
ATOM     18  C   UNL     1       2.540   8.105  17.690  0.00  0.00    +0.000 A 
ENDBRANCH   1  16
BRANCH   7  19
ATOM     19  C   UNL     1      -3.397  14.084  22.719  0.00  0.00    +0.000 C 
ATOM     20  C   UNL     1      -4.827  14.313  22.207  0.00  0.00    +0.000 C 
ATOM     21  C   UNL     1      -5.761  13.147  22.537  0.00  0.00    +0.000 C 
ATOM     22  C   UNL     1      -5.747  12.811  24.026  0.00  0.00    +0.000 C 
ATOM     23  C   UNL     1      -4.333  12.571  24.546  0.00  0.00    +0.000 C 
ATOM     24  C   UNL     1      -3.400  13.734  24.212  0.00  0.00    +0.000 C 
ENDBRANCH   7  19
TORSDOF 2
ENDMDL
MODEL 6
REMARK VINA RESULT:      -6.1      2.502      8.482
REMARK  Name = 
REMARK  4 active torsions:
REMARK  status: ('A' for Active; 'I' for Inactive)
REMARK    1  A    between atoms: C_1  and  C_2
REMARK    2  A    between atoms: C_5  and  N_6
REMARK    3  A    between atoms: N_12  and  C_13
REMARK    4  A    between atoms: C_20  and  C_21
REMARK                            x       y       z     vdW  Elec       q    Type
REMARK                         _______ _______ _______ _____ _____    ______ ____
ROOT
ATOM      1  N   UNL     1       0.164  10.207  20.824  0.00  0.00    +0.000 N 
ATOM      2  C   UNL     1       0.326  10.110  19.358  0.00  0.00    +0.000 C 
ATOM      3  C   UNL     1       1.708   9.539  18.995  0.00  0.00    +0.000 C 
ATOM      4  N   UNL     1       1.980   8.282  19.704  0.00  0.00    +0.000 N 
ATOM      5  C   UNL     1       2.171   7.129  18.970  0.00  0.00    +0.000 C 
ATOM      6  O   UNL     1       2.125   7.109  17.743  0.00  0.00    +0.000 OA
ATOM      7  N   UNL     1       2.394   5.993  19.704  0.00  0.00    +0.000 N 
ATOM      8  C   UNL     1       1.832   8.392  21.164  0.00  0.00    +0.000 C 
ATOM      9  C   UNL     1       0.453   8.969  21.584  0.00  0.00    +0.000 C 
ATOM     10  C   UNL     1      -0.664   7.942  21.386  0.00  0.00    +0.000 C 
ATOM     11  H   UNL     1       2.867   6.138  20.579  0.00  0.00    +0.000 HD
ENDROOT
BRANCH   1  16
ATOM     12  C   UNL     1      -1.131  15.136  23.475  0.00  0.00    +0.000 C 
ATOM     13  C   UNL     1      -0.798  13.845  22.792  0.00  0.00    +0.000 A 
ATOM     14  C   UNL     1      -1.396  12.646  23.173  0.00  0.00    +0.000 A 
ATOM     15  C   UNL     1      -1.072  11.448  22.518  0.00  0.00    +0.000 A 
ATOM     16  C   UNL     1      -0.146  11.396  21.462  0.00  0.00    +0.000 A 
ATOM     17  C   UNL     1       0.441  12.617  21.100  0.00  0.00    +0.000 A 
ATOM     18  C   UNL     1       0.126  13.821  21.748  0.00  0.00    +0.000 A 
ENDBRANCH   1  16
BRANCH   7  19
ATOM     19  C   UNL     1       2.656   4.705  19.062  0.00  0.00    +0.000 C 
ATOM     20  C   UNL     1       3.545   3.816  19.945  0.00  0.00    +0.000 C 
ATOM     21  C   UNL     1       2.812   3.303  21.185  0.00  0.00    +0.000 C 
ATOM     22  C   UNL     1       1.504   2.604  20.825  0.00  0.00    +0.000 C 
ATOM     23  C   UNL     1       0.606   3.479  19.956  0.00  0.00    +0.000 C 
ATOM     24  C   UNL     1       1.341   3.995  18.720  0.00  0.00    +0.000 C 
ENDBRANCH   7  19
TORSDOF 2
ENDMDL
MODEL 7
REMARK VINA RESULT:      -6.1      2.022      3.085
REMARK  Name = 
REMARK  4 active torsions:
REMARK  status: ('A' for Active; 'I' for Inactive)
REMARK    1  A    between atoms: C_1  and  C_2
REMARK    2  A    between atoms: C_5  and  N_6
REMARK    3  A    between atoms: N_12  and  C_13
REMARK    4  A    between atoms: C_20  and  C_21
REMARK                            x       y       z     vdW  Elec       q    Type
REMARK                         _______ _______ _______ _____ _____    ______ ____
ROOT
ATOM      1  N   UNL     1       0.923   9.985  19.725  0.00  0.00    +0.000 N 
ATOM      2  C   UNL     1       1.392  11.375  19.541  0.00  0.00    +0.000 C 
ATOM      3  C   UNL     1       0.330  12.219  18.811  0.00  0.00    +0.000 C 
ATOM      4  N   UNL     1      -0.984  12.118  19.460  0.00  0.00    +0.000 N 
ATOM      5  C   UNL     1      -1.559  13.258  19.984  0.00  0.00    +0.000 C 
ATOM      6  O   UNL     1      -1.016  14.359  19.930  0.00  0.00    +0.000 OA
ATOM      7  N   UNL     1      -2.772  13.078  20.595  0.00  0.00    +0.000 N 
ATOM      8  C   UNL     1      -1.448  10.731  19.625  0.00  0.00    +0.000 C 
ATOM      9  C   UNL     1      -0.410   9.835  20.353  0.00  0.00    +0.000 C 
ATOM     10  C   UNL     1      -0.343  10.161  21.845  0.00  0.00    +0.000 C 
ATOM     11  H   UNL     1      -3.336  12.339  20.212  0.00  0.00    +0.000 HD
ENDROOT
BRANCH   1  16
ATOM     12  C   UNL     1       3.877   5.452  17.793  0.00  0.00    +0.000 C 
ATOM     13  C   UNL     1       3.111   6.640  18.289  0.00  0.00    +0.000 A 
ATOM     14  C   UNL     1       2.918   7.766  17.490  0.00  0.00    +0.000 A 
ATOM     15  C   UNL     1       2.194   8.866  17.973  0.00  0.00    +0.000 A 
ATOM     16  C   UNL     1       1.635   8.892  19.262  0.00  0.00    +0.000 A 
ATOM     17  C   UNL     1       1.845   7.747  20.044  0.00  0.00    +0.000 A 
ATOM     18  C   UNL     1       2.567   6.640  19.573  0.00  0.00    +0.000 A 
ENDBRANCH   1  16
BRANCH   7  19
ATOM     19  C   UNL     1      -3.520  14.202  21.158  0.00  0.00    +0.000 C 
ATOM     20  C   UNL     1      -5.020  14.079  20.852  0.00  0.00    +0.000 C 
ATOM     21  C   UNL     1      -5.687  12.950  21.638  0.00  0.00    +0.000 C 
ATOM     22  C   UNL     1      -5.431  13.071  23.138  0.00  0.00    +0.000 C 
ATOM     23  C   UNL     1      -3.944  13.185  23.458  0.00  0.00    +0.000 C 
ATOM     24  C   UNL     1      -3.277  14.310  22.668  0.00  0.00    +0.000 C 
ENDBRANCH   7  19
TORSDOF 2
ENDMDL
MODEL 8
REMARK VINA RESULT:      -6.1      1.093      1.343
REMARK  Name = 
REMARK  4 active torsions:
REMARK  status: ('A' for Active; 'I' for Inactive)
REMARK    1  A    between atoms: C_1  and  C_2
REMARK    2  A    between atoms: C_5  and  N_6
REMARK    3  A    between atoms: N_12  and  C_13
REMARK    4  A    between atoms: C_20  and  C_21
REMARK                            x       y       z     vdW  Elec       q    Type
REMARK                         _______ _______ _______ _____ _____    ______ ____
ROOT
ATOM      1  N   UNL     1       0.425   9.420  20.174  0.00  0.00    +0.000 N 
ATOM      2  C   UNL     1      -0.356   8.963  21.343  0.00  0.00    +0.000 C 
ATOM      3  C   UNL     1      -0.159   9.912  22.539  0.00  0.00    +0.000 C 
ATOM      4  N   UNL     1      -0.411  11.311  22.169  0.00  0.00    +0.000 N 
ATOM      5  C   UNL     1      -1.437  11.992  22.793  0.00  0.00    +0.000 C 
ATOM      6  O   UNL     1      -2.151  11.475  23.649  0.00  0.00    +0.000 OA
ATOM      7  N   UNL     1      -1.626  13.283  22.376  0.00  0.00    +0.000 N 
ATOM      8  C   UNL     1       0.381  11.762  21.014  0.00  0.00    +0.000 C 
ATOM      9  C   UNL     1       0.221  10.834  19.780  0.00  0.00    +0.000 C 
ATOM     10  C   UNL     1      -1.146  11.017  19.119  0.00  0.00    +0.000 C 
ATOM     11  H   UNL     1      -0.794  13.759  22.074  0.00  0.00    +0.000 HD
ENDROOT
BRANCH   1  16
ATOM     12  C   UNL     1       4.284   6.086  17.530  0.00  0.00    +0.000 C 
ATOM     13  C   UNL     1       3.280   6.964  18.213  0.00  0.00    +0.000 A 
ATOM     14  C   UNL     1       2.796   8.121  17.607  0.00  0.00    +0.000 A 
ATOM     15  C   UNL     1       1.853   8.928  18.262  0.00  0.00    +0.000 A 
ATOM     16  C   UNL     1       1.355   8.616  19.539  0.00  0.00    +0.000 A 
ATOM     17  C   UNL     1       1.860   7.446  20.125  0.00  0.00    +0.000 A 
ATOM     18  C   UNL     1       2.803   6.632  19.480  0.00  0.00    +0.000 A 
ENDBRANCH   1  16
BRANCH   7  19
ATOM     19  C   UNL     1      -2.649  14.140  22.978  0.00  0.00    +0.000 C 
ATOM     20  C   UNL     1      -2.208  15.612  22.976  0.00  0.00    +0.000 C 
ATOM     21  C   UNL     1      -2.204  16.220  21.573  0.00  0.00    +0.000 C 
ATOM     22  C   UNL     1      -3.545  16.037  20.868  0.00  0.00    +0.000 C 
ATOM     23  C   UNL     1      -3.990  14.578  20.854  0.00  0.00    +0.000 C 
ATOM     24  C   UNL     1      -3.990  13.970  22.255  0.00  0.00    +0.000 C 
ENDBRANCH   7  19
TORSDOF 2
ENDMDL
MODEL 9
REMARK VINA RESULT:      -6.1      2.414      8.387
REMARK  Name = 
REMARK  4 active torsions:
REMARK  status: ('A' for Active; 'I' for Inactive)
REMARK    1  A    between atoms: C_1  and  C_2
REMARK    2  A    between atoms: C_5  and  N_6
REMARK    3  A    between atoms: N_12  and  C_13
REMARK    4  A    between atoms: C_20  and  C_21
REMARK                            x       y       z     vdW  Elec       q    Type
REMARK                         _______ _______ _______ _____ _____    ______ ____
ROOT
ATOM      1  N   UNL     1       0.055  10.357  21.024  0.00  0.00    +0.000 N 
ATOM      2  C   UNL     1       0.201  10.229  19.558  0.00  0.00    +0.000 C 
ATOM      3  C   UNL     1       1.601   9.703  19.190  0.00  0.00    +0.000 C 
ATOM      4  N   UNL     1       1.932   8.477  19.927  0.00  0.00    +0.000 N 
ATOM      5  C   UNL     1       2.159   7.314  19.219  0.00  0.00    +0.000 C 
ATOM      6  O   UNL     1       2.097   7.261  17.993  0.00  0.00    +0.000 OA
ATOM      7  N   UNL     1       2.436   6.207  19.978  0.00  0.00    +0.000 N 
ATOM      8  C   UNL     1       1.798   8.618  21.386  0.00  0.00    +0.000 C 
ATOM      9  C   UNL     1       0.403   9.150  21.811  0.00  0.00    +0.000 C 
ATOM     10  C   UNL     1      -0.674   8.076  21.654  0.00  0.00    +0.000 C 
ATOM     11  H   UNL     1       2.915   6.393  20.842  0.00  0.00    +0.000 HD
ENDROOT
BRANCH   1  16
ATOM     12  C   UNL     1      -1.384  15.305  23.563  0.00  0.00    +0.000 C 
ATOM     13  C   UNL     1      -1.004  14.020  22.893  0.00  0.00    +0.000 A 
ATOM     14  C   UNL     1      -0.037  13.981  21.890  0.00  0.00    +0.000 A 
ATOM     15  C   UNL     1       0.307  12.767  21.278  0.00  0.00    +0.000 A 
ATOM     16  C   UNL     1      -0.293  11.548  21.637  0.00  0.00    +0.000 A 
ATOM     17  C   UNL     1      -1.263  11.616  22.647  0.00  0.00    +0.000 A 
ATOM     18  C   UNL     1      -1.616  12.825  23.267  0.00  0.00    +0.000 A 
ENDBRANCH   1  16
BRANCH   7  19
ATOM     19  C   UNL     1       2.741   4.914  19.364  0.00  0.00    +0.000 C 
ATOM     20  C   UNL     1       3.491   3.999  20.343  0.00  0.00    +0.000 C 
ATOM     21  C   UNL     1       2.598   3.502  21.481  0.00  0.00    +0.000 C 
ATOM     22  C   UNL     1       1.326   2.839  20.959  0.00  0.00    +0.000 C 
ATOM     23  C   UNL     1       0.565   3.741  19.992  0.00  0.00    +0.000 C 
ATOM     24  C   UNL     1       1.459   4.241  18.859  0.00  0.00    +0.000 C 
ENDBRANCH   7  19
TORSDOF 2
ENDMDL
