MODEL 1
REMARK VINA RESULT:      -9.6      0.000      0.000
REMARK  Name = 
REMARK  5 active torsions:
REMARK  status: ('A' for Active; 'I' for Inactive)
REMARK    1  A    between atoms: C_6  and  N_7
REMARK    2  A    between atoms: C_10  and  C_11
REMARK    3  A    between atoms: C_18  and  S_19
REMARK    4  A    between atoms: S_19  and  C_20
REMARK    5  A    between atoms: C_20  and  C_21
REMARK                            x       y       z     vdW  Elec       q    Type
REMARK                         _______ _______ _______ _____ _____    ______ ____
ROOT
ATOM      1  N   UNL     1       4.299   3.188  18.149  0.00  0.00    +0.000 N 
ATOM      2  C   UNL     1       5.273   3.985  17.517  0.00  0.00    +0.000 A 
ATOM      3  C   UNL     1       5.517   3.814  16.174  0.00  0.00    +0.000 A 
ATOM      4  C   UNL     1       6.462   4.633  15.584  0.00  0.00    +0.000 A 
ATOM      5  N   UNL     1       7.170   5.527  16.305  0.00  0.00    +0.000 NA
ATOM      6  C   UNL     1       6.915   5.589  17.616  0.00  0.00    +0.000 A 
ATOM      7  N   UNL     1       5.991   4.850  18.242  0.00  0.00    +0.000 NA
ATOM      8  H   UNL     1       3.767   2.619  17.500  0.00  0.00    +0.000 HD
ENDROOT
BRANCH   1  14
ATOM      9 CL   UNL     1       1.420   6.481  20.905  0.00  0.00    +0.000 Cl
ATOM     10  C   UNL     1       2.193   4.960  20.686  0.00  0.00    +0.000 A 
ATOM     11  C   UNL     1       2.081   3.977  21.662  0.00  0.00    +0.000 A 
ATOM     12  C   UNL     1       2.716   2.750  21.477  0.00  0.00    +0.000 A 
ATOM     13  C   UNL     1       3.449   2.513  20.311  0.00  0.00    +0.000 A 
ATOM     14  C   UNL     1       3.542   3.484  19.304  0.00  0.00    +0.000 A 
ATOM     15  C   UNL     1       2.919   4.720  19.521  0.00  0.00    +0.000 A 
ENDBRANCH   1  14
BRANCH   4  16
ATOM     16  C   UNL     1       6.753   4.566  14.135  0.00  0.00    +0.000 A 
ATOM     17  C   UNL     1       6.143   3.606  13.303  0.00  0.00    +0.000 A 
ATOM     18  C   UNL     1       6.448   3.516  11.942  0.00  0.00    +0.000 A 
ATOM     19  C   UNL     1       7.362   4.398  11.378  0.00  0.00    +0.000 A 
ATOM     20  C   UNL     1       7.964   5.371  12.172  0.00  0.00    +0.000 A 
ATOM     21  C   UNL     1       7.660   5.454  13.534  0.00  0.00    +0.000 A 
ENDBRANCH   4  16
BRANCH   6  22
ATOM     22  S   UNL     1       7.848   6.735  18.594  0.00  0.00    +0.000 S 
BRANCH  22  23
ATOM     23  C   UNL     1       7.674   8.252  17.591  0.00  0.00    +0.000 C 
BRANCH  23  24
ATOM     24  C   UNL     1       8.412   9.410  18.175  0.00  0.00    +0.000 A 
ATOM     25  N   UNL     1       9.091   9.420  19.304  0.00  0.00    +0.000 NA
ATOM     26  C   UNL     1       9.525  10.711  19.467  0.00  0.00    +0.000 A 
ATOM     27  C   UNL     1      10.255  11.278  20.519  0.00  0.00    +0.000 A 
ATOM     28  C   UNL     1      10.549  12.646  20.471  0.00  0.00    +0.000 A 
ATOM     29  C   UNL     1      10.121  13.431  19.397  0.00  0.00    +0.000 A 
ATOM     30  C   UNL     1       9.403  12.877  18.328  0.00  0.00    +0.000 A 
ATOM     31  C   UNL     1       9.129  11.510  18.398  0.00  0.00    +0.000 A 
ATOM     32  N   UNL     1       8.472  10.643  17.563  0.00  0.00    +0.000 N 
ATOM     33  H   UNL     1       8.034  10.874  16.680  0.00  0.00    +0.000 HD
ENDBRANCH  23  24
ENDBRANCH  22  23
ENDBRANCH   6  22
TORSDOF 5
ENDMDL
MODEL 2
REMARK VINA RESULT:      -9.5      0.138      1.048
REMARK  Name = 
REMARK  5 active torsions:
REMARK  status: ('A' for Active; 'I' for Inactive)
REMARK    1  A    between atoms: C_6  and  N_7
REMARK    2  A    between atoms: C_10  and  C_11
REMARK    3  A    between atoms: C_18  and  S_19
REMARK    4  A    between atoms: S_19  and  C_20
REMARK    5  A    between atoms: C_20  and  C_21
REMARK                            x       y       z     vdW  Elec       q    Type
REMARK                         _______ _______ _______ _____ _____    ______ ____
ROOT
ATOM      1  N   UNL     1       4.253   3.230  18.184  0.00  0.00    +0.000 N 
ATOM      2  C   UNL     1       5.231   4.013  17.541  0.00  0.00    +0.000 A 
ATOM      3  C   UNL     1       5.470   3.824  16.199  0.00  0.00    +0.000 A 
ATOM      4  C   UNL     1       6.420   4.630  15.597  0.00  0.00    +0.000 A 
ATOM      5  N   UNL     1       7.135   5.528  16.306  0.00  0.00    +0.000 NA
ATOM      6  C   UNL     1       6.882   5.607  17.618  0.00  0.00    +0.000 A 
ATOM      7  N   UNL     1       5.956   4.881  18.254  0.00  0.00    +0.000 NA
ATOM      8  H   UNL     1       3.715   2.656  17.543  0.00  0.00    +0.000 HD
ENDROOT
BRANCH   1  14
ATOM      9 CL   UNL     1       1.464   6.598  20.942  0.00  0.00    +0.000 Cl
ATOM     10  C   UNL     1       2.191   5.055  20.719  0.00  0.00    +0.000 A 
ATOM     11  C   UNL     1       2.045   4.072  21.691  0.00  0.00    +0.000 A 
ATOM     12  C   UNL     1       2.643   2.826  21.504  0.00  0.00    +0.000 A 
ATOM     13  C   UNL     1       3.373   2.572  20.340  0.00  0.00    +0.000 A 
ATOM     14  C   UNL     1       3.500   3.543  19.338  0.00  0.00    +0.000 A 
ATOM     15  C   UNL     1       2.914   4.797  19.556  0.00  0.00    +0.000 A 
ENDBRANCH   1  14
BRANCH   4  16
ATOM     16  C   UNL     1       6.706   4.544  14.149  0.00  0.00    +0.000 A 
ATOM     17  C   UNL     1       6.074   3.591  13.326  0.00  0.00    +0.000 A 
ATOM     18  C   UNL     1       6.374   3.483  11.965  0.00  0.00    +0.000 A 
ATOM     19  C   UNL     1       7.307   4.339  11.392  0.00  0.00    +0.000 A 
ATOM     20  C   UNL     1       7.933   5.304  12.177  0.00  0.00    +0.000 A 
ATOM     21  C   UNL     1       7.633   5.406  13.539  0.00  0.00    +0.000 A 
ENDBRANCH   4  16
BRANCH   6  22
ATOM     22  S   UNL     1       7.825   6.758  18.580  0.00  0.00    +0.000 S 
BRANCH  22  23
ATOM     23  C   UNL     1       7.851   8.197  17.453  0.00  0.00    +0.000 C 
BRANCH  23  24
ATOM     24  C   UNL     1       8.367   9.430  18.115  0.00  0.00    +0.000 A 
ATOM     25  N   UNL     1       8.213  10.669  17.697  0.00  0.00    +0.000 NA
ATOM     26  C   UNL     1       8.920  11.450  18.576  0.00  0.00    +0.000 A 
ATOM     27  C   UNL     1       9.122  12.836  18.571  0.00  0.00    +0.000 A 
ATOM     28  C   UNL     1       9.925  13.401  19.569  0.00  0.00    +0.000 A 
ATOM     29  C   UNL     1      10.515  12.599  20.549  0.00  0.00    +0.000 A 
ATOM     30  C   UNL     1      10.311  11.212  20.579  0.00  0.00    +0.000 A 
ATOM     31  C   UNL     1       9.501  10.676  19.576  0.00  0.00    +0.000 A 
ATOM     32  N   UNL     1       9.085   9.401  19.291  0.00  0.00    +0.000 N 
ATOM     33  H   UNL     1       9.322   8.561  19.806  0.00  0.00    +0.000 HD
ENDBRANCH  23  24
ENDBRANCH  22  23
ENDBRANCH   6  22
TORSDOF 5
ENDMDL
MODEL 3
REMARK VINA RESULT:      -9.1      1.866      2.385
REMARK  Name = 
REMARK  5 active torsions:
REMARK  status: ('A' for Active; 'I' for Inactive)
REMARK    1  A    between atoms: C_6  and  N_7
REMARK    2  A    between atoms: C_10  and  C_11
REMARK    3  A    between atoms: C_18  and  S_19
REMARK    4  A    between atoms: S_19  and  C_20
REMARK    5  A    between atoms: C_20  and  C_21
REMARK                            x       y       z     vdW  Elec       q    Type
REMARK                         _______ _______ _______ _____ _____    ______ ____
ROOT
ATOM      1  N   UNL     1       3.203   5.850  17.783  0.00  0.00    +0.000 N 
ATOM      2  C   UNL     1       4.506   5.920  17.253  0.00  0.00    +0.000 A 
ATOM      3  C   UNL     1       4.782   5.299  16.057  0.00  0.00    +0.000 A 
ATOM      4  C   UNL     1       6.066   5.412  15.557  0.00  0.00    +0.000 A 
ATOM      5  N   UNL     1       7.037   6.053  16.241  0.00  0.00    +0.000 NA
ATOM      6  C   UNL     1       6.701   6.577  17.425  0.00  0.00    +0.000 A 
ATOM      7  N   UNL     1       5.470   6.532  17.949  0.00  0.00    +0.000 NA
ATOM      8  H   UNL     1       2.536   5.427  17.148  0.00  0.00    +0.000 HD
ENDROOT
BRANCH   1  14
ATOM      9 CL   UNL     1       1.184  10.516  18.723  0.00  0.00    +0.000 Cl
ATOM     10  C   UNL     1       1.608   8.921  19.210  0.00  0.00    +0.000 A 
ATOM     11  C   UNL     1       1.323   8.490  20.499  0.00  0.00    +0.000 A 
ATOM     12  C   UNL     1       1.676   7.197  20.886  0.00  0.00    +0.000 A 
ATOM     13  C   UNL     1       2.302   6.344  19.973  0.00  0.00    +0.000 A 
ATOM     14  C   UNL     1       2.566   6.756  18.660  0.00  0.00    +0.000 A 
ATOM     15  C   UNL     1       2.227   8.067  18.299  0.00  0.00    +0.000 A 
ENDBRANCH   1  14
BRANCH   4  16
ATOM     16  C   UNL     1       6.445   4.830  14.251  0.00  0.00    +0.000 A 
ATOM     17  C   UNL     1       7.548   5.314  13.519  0.00  0.00    +0.000 A 
ATOM     18  C   UNL     1       7.882   4.792  12.266  0.00  0.00    +0.000 A 
ATOM     19  C   UNL     1       7.126   3.761  11.722  0.00  0.00    +0.000 A 
ATOM     20  C   UNL     1       6.043   3.249  12.431  0.00  0.00    +0.000 A 
ATOM     21  C   UNL     1       5.710   3.777  13.682  0.00  0.00    +0.000 A 
ENDBRANCH   4  16
BRANCH   6  22
ATOM     22  S   UNL     1       7.960   7.401  18.359  0.00  0.00    +0.000 S 
BRANCH  22  23
ATOM     23  C   UNL     1       8.088   8.975  17.438  0.00  0.00    +0.000 C 
BRANCH  23  24
ATOM     24  C   UNL     1       8.676  10.071  18.261  0.00  0.00    +0.000 A 
ATOM     25  N   UNL     1       9.168   9.962  19.478  0.00  0.00    +0.000 NA
ATOM     26  C   UNL     1       9.517  11.235  19.854  0.00  0.00    +0.000 A 
ATOM     27  C   UNL     1      10.049  11.690  21.067  0.00  0.00    +0.000 A 
ATOM     28  C   UNL     1      10.289  13.060  21.223  0.00  0.00    +0.000 A 
ATOM     29  C   UNL     1      10.002  13.957  20.190  0.00  0.00    +0.000 A 
ATOM     30  C   UNL     1       9.485  13.517  18.964  0.00  0.00    +0.000 A 
ATOM     31  C   UNL     1       9.260  12.145  18.834  0.00  0.00    +0.000 A 
ATOM     32  N   UNL     1       8.780  11.369  17.811  0.00  0.00    +0.000 N 
ATOM     33  H   UNL     1       8.476  11.693  16.900  0.00  0.00    +0.000 HD
ENDBRANCH  23  24
ENDBRANCH  22  23
ENDBRANCH   6  22
TORSDOF 5
ENDMDL
MODEL 4
REMARK VINA RESULT:      -9.0      0.874      1.504
REMARK  Name = 
REMARK  5 active torsions:
REMARK  status: ('A' for Active; 'I' for Inactive)
REMARK    1  A    between atoms: C_6  and  N_7
REMARK    2  A    between atoms: C_10  and  C_11
REMARK    3  A    between atoms: C_18  and  S_19
REMARK    4  A    between atoms: S_19  and  C_20
REMARK    5  A    between atoms: C_20  and  C_21
REMARK                            x       y       z     vdW  Elec       q    Type
REMARK                         _______ _______ _______ _____ _____    ______ ____
ROOT
ATOM      1  N   UNL     1       4.042   3.626  17.919  0.00  0.00    +0.000 N 
ATOM      2  C   UNL     1       5.117   4.310  17.320  0.00  0.00    +0.000 A 
ATOM      3  C   UNL     1       5.417   4.070  15.999  0.00  0.00    +0.000 A 
ATOM      4  C   UNL     1       6.463   4.780  15.439  0.00  0.00    +0.000 A 
ATOM      5  N   UNL     1       7.209   5.634  16.171  0.00  0.00    +0.000 NA
ATOM      6  C   UNL     1       6.889   5.765  17.463  0.00  0.00    +0.000 A 
ATOM      7  N   UNL     1       5.870   5.133  18.058  0.00  0.00    +0.000 NA
ATOM      8  H   UNL     1       3.497   3.083  17.259  0.00  0.00    +0.000 HD
ENDROOT
BRANCH   1  14
ATOM      9 CL   UNL     1       1.356   2.458  22.179  0.00  0.00    +0.000 Cl
ATOM     10  C   UNL     1       1.954   3.585  21.025  0.00  0.00    +0.000 A 
ATOM     11  C   UNL     1       1.664   4.937  21.161  0.00  0.00    +0.000 A 
ATOM     12  C   UNL     1       2.148   5.842  20.216  0.00  0.00    +0.000 A 
ATOM     13  C   UNL     1       2.928   5.386  19.150  0.00  0.00    +0.000 A 
ATOM     14  C   UNL     1       3.253   4.029  19.020  0.00  0.00    +0.000 A 
ATOM     15  C   UNL     1       2.736   3.132  19.964  0.00  0.00    +0.000 A 
ENDBRANCH   1  14
BRANCH   4  16
ATOM     16  C   UNL     1       6.825   4.636  14.012  0.00  0.00    +0.000 A 
ATOM     17  C   UNL     1       7.727   5.520  13.385  0.00  0.00    +0.000 A 
ATOM     18  C   UNL     1       8.037   5.409  12.027  0.00  0.00    +0.000 A 
ATOM     19  C   UNL     1       7.461   4.400  11.266  0.00  0.00    +0.000 A 
ATOM     20  C   UNL     1       6.581   3.500  11.862  0.00  0.00    +0.000 A 
ATOM     21  C   UNL     1       6.270   3.617  13.220  0.00  0.00    +0.000 A 
ENDBRANCH   4  16
BRANCH   6  22
ATOM     22  S   UNL     1       7.867   6.858  18.457  0.00  0.00    +0.000 S 
BRANCH  22  23
ATOM     23  C   UNL     1       7.610   8.437  17.574  0.00  0.00    +0.000 C 
BRANCH  23  24
ATOM     24  C   UNL     1       8.396   9.557  18.168  0.00  0.00    +0.000 A 
ATOM     25  N   UNL     1       9.080   9.527  19.293  0.00  0.00    +0.000 NA
ATOM     26  C   UNL     1       9.566  10.798  19.468  0.00  0.00    +0.000 A 
ATOM     27  C   UNL     1      10.323  11.324  20.522  0.00  0.00    +0.000 A 
ATOM     28  C   UNL     1      10.671  12.680  20.489  0.00  0.00    +0.000 A 
ATOM     29  C   UNL     1      10.269  13.493  19.426  0.00  0.00    +0.000 A 
ATOM     30  C   UNL     1       9.524  12.980  18.355  0.00  0.00    +0.000 A 
ATOM     31  C   UNL     1       9.196  11.624  18.411  0.00  0.00    +0.000 A 
ATOM     32  N   UNL     1       8.502  10.794  17.570  0.00  0.00    +0.000 N 
ATOM     33  H   UNL     1       8.069  11.053  16.691  0.00  0.00    +0.000 HD
ENDBRANCH  23  24
ENDBRANCH  22  23
ENDBRANCH   6  22
TORSDOF 5
ENDMDL
MODEL 5
REMARK VINA RESULT:      -9.0      0.522      1.436
REMARK  Name = 
REMARK  5 active torsions:
REMARK  status: ('A' for Active; 'I' for Inactive)
REMARK    1  A    between atoms: C_6  and  N_7
REMARK    2  A    between atoms: C_10  and  C_11
REMARK    3  A    between atoms: C_18  and  S_19
REMARK    4  A    between atoms: S_19  and  C_20
REMARK    5  A    between atoms: C_20  and  C_21
REMARK                            x       y       z     vdW  Elec       q    Type
REMARK                         _______ _______ _______ _____ _____    ______ ____
ROOT
ATOM      1  N   UNL     1       4.165   3.579  18.104  0.00  0.00    +0.000 N 
ATOM      2  C   UNL     1       5.209   4.276  17.466  0.00  0.00    +0.000 A 
ATOM      3  C   UNL     1       5.468   4.032  16.137  0.00  0.00    +0.000 A 
ATOM      4  C   UNL     1       6.484   4.755  15.538  0.00  0.00    +0.000 A 
ATOM      5  N   UNL     1       7.239   5.625  16.241  0.00  0.00    +0.000 NA
ATOM      6  C   UNL     1       6.960   5.760  17.542  0.00  0.00    +0.000 A 
ATOM      7  N   UNL     1       5.972   5.115  18.174  0.00  0.00    +0.000 NA
ATOM      8  H   UNL     1       3.607   3.022  17.466  0.00  0.00    +0.000 HD
ENDROOT
BRANCH   1  14
ATOM      9 CL   UNL     1       1.514   7.196  20.676  0.00  0.00    +0.000 Cl
ATOM     10  C   UNL     1       2.156   5.607  20.525  0.00  0.00    +0.000 A 
ATOM     11  C   UNL     1       1.933   4.670  21.526  0.00  0.00    +0.000 A 
ATOM     12  C   UNL     1       2.462   3.386  21.397  0.00  0.00    +0.000 A 
ATOM     13  C   UNL     1       3.202   3.049  20.260  0.00  0.00    +0.000 A 
ATOM     14  C   UNL     1       3.407   3.976  19.228  0.00  0.00    +0.000 A 
ATOM     15  C   UNL     1       2.889   5.267  19.389  0.00  0.00    +0.000 A 
ENDBRANCH   1  14
BRANCH   4  16
ATOM     16  C   UNL     1       6.800   4.608  14.101  0.00  0.00    +0.000 A 
ATOM     17  C   UNL     1       7.671   5.499  13.441  0.00  0.00    +0.000 A 
ATOM     18  C   UNL     1       7.938   5.384  12.074  0.00  0.00    +0.000 A 
ATOM     19  C   UNL     1       7.350   4.364  11.337  0.00  0.00    +0.000 A 
ATOM     20  C   UNL     1       6.501   3.457  11.967  0.00  0.00    +0.000 A 
ATOM     21  C   UNL     1       6.233   3.578  13.334  0.00  0.00    +0.000 A 
ENDBRANCH   4  16
BRANCH   6  22
ATOM     22  S   UNL     1       7.953   6.874  18.496  0.00  0.00    +0.000 S 
BRANCH  22  23
ATOM     23  C   UNL     1       7.508   8.469  17.722  0.00  0.00    +0.000 C 
BRANCH  23  24
ATOM     24  C   UNL     1       8.405   9.581  18.151  0.00  0.00    +0.000 A 
ATOM     25  N   UNL     1       8.800  10.599  17.416  0.00  0.00    +0.000 NA
ATOM     26  C   UNL     1       9.668  11.313  18.203  0.00  0.00    +0.000 A 
ATOM     27  C   UNL     1      10.406  12.464  17.898  0.00  0.00    +0.000 A 
ATOM     28  C   UNL     1      11.263  12.991  18.872  0.00  0.00    +0.000 A 
ATOM     29  C   UNL     1      11.381  12.380  20.123  0.00  0.00    +0.000 A 
ATOM     30  C   UNL     1      10.639  11.237  20.452  0.00  0.00    +0.000 A 
ATOM     31  C   UNL     1       9.788  10.736  19.464  0.00  0.00    +0.000 A 
ATOM     32  N   UNL     1       8.929   9.669  19.423  0.00  0.00    +0.000 N 
ATOM     33  H   UNL     1       8.758   9.004  20.168  0.00  0.00    +0.000 HD
ENDBRANCH  23  24
ENDBRANCH  22  23
ENDBRANCH   6  22
TORSDOF 5
ENDMDL
MODEL 6
REMARK VINA RESULT:      -8.9      1.688      2.036
REMARK  Name = 
REMARK  5 active torsions:
REMARK  status: ('A' for Active; 'I' for Inactive)
REMARK    1  A    between atoms: C_6  and  N_7
REMARK    2  A    between atoms: C_10  and  C_11
REMARK    3  A    between atoms: C_18  and  S_19
REMARK    4  A    between atoms: S_19  and  C_20
REMARK    5  A    between atoms: C_20  and  C_21
REMARK                            x       y       z     vdW  Elec       q    Type
REMARK                         _______ _______ _______ _____ _____    ______ ____
ROOT
ATOM      1  N   UNL     1       3.284   5.556  17.793  0.00  0.00    +0.000 N 
ATOM      2  C   UNL     1       4.549   5.697  17.190  0.00  0.00    +0.000 A 
ATOM      3  C   UNL     1       4.791   5.085  15.981  0.00  0.00    +0.000 A 
ATOM      4  C   UNL     1       6.036   5.268  15.408  0.00  0.00    +0.000 A 
ATOM      5  N   UNL     1       7.006   5.967  16.034  0.00  0.00    +0.000 NA
ATOM      6  C   UNL     1       6.708   6.478  17.234  0.00  0.00    +0.000 A 
ATOM      7  N   UNL     1       5.514   6.366  17.828  0.00  0.00    +0.000 NA
ATOM      8  H   UNL     1       2.607   5.092  17.198  0.00  0.00    +0.000 HD
ENDROOT
BRANCH   1  14
ATOM      9 CL   UNL     1       1.310  10.200  18.919  0.00  0.00    +0.000 Cl
ATOM     10  C   UNL     1       1.709   8.579  19.338  0.00  0.00    +0.000 A 
ATOM     11  C   UNL     1       1.402   8.094  20.603  0.00  0.00    +0.000 A 
ATOM     12  C   UNL     1       1.734   6.781  20.935  0.00  0.00    +0.000 A 
ATOM     13  C   UNL     1       2.361   5.962  19.993  0.00  0.00    +0.000 A 
ATOM     14  C   UNL     1       2.647   6.429  18.702  0.00  0.00    +0.000 A 
ATOM     15  C   UNL     1       2.329   7.759  18.397  0.00  0.00    +0.000 A 
ENDBRANCH   1  14
BRANCH   4  16
ATOM     16  C   UNL     1       6.373   4.701  14.084  0.00  0.00    +0.000 A 
ATOM     17  C   UNL     1       5.607   3.669  13.506  0.00  0.00    +0.000 A 
ATOM     18  C   UNL     1       5.949   3.104  12.274  0.00  0.00    +0.000 A 
ATOM     19  C   UNL     1       7.060   3.572  11.583  0.00  0.00    +0.000 A 
ATOM     20  C   UNL     1       7.824   4.605  12.121  0.00  0.00    +0.000 A 
ATOM     21  C   UNL     1       7.481   5.163  13.356  0.00  0.00    +0.000 A 
ENDBRANCH   4  16
BRANCH   6  22
ATOM     22  S   UNL     1       7.970   7.378  18.093  0.00  0.00    +0.000 S 
BRANCH  22  23
ATOM     23  C   UNL     1       7.510   9.094  17.666  0.00  0.00    +0.000 C 
BRANCH  23  24
ATOM     24  C   UNL     1       8.479  10.094  18.199  0.00  0.00    +0.000 A 
ATOM     25  N   UNL     1       9.260   9.948  19.249  0.00  0.00    +0.000 NA
ATOM     26  C   UNL     1       9.911  11.147  19.400  0.00  0.00    +0.000 A 
ATOM     27  C   UNL     1      10.825  11.546  20.383  0.00  0.00    +0.000 A 
ATOM     28  C   UNL     1      11.329  12.852  20.341  0.00  0.00    +0.000 A 
ATOM     29  C   UNL     1      10.927  13.740  19.340  0.00  0.00    +0.000 A 
ATOM     30  C   UNL     1      10.025  13.353  18.338  0.00  0.00    +0.000 A 
ATOM     31  C   UNL     1       9.543  12.044  18.401  0.00  0.00    +0.000 A 
ATOM     32  N   UNL     1       8.675  11.328  17.617  0.00  0.00    +0.000 N 
ATOM     33  H   UNL     1       8.193  11.664  16.792  0.00  0.00    +0.000 HD
ENDBRANCH  23  24
ENDBRANCH  22  23
ENDBRANCH   6  22
TORSDOF 5
ENDMDL
MODEL 7
REMARK VINA RESULT:      -8.9      2.223      6.262
REMARK  Name = 
REMARK  5 active torsions:
REMARK  status: ('A' for Active; 'I' for Inactive)
REMARK    1  A    between atoms: C_6  and  N_7
REMARK    2  A    between atoms: C_10  and  C_11
REMARK    3  A    between atoms: C_18  and  S_19
REMARK    4  A    between atoms: S_19  and  C_20
REMARK    5  A    between atoms: C_20  and  C_21
REMARK                            x       y       z     vdW  Elec       q    Type
REMARK                         _______ _______ _______ _____ _____    ______ ____
ROOT
ATOM      1  N   UNL     1       4.683   4.409  15.079  0.00  0.00    +0.000 N 
ATOM      2  C   UNL     1       4.894   4.582  16.461  0.00  0.00    +0.000 A 
ATOM      3  C   UNL     1       3.947   4.128  17.349  0.00  0.00    +0.000 A 
ATOM      4  C   UNL     1       4.203   4.293  18.699  0.00  0.00    +0.000 A 
ATOM      5  N   UNL     1       5.308   4.933  19.135  0.00  0.00    +0.000 NA
ATOM      6  C   UNL     1       6.149   5.398  18.203  0.00  0.00    +0.000 A 
ATOM      7  N   UNL     1       5.977   5.242  16.885  0.00  0.00    +0.000 NA
ATOM      8  H   UNL     1       3.872   3.838  14.868  0.00  0.00    +0.000 HD
ENDROOT
BRANCH   1  14
ATOM      9 CL   UNL     1       9.099   6.013  12.921  0.00  0.00    +0.000 Cl
ATOM     10  C   UNL     1       7.700   5.012  12.947  0.00  0.00    +0.000 A 
ATOM     11  C   UNL     1       7.493   4.082  11.936  0.00  0.00    +0.000 A 
ATOM     12  C   UNL     1       6.353   3.280  11.963  0.00  0.00    +0.000 A 
ATOM     13  C   UNL     1       5.434   3.409  13.008  0.00  0.00    +0.000 A 
ATOM     14  C   UNL     1       5.648   4.321  14.051  0.00  0.00    +0.000 A 
ATOM     15  C   UNL     1       6.786   5.136  13.992  0.00  0.00    +0.000 A 
ENDBRANCH   1  14
BRANCH   4  16
ATOM     16  C   UNL     1       3.276   3.786  19.733  0.00  0.00    +0.000 A 
ATOM     17  C   UNL     1       3.647   2.750  20.615  0.00  0.00    +0.000 A 
ATOM     18  C   UNL     1       2.758   2.242  21.565  0.00  0.00    +0.000 A 
ATOM     19  C   UNL     1       1.476   2.771  21.666  0.00  0.00    +0.000 A 
ATOM     20  C   UNL     1       1.088   3.808  20.822  0.00  0.00    +0.000 A 
ATOM     21  C   UNL     1       1.980   4.310  19.869  0.00  0.00    +0.000 A 
ENDBRANCH   4  16
BRANCH   6  22
ATOM     22  S   UNL     1       7.594   6.267  18.745  0.00  0.00    +0.000 S 
BRANCH  22  23
ATOM     23  C   UNL     1       7.719   7.552  17.451  0.00  0.00    +0.000 C 
BRANCH  23  24
ATOM     24  C   UNL     1       8.225   8.850  17.984  0.00  0.00    +0.000 A 
ATOM     25  N   UNL     1       8.085  10.035  17.427  0.00  0.00    +0.000 NA
ATOM     26  C   UNL     1       8.776  10.908  18.229  0.00  0.00    +0.000 A 
ATOM     27  C   UNL     1       8.984  12.284  18.076  0.00  0.00    +0.000 A 
ATOM     28  C   UNL     1       9.766  12.956  19.023  0.00  0.00    +0.000 A 
ATOM     29  C   UNL     1      10.330  12.266  20.100  0.00  0.00    +0.000 A 
ATOM     30  C   UNL     1      10.120  10.892  20.278  0.00  0.00    +0.000 A 
ATOM     31  C   UNL     1       9.332  10.249  19.322  0.00  0.00    +0.000 A 
ATOM     32  N   UNL     1       8.917   8.951  19.171  0.00  0.00    +0.000 N 
ATOM     33  H   UNL     1       9.139   8.173  19.781  0.00  0.00    +0.000 HD
ENDBRANCH  23  24
ENDBRANCH  22  23
ENDBRANCH   6  22
TORSDOF 5
ENDMDL
MODEL 8
REMARK VINA RESULT:      -8.9      1.903      2.624
REMARK  Name = 
REMARK  5 active torsions:
REMARK  status: ('A' for Active; 'I' for Inactive)
REMARK    1  A    between atoms: C_6  and  N_7
REMARK    2  A    between atoms: C_10  and  C_11
REMARK    3  A    between atoms: C_18  and  S_19
REMARK    4  A    between atoms: S_19  and  C_20
REMARK    5  A    between atoms: C_20  and  C_21
REMARK                            x       y       z     vdW  Elec       q    Type
REMARK                         _______ _______ _______ _____ _____    ______ ____
ROOT
ATOM      1  N   UNL     1       3.290   5.786  17.720  0.00  0.00    +0.000 N 
ATOM      2  C   UNL     1       4.569   5.885  17.139  0.00  0.00    +0.000 A 
ATOM      3  C   UNL     1       4.826   5.226  15.959  0.00  0.00    +0.000 A 
ATOM      4  C   UNL     1       6.086   5.369  15.406  0.00  0.00    +0.000 A 
ATOM      5  N   UNL     1       7.053   6.077  16.026  0.00  0.00    +0.000 NA
ATOM      6  C   UNL     1       6.739   6.636  17.200  0.00  0.00    +0.000 A 
ATOM      7  N   UNL     1       5.531   6.564  17.773  0.00  0.00    +0.000 NA
ATOM      8  H   UNL     1       2.618   5.310  17.128  0.00  0.00    +0.000 HD
ENDROOT
BRANCH   1  14
ATOM      9 CL   UNL     1       1.237  10.450  18.588  0.00  0.00    +0.000 Cl
ATOM     10  C   UNL     1       1.675   8.867  19.100  0.00  0.00    +0.000 A 
ATOM     11  C   UNL     1       1.396   8.456  20.398  0.00  0.00    +0.000 A 
ATOM     12  C   UNL     1       1.761   7.173  20.805  0.00  0.00    +0.000 A 
ATOM     13  C   UNL     1       2.391   6.309  19.905  0.00  0.00    +0.000 A 
ATOM     14  C   UNL     1       2.648   6.701  18.584  0.00  0.00    +0.000 A 
ATOM     15  C   UNL     1       2.298   8.003  18.202  0.00  0.00    +0.000 A 
ENDBRANCH   1  14
BRANCH   4  16
ATOM     16  C   UNL     1       6.441   4.750  14.111  0.00  0.00    +0.000 A 
ATOM     17  C   UNL     1       7.517   5.225  13.334  0.00  0.00    +0.000 A 
ATOM     18  C   UNL     1       7.827   4.666  12.091  0.00  0.00    +0.000 A 
ATOM     19  C   UNL     1       7.074   3.605  11.602  0.00  0.00    +0.000 A 
ATOM     20  C   UNL     1       6.018   3.102  12.357  0.00  0.00    +0.000 A 
ATOM     21  C   UNL     1       5.708   3.667  13.597  0.00  0.00    +0.000 A 
ENDBRANCH   4  16
BRANCH   6  22
ATOM     22  S   UNL     1       7.997   7.548  18.052  0.00  0.00    +0.000 S 
BRANCH  22  23
ATOM     23  C   UNL     1       7.434   9.260  17.750  0.00  0.00    +0.000 C 
BRANCH  23  24
ATOM     24  C   UNL     1       8.447  10.275  18.164  0.00  0.00    +0.000 A 
ATOM     25  N   UNL     1       8.639  11.459  17.622  0.00  0.00    +0.000 NA
ATOM     26  C   UNL     1       9.717  11.999  18.277  0.00  0.00    +0.000 A 
ATOM     27  C   UNL     1      10.365  13.222  18.067  0.00  0.00    +0.000 A 
ATOM     28  C   UNL     1      11.482  13.534  18.851  0.00  0.00    +0.000 A 
ATOM     29  C   UNL     1      11.943  12.642  19.822  0.00  0.00    +0.000 A 
ATOM     30  C   UNL     1      11.298  11.420  20.057  0.00  0.00    +0.000 A 
ATOM     31  C   UNL     1      10.184  11.137  19.265  0.00  0.00    +0.000 A 
ATOM     32  N   UNL     1       9.321  10.073  19.210  0.00  0.00    +0.000 N 
ATOM     33  H   UNL     1       9.356   9.239  19.784  0.00  0.00    +0.000 HD
ENDBRANCH  23  24
ENDBRANCH  22  23
ENDBRANCH   6  22
TORSDOF 5
ENDMDL
MODEL 9
REMARK VINA RESULT:      -8.9      0.890      1.620
REMARK  Name = 
REMARK  5 active torsions:
REMARK  status: ('A' for Active; 'I' for Inactive)
REMARK    1  A    between atoms: C_6  and  N_7
REMARK    2  A    between atoms: C_10  and  C_11
REMARK    3  A    between atoms: C_18  and  S_19
REMARK    4  A    between atoms: S_19  and  C_20
REMARK    5  A    between atoms: C_20  and  C_21
REMARK                            x       y       z     vdW  Elec       q    Type
REMARK                         _______ _______ _______ _____ _____    ______ ____
ROOT
ATOM      1  N   UNL     1       3.965   3.588  17.930  0.00  0.00    +0.000 N 
ATOM      2  C   UNL     1       5.036   4.278  17.332  0.00  0.00    +0.000 A 
ATOM      3  C   UNL     1       5.334   4.044  16.009  0.00  0.00    +0.000 A 
ATOM      4  C   UNL     1       6.377   4.760  15.450  0.00  0.00    +0.000 A 
ATOM      5  N   UNL     1       7.122   5.612  16.184  0.00  0.00    +0.000 NA
ATOM      6  C   UNL     1       6.805   5.737  17.478  0.00  0.00    +0.000 A 
ATOM      7  N   UNL     1       5.789   5.100  18.072  0.00  0.00    +0.000 NA
ATOM      8  H   UNL     1       3.419   3.047  17.268  0.00  0.00    +0.000 HD
ENDROOT
BRANCH   1  14
ATOM      9 CL   UNL     1       1.308   2.397  22.202  0.00  0.00    +0.000 Cl
ATOM     10  C   UNL     1       1.890   3.529  21.045  0.00  0.00    +0.000 A 
ATOM     11  C   UNL     1       1.589   4.878  21.182  0.00  0.00    +0.000 A 
ATOM     12  C   UNL     1       2.061   5.787  20.236  0.00  0.00    +0.000 A 
ATOM     13  C   UNL     1       2.840   5.338  19.166  0.00  0.00    +0.000 A 
ATOM     14  C   UNL     1       3.177   3.984  19.034  0.00  0.00    +0.000 A 
ATOM     15  C   UNL     1       2.672   3.083  19.981  0.00  0.00    +0.000 A 
ENDBRANCH   1  14
BRANCH   4  16
ATOM     16  C   UNL     1       6.736   4.624  14.022  0.00  0.00    +0.000 A 
ATOM     17  C   UNL     1       6.170   3.619  13.210  0.00  0.00    +0.000 A 
ATOM     18  C   UNL     1       6.540   3.464  11.871  0.00  0.00    +0.000 A 
ATOM     19  C   UNL     1       7.475   4.323  11.308  0.00  0.00    +0.000 A 
ATOM     20  C   UNL     1       8.036   5.337  12.080  0.00  0.00    +0.000 A 
ATOM     21  C   UNL     1       7.667   5.486  13.420  0.00  0.00    +0.000 A 
ENDBRANCH   4  16
BRANCH   6  22
ATOM     22  S   UNL     1       7.782   6.828  18.475  0.00  0.00    +0.000 S 
BRANCH  22  23
ATOM     23  C   UNL     1       7.883   8.286  17.378  0.00  0.00    +0.000 C 
BRANCH  23  24
ATOM     24  C   UNL     1       8.406   9.493  18.081  0.00  0.00    +0.000 A 
ATOM     25  N   UNL     1       8.364  10.736  17.646  0.00  0.00    +0.000 NA
ATOM     26  C   UNL     1       9.030  11.482  18.584  0.00  0.00    +0.000 A 
ATOM     27  C   UNL     1       9.312  12.854  18.594  0.00  0.00    +0.000 A 
ATOM     28  C   UNL     1      10.050  13.381  19.661  0.00  0.00    +0.000 A 
ATOM     29  C   UNL     1      10.499  12.555  20.695  0.00  0.00    +0.000 A 
ATOM     30  C   UNL     1      10.212  11.182  20.710  0.00  0.00    +0.000 A 
ATOM     31  C   UNL     1       9.470  10.685  19.637  0.00  0.00    +0.000 A 
ATOM     32  N   UNL     1       9.009   9.434  19.319  0.00  0.00    +0.000 N 
ATOM     33  H   UNL     1       9.148   8.586  19.856  0.00  0.00    +0.000 HD
ENDBRANCH  23  24
ENDBRANCH  22  23
ENDBRANCH   6  22
TORSDOF 5
ENDMDL
