MODEL 1
REMARK VINA RESULT:      -7.7      0.000      0.000
REMARK  Name = 
REMARK  4 active torsions:
REMARK  status: ('A' for Active; 'I' for Inactive)
REMARK    1  A    between atoms: C_1  and  C_2
REMARK    2  A    between atoms: C_2  and  S_3
REMARK    3  A    between atoms: S_3  and  C_6
REMARK    4  A    between atoms: C_11  and  C_13
REMARK                            x       y       z     vdW  Elec       q    Type
REMARK                         _______ _______ _______ _____ _____    ______ ____
ROOT
ATOM      1  C   UNL     1       0.378  10.301  21.581  0.00  0.00    +0.000 A 
ATOM      2  N   UNL     1       0.892   9.530  22.519  0.00  0.00    +0.000 NA
ATOM      3  N   UNL     1       1.593   8.471  21.965  0.00  0.00    +0.000 NA
ATOM      4  C   UNL     1       1.583   8.499  20.649  0.00  0.00    +0.000 A 
ATOM      5  N   UNL     1       2.249   7.565  19.890  0.00  0.00    +0.000 N 
ATOM      6  C   UNL     1       2.377   7.560  18.513  0.00  0.00    +0.000 C 
ATOM      7  O   UNL     1       1.911   8.390  17.744  0.00  0.00    +0.000 OA
ATOM      8  S   UNL     1       0.661   9.768  19.985  0.00  0.00    +0.000 S 
ATOM      9  H   UNL     1       2.749   6.886  20.449  0.00  0.00    +0.000 HD
ENDROOT
BRANCH   6  10
ATOM     10  C   UNL     1       3.162   6.412  17.959  0.00  0.00    +0.000 A 
ATOM     11  C   UNL     1       4.388   6.694  17.346  0.00  0.00    +0.000 A 
ATOM     12  C   UNL     1       5.117   5.643  16.839  0.00  0.00    +0.000 A 
ATOM     13  N   UNL     1       4.721   4.361  16.912  0.00  0.00    +0.000 NA
ATOM     14  C   UNL     1       3.561   4.075  17.525  0.00  0.00    +0.000 A 
ATOM     15  C   UNL     1       3.195   2.738  17.605  0.00  0.00    +0.000 A 
ATOM     16  C   UNL     1       2.012   2.330  18.218  0.00  0.00    +0.000 A 
ATOM     17  C   UNL     1       1.165   3.281  18.762  0.00  0.00    +0.000 A 
ATOM     18  C   UNL     1       1.507   4.633  18.689  0.00  0.00    +0.000 A 
ATOM     19  C   UNL     1       2.716   5.065  18.078  0.00  0.00    +0.000 A 
ENDBRANCH   6  10
BRANCH   1  20
ATOM     20  S   UNL     1      -0.528  11.788  21.847  0.00  0.00    +0.000 S 
ATOM     21  O   UNL     1       0.427  12.874  21.872  0.00  0.00    +0.000 OA
ATOM     22  O   UNL     1      -1.407  11.519  22.970  0.00  0.00    +0.000 OA
BRANCH  20  24
ATOM     23  C   UNL     1      -2.808  12.676  20.654  0.00  0.00    +0.000 C 
ATOM     24  C   UNL     1      -1.511  11.945  20.367  0.00  0.00    +0.000 C 
ENDBRANCH  20  24
ENDBRANCH   1  20
TORSDOF 3
ENDMDL
MODEL 2
REMARK VINA RESULT:      -7.7      1.440      1.556
REMARK  Name = 
REMARK  4 active torsions:
REMARK  status: ('A' for Active; 'I' for Inactive)
REMARK    1  A    between atoms: C_1  and  C_2
REMARK    2  A    between atoms: C_2  and  S_3
REMARK    3  A    between atoms: S_3  and  C_6
REMARK    4  A    between atoms: C_11  and  C_13
REMARK                            x       y       z     vdW  Elec       q    Type
REMARK                         _______ _______ _______ _____ _____    ______ ____
ROOT
ATOM      1  C   UNL     1      -0.007  10.703  21.858  0.00  0.00    +0.000 A 
ATOM      2  N   UNL     1       0.428  10.064  22.926  0.00  0.00    +0.000 NA
ATOM      3  N   UNL     1       1.137   8.927  22.572  0.00  0.00    +0.000 NA
ATOM      4  C   UNL     1       1.211   8.771  21.267  0.00  0.00    +0.000 A 
ATOM      5  N   UNL     1       1.901   7.731  20.690  0.00  0.00    +0.000 N 
ATOM      6  C   UNL     1       2.116   7.531  19.338  0.00  0.00    +0.000 C 
ATOM      7  O   UNL     1       1.720   8.253  18.432  0.00  0.00    +0.000 OA
ATOM      8  S   UNL     1       0.363   9.949  20.374  0.00  0.00    +0.000 S 
ATOM      9  H   UNL     1       2.348   7.130  21.369  0.00  0.00    +0.000 HD
ENDROOT
BRANCH   6  10
ATOM     10  C   UNL     1       2.907   6.306  19.001  0.00  0.00    +0.000 A 
ATOM     11  C   UNL     1       4.059   6.465  18.223  0.00  0.00    +0.000 A 
ATOM     12  C   UNL     1       4.794   5.344  17.915  0.00  0.00    +0.000 A 
ATOM     13  N   UNL     1       4.471   4.106  18.330  0.00  0.00    +0.000 NA
ATOM     14  C   UNL     1       3.385   3.946  19.103  0.00  0.00    +0.000 A 
ATOM     15  C   UNL     1       3.095   2.658  19.535  0.00  0.00    +0.000 A 
ATOM     16  C   UNL     1       1.991   2.378  20.338  0.00  0.00    +0.000 A 
ATOM     17  C   UNL     1       1.147   3.409  20.718  0.00  0.00    +0.000 A 
ATOM     18  C   UNL     1       1.414   4.711  20.292  0.00  0.00    +0.000 A 
ATOM     19  C   UNL     1       2.542   5.015  19.481  0.00  0.00    +0.000 A 
ENDBRANCH   6  10
BRANCH   1  20
ATOM     20  S   UNL     1      -0.893  12.226  21.855  0.00  0.00    +0.000 S 
ATOM     21  O   UNL     1      -1.611  12.302  20.601  0.00  0.00    +0.000 OA
ATOM     22  O   UNL     1       0.068  13.242  22.246  0.00  0.00    +0.000 OA
BRANCH  20  24
ATOM     23  C   UNL     1      -3.234  12.992  23.013  0.00  0.00    +0.000 C 
ATOM     24  C   UNL     1      -2.083  12.017  23.167  0.00  0.00    +0.000 C 
ENDBRANCH  20  24
ENDBRANCH   1  20
TORSDOF 3
ENDMDL
MODEL 3
REMARK VINA RESULT:      -7.6      3.329      7.918
REMARK  Name = 
REMARK  4 active torsions:
REMARK  status: ('A' for Active; 'I' for Inactive)
REMARK    1  A    between atoms: C_1  and  C_2
REMARK    2  A    between atoms: C_2  and  S_3
REMARK    3  A    between atoms: S_3  and  C_6
REMARK    4  A    between atoms: C_11  and  C_13
REMARK                            x       y       z     vdW  Elec       q    Type
REMARK                         _______ _______ _______ _____ _____    ______ ____
ROOT
ATOM      1  C   UNL     1       3.916   5.629  18.558  0.00  0.00    +0.000 A 
ATOM      2  N   UNL     1       3.285   5.304  19.669  0.00  0.00    +0.000 NA
ATOM      3  N   UNL     1       2.396   6.296  20.047  0.00  0.00    +0.000 NA
ATOM      4  C   UNL     1       2.390   7.308  19.205  0.00  0.00    +0.000 A 
ATOM      5  N   UNL     1       1.554   8.389  19.362  0.00  0.00    +0.000 N 
ATOM      6  C   UNL     1       1.405   9.452  18.489  0.00  0.00    +0.000 C 
ATOM      7  O   UNL     1       2.002   9.603  17.431  0.00  0.00    +0.000 OA
ATOM      8  S   UNL     1       3.516   7.166  17.935  0.00  0.00    +0.000 S 
ATOM      9  H   UNL     1       0.948   8.305  20.167  0.00  0.00    +0.000 HD
ENDROOT
BRANCH   6  10
ATOM     10  C   UNL     1       0.416  10.489  18.923  0.00  0.00    +0.000 A 
ATOM     11  C   UNL     1       0.824  11.419  19.885  0.00  0.00    +0.000 A 
ATOM     12  C   UNL     1      -0.078  12.377  20.284  0.00  0.00    +0.000 A 
ATOM     13  N   UNL     1      -1.325  12.475  19.792  0.00  0.00    +0.000 NA
ATOM     14  C   UNL     1      -1.717  11.607  18.846  0.00  0.00    +0.000 A 
ATOM     15  C   UNL     1      -3.003  11.752  18.342  0.00  0.00    +0.000 A 
ATOM     16  C   UNL     1      -3.513  10.905  17.359  0.00  0.00    +0.000 A 
ATOM     17  C   UNL     1      -2.722   9.879  16.869  0.00  0.00    +0.000 A 
ATOM     18  C   UNL     1      -1.428   9.707  17.365  0.00  0.00    +0.000 A 
ATOM     19  C   UNL     1      -0.889  10.570  18.358  0.00  0.00    +0.000 A 
ENDBRANCH   6  10
BRANCH   1  20
ATOM     20  S   UNL     1       5.081   4.625  17.699  0.00  0.00    +0.000 S 
ATOM     21  O   UNL     1       4.328   3.684  16.899  0.00  0.00    +0.000 OA
ATOM     22  O   UNL     1       6.035   4.183  18.700  0.00  0.00    +0.000 OA
BRANCH  20  24
ATOM     23  C   UNL     1       5.596   5.427  15.150  0.00  0.00    +0.000 C 
ATOM     24  C   UNL     1       5.886   5.774  16.597  0.00  0.00    +0.000 C 
ENDBRANCH  20  24
ENDBRANCH   1  20
TORSDOF 3
ENDMDL
MODEL 4
REMARK VINA RESULT:      -7.6      0.933      1.011
REMARK  Name = 
REMARK  4 active torsions:
REMARK  status: ('A' for Active; 'I' for Inactive)
REMARK    1  A    between atoms: C_1  and  C_2
REMARK    2  A    between atoms: C_2  and  S_3
REMARK    3  A    between atoms: S_3  and  C_6
REMARK    4  A    between atoms: C_11  and  C_13
REMARK                            x       y       z     vdW  Elec       q    Type
REMARK                         _______ _______ _______ _____ _____    ______ ____
ROOT
ATOM      1  C   UNL     1       0.407  10.365  21.315  0.00  0.00    +0.000 A 
ATOM      2  N   UNL     1       0.836   9.623  22.316  0.00  0.00    +0.000 NA
ATOM      3  N   UNL     1       1.526   8.514  21.855  0.00  0.00    +0.000 NA
ATOM      4  C   UNL     1       1.594   8.479  20.541  0.00  0.00    +0.000 A 
ATOM      5  N   UNL     1       2.266   7.486  19.867  0.00  0.00    +0.000 N 
ATOM      6  C   UNL     1       2.473   7.410  18.501  0.00  0.00    +0.000 C 
ATOM      7  O   UNL     1       2.086   8.218  17.668  0.00  0.00    +0.000 OA
ATOM      8  S   UNL     1       0.762   9.747  19.765  0.00  0.00    +0.000 S 
ATOM      9  H   UNL     1       2.706   6.817  20.485  0.00  0.00    +0.000 HD
ENDROOT
BRANCH   6  10
ATOM     10  C   UNL     1       3.245   6.209  18.048  0.00  0.00    +0.000 A 
ATOM     11  C   UNL     1       4.520   6.416  17.511  0.00  0.00    +0.000 A 
ATOM     12  C   UNL     1       5.236   5.317  17.098  0.00  0.00    +0.000 A 
ATOM     13  N   UNL     1       4.781   4.055  17.194  0.00  0.00    +0.000 NA
ATOM     14  C   UNL     1       3.572   3.842  17.736  0.00  0.00    +0.000 A 
ATOM     15  C   UNL     1       3.144   2.525  17.843  0.00  0.00    +0.000 A 
ATOM     16  C   UNL     1       1.905   2.191  18.387  0.00  0.00    +0.000 A 
ATOM     17  C   UNL     1       1.065   3.198  18.834  0.00  0.00    +0.000 A 
ATOM     18  C   UNL     1       1.469   4.530  18.731  0.00  0.00    +0.000 A 
ATOM     19  C   UNL     1       2.734   4.887  18.189  0.00  0.00    +0.000 A 
ENDBRANCH   6  10
BRANCH   1  20
ATOM     20  S   UNL     1      -0.455  11.895  21.457  0.00  0.00    +0.000 S 
ATOM     21  O   UNL     1      -0.412  12.283  22.850  0.00  0.00    +0.000 OA
ATOM     22  O   UNL     1      -1.712  11.706  20.756  0.00  0.00    +0.000 OA
BRANCH  20  24
ATOM     23  C   UNL     1      -0.157  13.501  19.280  0.00  0.00    +0.000 C 
ATOM     24  C   UNL     1       0.561  13.031  20.531  0.00  0.00    +0.000 C 
ENDBRANCH  20  24
ENDBRANCH   1  20
TORSDOF 3
ENDMDL
MODEL 5
REMARK VINA RESULT:      -7.6      3.405      8.017
REMARK  Name = 
REMARK  4 active torsions:
REMARK  status: ('A' for Active; 'I' for Inactive)
REMARK    1  A    between atoms: C_1  and  C_2
REMARK    2  A    between atoms: C_2  and  S_3
REMARK    3  A    between atoms: S_3  and  C_6
REMARK    4  A    between atoms: C_11  and  C_13
REMARK                            x       y       z     vdW  Elec       q    Type
REMARK                         _______ _______ _______ _____ _____    ______ ____
ROOT
ATOM      1  C   UNL     1       4.243   5.793  17.725  0.00  0.00    +0.000 A 
ATOM      2  N   UNL     1       3.601   5.186  18.703  0.00  0.00    +0.000 NA
ATOM      3  N   UNL     1       2.637   6.013  19.256  0.00  0.00    +0.000 NA
ATOM      4  C   UNL     1       2.592   7.190  18.668  0.00  0.00    +0.000 A 
ATOM      5  N   UNL     1       1.683   8.157  19.030  0.00  0.00    +0.000 N 
ATOM      6  C   UNL     1       1.493   9.382  18.417  0.00  0.00    +0.000 C 
ATOM      7  O   UNL     1       2.112   9.806  17.450  0.00  0.00    +0.000 OA
ATOM      8  S   UNL     1       3.764   7.408  17.452  0.00  0.00    +0.000 S 
ATOM      9  H   UNL     1       1.059   7.856  19.767  0.00  0.00    +0.000 HD
ENDROOT
BRANCH   6  10
ATOM     10  C   UNL     1       0.426  10.234  19.031  0.00  0.00    +0.000 A 
ATOM     11  C   UNL     1       0.735  10.919  20.212  0.00  0.00    +0.000 A 
ATOM     12  C   UNL     1      -0.239  11.707  20.778  0.00  0.00    +0.000 A 
ATOM     13  N   UNL     1      -1.467  11.863  20.253  0.00  0.00    +0.000 NA
ATOM     14  C   UNL     1      -1.764  11.236  19.104  0.00  0.00    +0.000 A 
ATOM     15  C   UNL     1      -3.032  11.440  18.577  0.00  0.00    +0.000 A 
ATOM     16  C   UNL     1      -3.447  10.835  17.391  0.00  0.00    +0.000 A 
ATOM     17  C   UNL     1      -2.576   9.999  16.714  0.00  0.00    +0.000 A 
ATOM     18  C   UNL     1      -1.297   9.772  17.227  0.00  0.00    +0.000 A 
ATOM     19  C   UNL     1      -0.855  10.390  18.429  0.00  0.00    +0.000 A 
ENDBRANCH   6  10
BRANCH   1  20
ATOM     20  S   UNL     1       5.498   5.082  16.713  0.00  0.00    +0.000 S 
ATOM     21  O   UNL     1       5.870   6.076  15.729  0.00  0.00    +0.000 OA
ATOM     22  O   UNL     1       4.997   3.775  16.325  0.00  0.00    +0.000 OA
BRANCH  20  24
ATOM     23  C   UNL     1       7.460   6.209  18.223  0.00  0.00    +0.000 C 
ATOM     24  C   UNL     1       6.866   4.869  17.836  0.00  0.00    +0.000 C 
ENDBRANCH  20  24
ENDBRANCH   1  20
TORSDOF 3
ENDMDL
MODEL 6
REMARK VINA RESULT:      -7.5      1.332      1.402
REMARK  Name = 
REMARK  4 active torsions:
REMARK  status: ('A' for Active; 'I' for Inactive)
REMARK    1  A    between atoms: C_1  and  C_2
REMARK    2  A    between atoms: C_2  and  S_3
REMARK    3  A    between atoms: S_3  and  C_6
REMARK    4  A    between atoms: C_11  and  C_13
REMARK                            x       y       z     vdW  Elec       q    Type
REMARK                         _______ _______ _______ _____ _____    ______ ____
ROOT
ATOM      1  C   UNL     1       0.236  10.757  21.674  0.00  0.00    +0.000 A 
ATOM      2  N   UNL     1       0.598  10.076  22.744  0.00  0.00    +0.000 NA
ATOM      3  N   UNL     1       1.234   8.897  22.393  0.00  0.00    +0.000 NA
ATOM      4  C   UNL     1       1.331   8.750  21.089  0.00  0.00    +0.000 A 
ATOM      5  N   UNL     1       1.960   7.670  20.516  0.00  0.00    +0.000 N 
ATOM      6  C   UNL     1       2.195   7.471  19.167  0.00  0.00    +0.000 C 
ATOM      7  O   UNL     1       1.874   8.228  18.261  0.00  0.00    +0.000 OA
ATOM      8  S   UNL     1       0.591   9.994  20.190  0.00  0.00    +0.000 S 
ATOM      9  H   UNL     1       2.346   7.031  21.198  0.00  0.00    +0.000 HD
ENDROOT
BRANCH   6  10
ATOM     10  C   UNL     1       2.907   6.196  18.835  0.00  0.00    +0.000 A 
ATOM     11  C   UNL     1       4.021   6.270  17.992  0.00  0.00    +0.000 A 
ATOM     12  C   UNL     1       4.683   5.104  17.687  0.00  0.00    +0.000 A 
ATOM     13  N   UNL     1       4.323   3.899  18.164  0.00  0.00    +0.000 NA
ATOM     14  C   UNL     1       3.275   3.820  18.998  0.00  0.00    +0.000 A 
ATOM     15  C   UNL     1       2.947   2.564  19.492  0.00  0.00    +0.000 A 
ATOM     16  C   UNL     1       1.876   2.367  20.362  0.00  0.00    +0.000 A 
ATOM     17  C   UNL     1       1.105   3.452  20.748  0.00  0.00    +0.000 A 
ATOM     18  C   UNL     1       1.410   4.724  20.260  0.00  0.00    +0.000 A 
ATOM     19  C   UNL     1       2.506   4.943  19.381  0.00  0.00    +0.000 A 
ENDBRANCH   6  10
BRANCH   1  20
ATOM     20  S   UNL     1      -0.540  12.339  21.668  0.00  0.00    +0.000 S 
ATOM     21  O   UNL     1      -0.269  12.954  22.949  0.00  0.00    +0.000 OA
ATOM     22  O   UNL     1      -1.897  12.110  21.203  0.00  0.00    +0.000 OA
BRANCH  20  24
ATOM     23  C   UNL     1      -0.539  13.570  19.241  0.00  0.00    +0.000 C 
ATOM     24  C   UNL     1       0.358  13.237  20.417  0.00  0.00    +0.000 C 
ENDBRANCH  20  24
ENDBRANCH   1  20
TORSDOF 3
ENDMDL
MODEL 7
REMARK VINA RESULT:      -7.5      3.332      7.859
REMARK  Name = 
REMARK  4 active torsions:
REMARK  status: ('A' for Active; 'I' for Inactive)
REMARK    1  A    between atoms: C_1  and  C_2
REMARK    2  A    between atoms: C_2  and  S_3
REMARK    3  A    between atoms: S_3  and  C_6
REMARK    4  A    between atoms: C_11  and  C_13
REMARK                            x       y       z     vdW  Elec       q    Type
REMARK                         _______ _______ _______ _____ _____    ______ ____
ROOT
ATOM      1  C   UNL     1       3.554   5.285  19.107  0.00  0.00    +0.000 A 
ATOM      2  N   UNL     1       2.870   5.177  20.228  0.00  0.00    +0.000 NA
ATOM      3  N   UNL     1       2.096   6.305  20.450  0.00  0.00    +0.000 NA
ATOM      4  C   UNL     1       2.224   7.196  19.490  0.00  0.00    +0.000 A 
ATOM      5  N   UNL     1       1.518   8.376  19.484  0.00  0.00    +0.000 N 
ATOM      6  C   UNL     1       1.511   9.330  18.482  0.00  0.00    +0.000 C 
ATOM      7  O   UNL     1       2.141   9.276  17.433  0.00  0.00    +0.000 OA
ATOM      8  S   UNL     1       3.349   6.766  18.285  0.00  0.00    +0.000 S 
ATOM      9  H   UNL     1       0.892   8.465  20.273  0.00  0.00    +0.000 HD
ENDROOT
BRANCH   6  10
ATOM     10  C   UNL     1       0.643  10.519  18.751  0.00  0.00    +0.000 A 
ATOM     11  C   UNL     1       1.193  11.577  19.484  0.00  0.00    +0.000 A 
ATOM     12  C   UNL     1       0.402  12.675  19.730  0.00  0.00    +0.000 A 
ATOM     13  N   UNL     1      -0.865  12.790  19.296  0.00  0.00    +0.000 NA
ATOM     14  C   UNL     1      -1.393  11.795  18.566  0.00  0.00    +0.000 A 
ATOM     15  C   UNL     1      -2.695  11.959  18.113  0.00  0.00    +0.000 A 
ATOM     16  C   UNL     1      -3.341  10.987  17.350  0.00  0.00    +0.000 A 
ATOM     17  C   UNL     1      -2.672   9.816  17.034  0.00  0.00    +0.000 A 
ATOM     18  C   UNL     1      -1.364   9.624  17.483  0.00  0.00    +0.000 A 
ATOM     19  C   UNL     1      -0.688  10.611  18.253  0.00  0.00    +0.000 A 
ENDBRANCH   6  10
BRANCH   1  20
ATOM     20  S   UNL     1       4.610   4.054  18.417  0.00  0.00    +0.000 S 
ATOM     21  O   UNL     1       5.941   4.293  18.931  0.00  0.00    +0.000 OA
ATOM     22  O   UNL     1       4.332   4.050  16.992  0.00  0.00    +0.000 OA
BRANCH  20  24
ATOM     23  C   UNL     1       3.211   1.739  18.113  0.00  0.00    +0.000 C 
ATOM     24  C   UNL     1       4.000   2.538  19.132  0.00  0.00    +0.000 C 
ENDBRANCH  20  24
ENDBRANCH   1  20
TORSDOF 3
ENDMDL
MODEL 8
REMARK VINA RESULT:      -7.5      1.656      1.863
REMARK  Name = 
REMARK  4 active torsions:
REMARK  status: ('A' for Active; 'I' for Inactive)
REMARK    1  A    between atoms: C_1  and  C_2
REMARK    2  A    between atoms: C_2  and  S_3
REMARK    3  A    between atoms: S_3  and  C_6
REMARK    4  A    between atoms: C_11  and  C_13
REMARK                            x       y       z     vdW  Elec       q    Type
REMARK                         _______ _______ _______ _____ _____    ______ ____
ROOT
ATOM      1  C   UNL     1       0.302  10.553  20.977  0.00  0.00    +0.000 A 
ATOM      2  N   UNL     1       0.630  10.103  22.172  0.00  0.00    +0.000 NA
ATOM      3  N   UNL     1       1.343   8.919  22.081  0.00  0.00    +0.000 NA
ATOM      4  C   UNL     1       1.527   8.542  20.834  0.00  0.00    +0.000 A 
ATOM      5  N   UNL     1       2.244   7.414  20.506  0.00  0.00    +0.000 N 
ATOM      6  C   UNL     1       2.571   6.985  19.232  0.00  0.00    +0.000 C 
ATOM      7  O   UNL     1       2.270   7.543  18.186  0.00  0.00    +0.000 OA
ATOM      8  S   UNL     1       0.785   9.553  19.682  0.00  0.00    +0.000 S 
ATOM      9  H   UNL     1       2.618   6.936  21.315  0.00  0.00    +0.000 HD
ENDROOT
BRANCH   6  10
ATOM     10  C   UNL     1       3.364   5.716  19.181  0.00  0.00    +0.000 A 
ATOM     11  C   UNL     1       4.759   5.815  19.203  0.00  0.00    +0.000 A 
ATOM     12  C   UNL     1       5.493   4.653  19.162  0.00  0.00    +0.000 A 
ATOM     13  N   UNL     1       4.942   3.428  19.112  0.00  0.00    +0.000 NA
ATOM     14  C   UNL     1       3.604   3.319  19.121  0.00  0.00    +0.000 A 
ATOM     15  C   UNL     1       3.069   2.038  19.095  0.00  0.00    +0.000 A 
ATOM     16  C   UNL     1       1.694   1.809  19.099  0.00  0.00    +0.000 A 
ATOM     17  C   UNL     1       0.826   2.889  19.124  0.00  0.00    +0.000 A 
ATOM     18  C   UNL     1       1.339   4.187  19.144  0.00  0.00    +0.000 A 
ATOM     19  C   UNL     1       2.739   4.436  19.152  0.00  0.00    +0.000 A 
ENDBRANCH   6  10
BRANCH   1  20
ATOM     20  S   UNL     1      -0.549  12.057  20.636  0.00  0.00    +0.000 S 
ATOM     21  O   UNL     1      -1.602  12.187  21.620  0.00  0.00    +0.000 OA
ATOM     22  O   UNL     1      -0.835  12.035  19.213  0.00  0.00    +0.000 OA
BRANCH  20  24
ATOM     23  C   UNL     1       1.478  13.621  19.713  0.00  0.00    +0.000 C 
ATOM     24  C   UNL     1       0.677  13.310  20.963  0.00  0.00    +0.000 C 
ENDBRANCH  20  24
ENDBRANCH   1  20
TORSDOF 3
ENDMDL
MODEL 9
REMARK VINA RESULT:      -7.5      1.005      1.152
REMARK  Name = 
REMARK  4 active torsions:
REMARK  status: ('A' for Active; 'I' for Inactive)
REMARK    1  A    between atoms: C_1  and  C_2
REMARK    2  A    between atoms: C_2  and  S_3
REMARK    3  A    between atoms: S_3  and  C_6
REMARK    4  A    between atoms: C_11  and  C_13
REMARK                            x       y       z     vdW  Elec       q    Type
REMARK                         _______ _______ _______ _____ _____    ______ ____
ROOT
ATOM      1  C   UNL     1       0.474  10.529  20.714  0.00  0.00    +0.000 A 
ATOM      2  N   UNL     1       0.679   9.702  21.720  0.00  0.00    +0.000 NA
ATOM      3  N   UNL     1       1.358   8.569  21.304  0.00  0.00    +0.000 NA
ATOM      4  C   UNL     1       1.639   8.598  20.018  0.00  0.00    +0.000 A 
ATOM      5  N   UNL     1       2.343   7.593  19.397  0.00  0.00    +0.000 N 
ATOM      6  C   UNL     1       2.767   7.574  18.080  0.00  0.00    +0.000 C 
ATOM      7  O   UNL     1       2.579   8.454  17.251  0.00  0.00    +0.000 OA
ATOM      8  S   UNL     1       1.036   9.968  19.204  0.00  0.00    +0.000 S 
ATOM      9  H   UNL     1       2.627   6.860  20.033  0.00  0.00    +0.000 HD
ENDROOT
BRANCH   6  10
ATOM     10  C   UNL     1       3.517   6.342  17.679  0.00  0.00    +0.000 A 
ATOM     11  C   UNL     1       4.815   6.501  17.181  0.00  0.00    +0.000 A 
ATOM     12  C   UNL     1       5.512   5.372  16.817  0.00  0.00    +0.000 A 
ATOM     13  N   UNL     1       5.017   4.127  16.923  0.00  0.00    +0.000 NA
ATOM     14  C   UNL     1       3.785   3.960  17.428  0.00  0.00    +0.000 A 
ATOM     15  C   UNL     1       3.316   2.659  17.548  0.00  0.00    +0.000 A 
ATOM     16  C   UNL     1       2.050   2.372  18.057  0.00  0.00    +0.000 A 
ATOM     17  C   UNL     1       1.225   3.412  18.453  0.00  0.00    +0.000 A 
ATOM     18  C   UNL     1       1.671   4.730  18.337  0.00  0.00    +0.000 A 
ATOM     19  C   UNL     1       2.964   5.038  17.830  0.00  0.00    +0.000 A 
ENDBRANCH   6  10
BRANCH   1  20
ATOM     20  S   UNL     1      -0.291  12.113  20.816  0.00  0.00    +0.000 S 
ATOM     21  O   UNL     1      -0.554  12.550  19.462  0.00  0.00    +0.000 OA
ATOM     22  O   UNL     1       0.533  12.892  21.722  0.00  0.00    +0.000 OA
BRANCH  20  24
ATOM     23  C   UNL     1      -1.751  11.938  23.106  0.00  0.00    +0.000 C 
ATOM     24  C   UNL     1      -1.854  11.768  21.603  0.00  0.00    +0.000 C 
ENDBRANCH  20  24
ENDBRANCH   1  20
TORSDOF 3
ENDMDL
