MODEL 1
REMARK VINA RESULT:      -6.5      0.000      0.000
REMARK  Name = 
REMARK  4 active torsions:
REMARK  status: ('A' for Active; 'I' for Inactive)
REMARK    1  A    between atoms: C_1  and  C_2
REMARK    2  A    between atoms: C_2  and  C_3
REMARK    3  A    between atoms: C_2  and  C_4
REMARK    4  A    between atoms: C_9  and  N_10
REMARK                            x       y       z     vdW  Elec       q    Type
REMARK                         _______ _______ _______ _____ _____    ______ ____
ROOT
ATOM      1  C   UNL     1       2.725   4.941  18.682  0.00  0.00    +0.000 A 
ATOM      2  C   UNL     1       1.558   4.183  18.981  0.00  0.00    +0.000 A 
ATOM      3  C   UNL     1       1.379   2.871  18.575  0.00  0.00    +0.000 A 
ATOM      4  C   UNL     1       2.360   2.281  17.813  0.00  0.00    +0.000 A 
ATOM      5  C   UNL     1       3.495   3.021  17.456  0.00  0.00    +0.000 A 
ATOM      6  C   UNL     1       3.745   4.361  17.870  0.00  0.00    +0.000 A 
ENDROOT
BRANCH   6   7
ATOM      7  N   UNL     1       4.915   4.974  17.423  0.00  0.00    +0.000 N 
ATOM      8  C   UNL     1       6.126   5.106  18.273  0.00  0.00    +0.000 C 
ATOM      9  C   UNL     1       7.363   4.548  17.532  0.00  0.00    +0.000 C 
ATOM     10  N   UNL     1       7.616   5.213  16.240  0.00  0.00    +0.000 NA
ATOM     11  C   UNL     1       6.393   5.163  15.425  0.00  0.00    +0.000 C 
ATOM     12  C   UNL     1       5.117   5.662  16.136  0.00  0.00    +0.000 C 
ATOM     13  H   UNL     1       8.355   4.713  15.746  0.00  0.00    +0.000 HD
ENDBRANCH   6   7
BRANCH   1  15
ATOM     14  C   UNL     1       2.413   7.392  18.179  0.00  0.00    +0.000 C 
ATOM     15  C   UNL     1       2.742   6.358  19.273  0.00  0.00    +0.000 C 
ATOM     16  C   UNL     1       1.821   6.559  20.490  0.00  0.00    +0.000 C 
ENDBRANCH   1  15
TORSDOF 2
ENDMDL
MODEL 2
REMARK VINA RESULT:      -6.4      0.799      1.435
REMARK  Name = 
REMARK  4 active torsions:
REMARK  status: ('A' for Active; 'I' for Inactive)
REMARK    1  A    between atoms: C_1  and  C_2
REMARK    2  A    between atoms: C_2  and  C_3
REMARK    3  A    between atoms: C_2  and  C_4
REMARK    4  A    between atoms: C_9  and  N_10
REMARK                            x       y       z     vdW  Elec       q    Type
REMARK                         _______ _______ _______ _____ _____    ______ ____
ROOT
ATOM      1  C   UNL     1       3.081   4.840  18.444  0.00  0.00    +0.000 A 
ATOM      2  C   UNL     1       1.782   4.389  18.809  0.00  0.00    +0.000 A 
ATOM      3  C   UNL     1       1.350   3.086  18.624  0.00  0.00    +0.000 A 
ATOM      4  C   UNL     1       2.204   2.191  18.023  0.00  0.00    +0.000 A 
ATOM      5  C   UNL     1       3.469   2.622  17.602  0.00  0.00    +0.000 A 
ATOM      6  C   UNL     1       3.976   3.939  17.793  0.00  0.00    +0.000 A 
ENDROOT
BRANCH   6   7
ATOM      7  N   UNL     1       5.251   4.224  17.307  0.00  0.00    +0.000 N 
ATOM      8  C   UNL     1       5.642   3.988  15.893  0.00  0.00    +0.000 C 
ATOM      9  C   UNL     1       6.248   5.272  15.283  0.00  0.00    +0.000 C 
ATOM     10  N   UNL     1       7.423   5.768  16.023  0.00  0.00    +0.000 NA
ATOM     11  C   UNL     1       7.071   5.923  17.442  0.00  0.00    +0.000 C 
ATOM     12  C   UNL     1       6.413   4.684  18.087  0.00  0.00    +0.000 C 
ATOM     13  H   UNL     1       7.690   6.681  15.654  0.00  0.00    +0.000 HD
ENDBRANCH   6   7
BRANCH   1  15
ATOM     14  C   UNL     1       3.520   7.134  17.492  0.00  0.00    +0.000 C 
ATOM     15  C   UNL     1       3.372   6.309  18.785  0.00  0.00    +0.000 C 
ATOM     16  C   UNL     1       2.344   6.968  19.722  0.00  0.00    +0.000 C 
ENDBRANCH   1  15
TORSDOF 2
ENDMDL
MODEL 3
REMARK VINA RESULT:      -6.4      1.965      4.361
REMARK  Name = 
REMARK  4 active torsions:
REMARK  status: ('A' for Active; 'I' for Inactive)
REMARK    1  A    between atoms: C_1  and  C_2
REMARK    2  A    between atoms: C_2  and  C_3
REMARK    3  A    between atoms: C_2  and  C_4
REMARK    4  A    between atoms: C_9  and  N_10
REMARK                            x       y       z     vdW  Elec       q    Type
REMARK                         _______ _______ _______ _____ _____    ______ ____
ROOT
ATOM      1  C   UNL     1       3.588   5.759  17.556  0.00  0.00    +0.000 A 
ATOM      2  C   UNL     1       4.462   6.537  16.746  0.00  0.00    +0.000 A 
ATOM      3  C   UNL     1       5.455   5.986  15.953  0.00  0.00    +0.000 A 
ATOM      4  C   UNL     1       5.631   4.622  15.977  0.00  0.00    +0.000 A 
ATOM      5  C   UNL     1       4.822   3.836  16.809  0.00  0.00    +0.000 A 
ATOM      6  C   UNL     1       3.768   4.345  17.621  0.00  0.00    +0.000 A 
ENDROOT
BRANCH   6   7
ATOM      7  N   UNL     1       3.056   3.441  18.407  0.00  0.00    +0.000 N 
ATOM      8  C   UNL     1       3.693   2.639  19.483  0.00  0.00    +0.000 C 
ATOM      9  C   UNL     1       2.922   2.814  20.811  0.00  0.00    +0.000 C 
ATOM     10  N   UNL     1       1.501   2.431  20.712  0.00  0.00    +0.000 NA
ATOM     11  C   UNL     1       0.882   3.157  19.593  0.00  0.00    +0.000 C 
ATOM     12  C   UNL     1       1.643   3.057  18.253  0.00  0.00    +0.000 C 
ATOM     13  H   UNL     1       1.023   2.695  21.573  0.00  0.00    +0.000 HD
ENDBRANCH   6   7
BRANCH   1  15
ATOM     14  C   UNL     1       2.732   6.420  19.834  0.00  0.00    +0.000 C 
ATOM     15  C   UNL     1       2.525   6.568  18.315  0.00  0.00    +0.000 C 
ATOM     16  C   UNL     1       2.450   8.055  17.929  0.00  0.00    +0.000 C 
ENDBRANCH   1  15
TORSDOF 2
ENDMDL
MODEL 4
REMARK VINA RESULT:      -6.3      1.856      4.997
REMARK  Name = 
REMARK  4 active torsions:
REMARK  status: ('A' for Active; 'I' for Inactive)
REMARK    1  A    between atoms: C_1  and  C_2
REMARK    2  A    between atoms: C_2  and  C_3
REMARK    3  A    between atoms: C_2  and  C_4
REMARK    4  A    between atoms: C_9  and  N_10
REMARK                            x       y       z     vdW  Elec       q    Type
REMARK                         _______ _______ _______ _____ _____    ______ ____
ROOT
ATOM      1  C   UNL     1       6.457   5.567  16.864  0.00  0.00    +0.000 A 
ATOM      2  C   UNL     1       7.315   5.529  15.730  0.00  0.00    +0.000 A 
ATOM      3  C   UNL     1       7.032   4.800  14.587  0.00  0.00    +0.000 A 
ATOM      4  C   UNL     1       5.884   4.043  14.559  0.00  0.00    +0.000 A 
ATOM      5  C   UNL     1       5.048   4.017  15.684  0.00  0.00    +0.000 A 
ATOM      6  C   UNL     1       5.274   4.769  16.873  0.00  0.00    +0.000 A 
ENDROOT
BRANCH   6   7
ATOM      7  N   UNL     1       4.361   4.630  17.916  0.00  0.00    +0.000 N 
ATOM      8  C   UNL     1       3.083   5.387  17.971  0.00  0.00    +0.000 C 
ATOM      9  C   UNL     1       1.896   4.419  18.177  0.00  0.00    +0.000 C 
ATOM     10  N   UNL     1       2.017   3.604  19.401  0.00  0.00    +0.000 NA
ATOM     11  C   UNL     1       3.317   2.918  19.397  0.00  0.00    +0.000 C 
ATOM     12  C   UNL     1       4.534   3.833  19.143  0.00  0.00    +0.000 C 
ATOM     13  H   UNL     1       1.278   2.901  19.407  0.00  0.00    +0.000 HD
ENDBRANCH   6   7
BRANCH   1  15
ATOM     14  C   UNL     1       7.813   5.684  18.987  0.00  0.00    +0.000 C 
ATOM     15  C   UNL     1       6.936   6.481  18.002  0.00  0.00    +0.000 C 
ATOM     16  C   UNL     1       7.670   7.752  17.542  0.00  0.00    +0.000 C 
ENDBRANCH   1  15
TORSDOF 2
ENDMDL
MODEL 5
REMARK VINA RESULT:      -6.2      1.380      3.399
REMARK  Name = 
REMARK  4 active torsions:
REMARK  status: ('A' for Active; 'I' for Inactive)
REMARK    1  A    between atoms: C_1  and  C_2
REMARK    2  A    between atoms: C_2  and  C_3
REMARK    3  A    between atoms: C_2  and  C_4
REMARK    4  A    between atoms: C_9  and  N_10
REMARK                            x       y       z     vdW  Elec       q    Type
REMARK                         _______ _______ _______ _____ _____    ______ ____
ROOT
ATOM      1  C   UNL     1       2.342   4.398  19.975  0.00  0.00    +0.000 A 
ATOM      2  C   UNL     1       1.423   5.209  20.696  0.00  0.00    +0.000 A 
ATOM      3  C   UNL     1       1.369   6.588  20.576  0.00  0.00    +0.000 A 
ATOM      4  C   UNL     1       2.274   7.210  19.748  0.00  0.00    +0.000 A 
ATOM      5  C   UNL     1       3.229   6.441  19.069  0.00  0.00    +0.000 A 
ATOM      6  C   UNL     1       3.310   5.020  19.131  0.00  0.00    +0.000 A 
ENDROOT
BRANCH   6   7
ATOM      7  N   UNL     1       4.324   4.393  18.408  0.00  0.00    +0.000 N 
ATOM      8  C   UNL     1       4.083   3.723  17.104  0.00  0.00    +0.000 C 
ATOM      9  C   UNL     1       5.069   4.255  16.039  0.00  0.00    +0.000 C 
ATOM     10  N   UNL     1       6.484   4.070  16.413  0.00  0.00    +0.000 NA
ATOM     11  C   UNL     1       6.712   4.654  17.743  0.00  0.00    +0.000 C 
ATOM     12  C   UNL     1       5.720   4.194  18.834  0.00  0.00    +0.000 C 
ATOM     13  H   UNL     1       7.074   4.557  15.739  0.00  0.00    +0.000 HD
ENDBRANCH   6   7
BRANCH   1  15
ATOM     14  C   UNL     1       1.630   2.630  21.626  0.00  0.00    +0.000 C 
ATOM     15  C   UNL     1       2.195   2.888  20.216  0.00  0.00    +0.000 C 
ATOM     16  C   UNL     1       1.355   2.147  19.161  0.00  0.00    +0.000 C 
ENDBRANCH   1  15
TORSDOF 2
ENDMDL
MODEL 6
REMARK VINA RESULT:      -6.2      1.093      1.126
REMARK  Name = 
REMARK  4 active torsions:
REMARK  status: ('A' for Active; 'I' for Inactive)
REMARK    1  A    between atoms: C_1  and  C_2
REMARK    2  A    between atoms: C_2  and  C_3
REMARK    3  A    between atoms: C_2  and  C_4
REMARK    4  A    between atoms: C_9  and  N_10
REMARK                            x       y       z     vdW  Elec       q    Type
REMARK                         _______ _______ _______ _____ _____    ______ ____
ROOT
ATOM      1  C   UNL     1       2.771   5.334  19.466  0.00  0.00    +0.000 A 
ATOM      2  C   UNL     1       1.698   4.745  20.191  0.00  0.00    +0.000 A 
ATOM      3  C   UNL     1       1.578   3.380  20.396  0.00  0.00    +0.000 A 
ATOM      4  C   UNL     1       2.522   2.548  19.841  0.00  0.00    +0.000 A 
ATOM      5  C   UNL     1       3.559   3.097  19.074  0.00  0.00    +0.000 A 
ATOM      6  C   UNL     1       3.748   4.491  18.856  0.00  0.00    +0.000 A 
ENDROOT
BRANCH   6   7
ATOM      7  N   UNL     1       4.820   4.887  18.058  0.00  0.00    +0.000 N 
ATOM      8  C   UNL     1       6.064   5.474  18.619  0.00  0.00    +0.000 C 
ATOM      9  C   UNL     1       7.301   4.705  18.100  0.00  0.00    +0.000 C 
ATOM     10  N   UNL     1       7.403   4.695  16.629  0.00  0.00    +0.000 NA
ATOM     11  C   UNL     1       6.142   4.197  16.060  0.00  0.00    +0.000 C 
ATOM     12  C   UNL     1       4.870   4.897  16.586  0.00  0.00    +0.000 C 
ATOM     13  H   UNL     1       8.155   4.065  16.351  0.00  0.00    +0.000 HD
ENDBRANCH   6   7
BRANCH   1  15
ATOM     14  C   UNL     1       2.373   7.332  17.980  0.00  0.00    +0.000 C 
ATOM     15  C   UNL     1       2.740   6.868  19.403  0.00  0.00    +0.000 C 
ATOM     16  C   UNL     1       1.815   7.536  20.436  0.00  0.00    +0.000 C 
ENDBRANCH   1  15
TORSDOF 2
ENDMDL
MODEL 7
REMARK VINA RESULT:      -6.2      1.338      3.042
REMARK  Name = 
REMARK  4 active torsions:
REMARK  status: ('A' for Active; 'I' for Inactive)
REMARK    1  A    between atoms: C_1  and  C_2
REMARK    2  A    between atoms: C_2  and  C_3
REMARK    3  A    between atoms: C_2  and  C_4
REMARK    4  A    between atoms: C_9  and  N_10
REMARK                            x       y       z     vdW  Elec       q    Type
REMARK                         _______ _______ _______ _____ _____    ______ ____
ROOT
ATOM      1  C   UNL     1       3.571   4.079  19.320  0.00  0.00    +0.000 A 
ATOM      2  C   UNL     1       2.489   4.156  20.240  0.00  0.00    +0.000 A 
ATOM      3  C   UNL     1       1.798   5.327  20.506  0.00  0.00    +0.000 A 
ATOM      4  C   UNL     1       2.200   6.482  19.877  0.00  0.00    +0.000 A 
ATOM      5  C   UNL     1       3.300   6.447  19.009  0.00  0.00    +0.000 A 
ATOM      6  C   UNL     1       4.027   5.268  18.677  0.00  0.00    +0.000 A 
ENDROOT
BRANCH   6   7
ATOM      7  N   UNL     1       5.109   5.392  17.806  0.00  0.00    +0.000 N 
ATOM      8  C   UNL     1       6.470   5.767  18.267  0.00  0.00    +0.000 C 
ATOM      9  C   UNL     1       7.509   4.740  17.762  0.00  0.00    +0.000 C 
ATOM     10  N   UNL     1       7.525   4.606  16.293  0.00  0.00    +0.000 NA
ATOM     11  C   UNL     1       6.163   4.321  15.818  0.00  0.00    +0.000 C 
ATOM     12  C   UNL     1       5.078   5.288  16.338  0.00  0.00    +0.000 C 
ATOM     13  H   UNL     1       8.129   3.825  16.036  0.00  0.00    +0.000 HD
ENDBRANCH   6   7
BRANCH   1  15
ATOM     14  C   UNL     1       4.444   2.034  20.511  0.00  0.00    +0.000 C 
ATOM     15  C   UNL     1       4.162   2.673  19.137  0.00  0.00    +0.000 C 
ATOM     16  C   UNL     1       3.311   1.725  18.274  0.00  0.00    +0.000 C 
ENDBRANCH   1  15
TORSDOF 2
ENDMDL
MODEL 8
REMARK VINA RESULT:      -6.2      0.990      1.622
REMARK  Name = 
REMARK  4 active torsions:
REMARK  status: ('A' for Active; 'I' for Inactive)
REMARK    1  A    between atoms: C_1  and  C_2
REMARK    2  A    between atoms: C_2  and  C_3
REMARK    3  A    between atoms: C_2  and  C_4
REMARK    4  A    between atoms: C_9  and  N_10
REMARK                            x       y       z     vdW  Elec       q    Type
REMARK                         _______ _______ _______ _____ _____    ______ ____
ROOT
ATOM      1  C   UNL     1       2.557   4.924  19.307  0.00  0.00    +0.000 A 
ATOM      2  C   UNL     1       1.372   4.378  19.875  0.00  0.00    +0.000 A 
ATOM      3  C   UNL     1       1.071   3.027  19.853  0.00  0.00    +0.000 A 
ATOM      4  C   UNL     1       1.941   2.172  19.217  0.00  0.00    +0.000 A 
ATOM      5  C   UNL     1       3.088   2.688  18.600  0.00  0.00    +0.000 A 
ATOM      6  C   UNL     1       3.462   4.063  18.618  0.00  0.00    +0.000 A 
ENDROOT
BRANCH   6   7
ATOM      7  N   UNL     1       4.627   4.430  17.947  0.00  0.00    +0.000 N 
ATOM      8  C   UNL     1       4.751   4.378  16.467  0.00  0.00    +0.000 C 
ATOM      9  C   UNL     1       5.240   5.740  15.922  0.00  0.00    +0.000 C 
ATOM     10  N   UNL     1       6.533   6.162  16.492  0.00  0.00    +0.000 NA
ATOM     11  C   UNL     1       6.448   6.132  17.959  0.00  0.00    +0.000 C 
ATOM     12  C   UNL     1       5.914   4.810  18.553  0.00  0.00    +0.000 C 
ATOM     13  H   UNL     1       6.731   7.118  16.198  0.00  0.00    +0.000 HD
ENDBRANCH   6   7
BRANCH   1  15
ATOM     14  C   UNL     1       2.536   7.159  18.139  0.00  0.00    +0.000 C 
ATOM     15  C   UNL     1       2.719   6.440  19.490  0.00  0.00    +0.000 C 
ATOM     16  C   UNL     1       1.799   7.063  20.554  0.00  0.00    +0.000 C 
ENDBRANCH   1  15
TORSDOF 2
ENDMDL
MODEL 9
REMARK VINA RESULT:      -6.2      1.113      3.164
REMARK  Name = 
REMARK  4 active torsions:
REMARK  status: ('A' for Active; 'I' for Inactive)
REMARK    1  A    between atoms: C_1  and  C_2
REMARK    2  A    between atoms: C_2  and  C_3
REMARK    3  A    between atoms: C_2  and  C_4
REMARK    4  A    between atoms: C_9  and  N_10
REMARK                            x       y       z     vdW  Elec       q    Type
REMARK                         _______ _______ _______ _____ _____    ______ ____
ROOT
ATOM      1  C   UNL     1       2.834   5.559  18.519  0.00  0.00    +0.000 A 
ATOM      2  C   UNL     1       1.867   6.582  18.723  0.00  0.00    +0.000 A 
ATOM      3  C   UNL     1       2.010   7.872  18.238  0.00  0.00    +0.000 A 
ATOM      4  C   UNL     1       3.161   8.191  17.557  0.00  0.00    +0.000 A 
ATOM      5  C   UNL     1       4.157   7.219  17.390  0.00  0.00    +0.000 A 
ATOM      6  C   UNL     1       4.050   5.872  17.841  0.00  0.00    +0.000 A 
ENDROOT
BRANCH   6   7
ATOM      7  N   UNL     1       5.130   5.021  17.614  0.00  0.00    +0.000 N 
ATOM      8  C   UNL     1       5.302   4.262  16.348  0.00  0.00    +0.000 C 
ATOM      9  C   UNL     1       6.707   4.517  15.757  0.00  0.00    +0.000 C 
ATOM     10  N   UNL     1       7.799   4.154  16.679  0.00  0.00    +0.000 NA
ATOM     11  C   UNL     1       7.590   4.832  17.967  0.00  0.00    +0.000 C 
ATOM     12  C   UNL     1       6.183   4.652  18.575  0.00  0.00    +0.000 C 
ATOM     13  H   UNL     1       8.687   4.468  16.287  0.00  0.00    +0.000 HD
ENDBRANCH   6   7
BRANCH   1  15
ATOM     14  C   UNL     1       1.626   4.368  20.385  0.00  0.00    +0.000 C 
ATOM     15  C   UNL     1       2.452   4.188  19.096  0.00  0.00    +0.000 C 
ATOM     16  C   UNL     1       1.714   3.259  18.116  0.00  0.00    +0.000 C 
ENDBRANCH   1  15
TORSDOF 2
ENDMDL
