MODEL 1
REMARK VINA RESULT:      -8.2      0.000      0.000
REMARK  Name = 
REMARK  7 active torsions:
REMARK  status: ('A' for Active; 'I' for Inactive)
REMARK    1  A    between atoms: C_1  and  C_2
REMARK    2  A    between atoms: C_2  and  N_3
REMARK    3  A    between atoms: C_7  and  C_8
REMARK    4  A    between atoms: C_8  and  N_9
REMARK    5  A    between atoms: C_10  and  C_12
REMARK    6  A    between atoms: N_17  and  C_18
REMARK    7  A    between atoms: C_18  and  C_19
REMARK                            x       y       z     vdW  Elec       q    Type
REMARK                         _______ _______ _______ _____ _____    ______ ____
ROOT
ATOM      1  C   UNL     1       7.098   5.960  18.620  0.00  0.00    +0.000 C 
ATOM      2  C   UNL     1       7.778   4.773  17.954  0.00  0.00    +0.000 C 
ATOM      3  C   UNL     1       7.269   4.592  16.534  0.00  0.00    +0.000 C 
ATOM      4  C   UNL     1       5.766   4.709  16.370  0.00  0.00    +0.000 C 
ATOM      5  O   UNL     1       5.249   4.400  15.296  0.00  0.00    +0.000 OA
ATOM      6  N   UNL     1       5.022   5.157  17.448  0.00  0.00    +0.000 N 
ATOM      7  C   UNL     1       5.608   5.675  18.686  0.00  0.00    +0.000 C 
ENDROOT
BRANCH   1   9
ATOM      8  N   UNL     1       8.396   8.104  18.702  0.00  0.00    +0.000 N 
ATOM      9  C   UNL     1       7.563   7.276  18.005  0.00  0.00    +0.000 C 
ATOM     10  O   UNL     1       7.139   7.598  16.893  0.00  0.00    +0.000 OA
ATOM     11  H   UNL     1       8.693   7.932  19.658  0.00  0.00    +0.000 HD
BRANCH   8  12
ATOM     12  C   UNL     1       8.765   9.374  18.116  0.00  0.00    +0.000 C 
BRANCH  12  17
ATOM     13  N   UNL     1      10.147  11.373  18.816  0.00  0.00    +0.000 N 
ATOM     14  C   UNL     1      10.428  12.052  19.973  0.00  0.00    +0.000 A 
ATOM     15  C   UNL     1       9.702  11.417  20.947  0.00  0.00    +0.000 A 
ATOM     16  N   UNL     1       8.999  10.368  20.419  0.00  0.00    +0.000 NA
ATOM     17  C   UNL     1       9.277  10.342  19.130  0.00  0.00    +0.000 A 
BRANCH  13  19
ATOM     18  C   UNL     1      10.967  13.167  17.321  0.00  0.00    +0.000 C 
ATOM     19  C   UNL     1      10.724  11.677  17.518  0.00  0.00    +0.000 C 
ENDBRANCH  13  19
ENDBRANCH  12  17
ENDBRANCH   8  12
ENDBRANCH   1   9
BRANCH   6  20
ATOM     20  C   UNL     1       3.595   4.817  17.477  0.00  0.00    +0.000 C 
BRANCH  20  21
ATOM     21  C   UNL     1       3.141   4.432  18.871  0.00  0.00    +0.000 A 
ATOM     22  C   UNL     1       2.319   5.288  19.623  0.00  0.00    +0.000 A 
ATOM     23  C   UNL     1       1.815   4.888  20.866  0.00  0.00    +0.000 A 
ATOM     24  C   UNL     1       2.122   3.624  21.372  0.00  0.00    +0.000 A 
ATOM     25  C   UNL     1       2.953   2.772  20.647  0.00  0.00    +0.000 A 
ATOM     26  C   UNL     1       3.461   3.185  19.416  0.00  0.00    +0.000 A 
ATOM     27  F   UNL     1       4.259   2.344  18.738  0.00  0.00    +0.000 F 
ENDBRANCH  20  21
ENDBRANCH   6  20
TORSDOF 6
ENDMDL
MODEL 2
REMARK VINA RESULT:      -8.2      4.077      7.161
REMARK  Name = 
REMARK  7 active torsions:
REMARK  status: ('A' for Active; 'I' for Inactive)
REMARK    1  A    between atoms: C_1  and  C_2
REMARK    2  A    between atoms: C_2  and  N_3
REMARK    3  A    between atoms: C_7  and  C_8
REMARK    4  A    between atoms: C_8  and  N_9
REMARK    5  A    between atoms: C_10  and  C_12
REMARK    6  A    between atoms: N_17  and  C_18
REMARK    7  A    between atoms: C_18  and  C_19
REMARK                            x       y       z     vdW  Elec       q    Type
REMARK                         _______ _______ _______ _____ _____    ______ ____
ROOT
ATOM      1  C   UNL     1       1.762   4.260  18.416  0.00  0.00    +0.000 C 
ATOM      2  C   UNL     1       1.684   2.819  18.899  0.00  0.00    +0.000 C 
ATOM      3  C   UNL     1       2.876   2.485  19.780  0.00  0.00    +0.000 C 
ATOM      4  C   UNL     1       4.216   2.968  19.259  0.00  0.00    +0.000 C 
ATOM      5  O   UNL     1       5.250   2.589  19.809  0.00  0.00    +0.000 OA
ATOM      6  N   UNL     1       4.226   3.819  18.168  0.00  0.00    +0.000 N 
ATOM      7  C   UNL     1       3.022   4.410  17.581  0.00  0.00    +0.000 C 
ENDROOT
BRANCH   1   9
ATOM      8  N   UNL     1       2.099   6.474  19.542  0.00  0.00    +0.000 N 
ATOM      9  C   UNL     1       1.523   5.237  19.561  0.00  0.00    +0.000 C 
ATOM     10  O   UNL     1       0.841   4.873  20.523  0.00  0.00    +0.000 OA
ATOM     11  H   UNL     1       2.748   6.784  18.824  0.00  0.00    +0.000 HD
BRANCH   8  12
ATOM     12  C   UNL     1       1.906   7.351  20.676  0.00  0.00    +0.000 C 
BRANCH  12  17
ATOM     13  N   UNL     1       0.718   9.525  21.183  0.00  0.00    +0.000 N 
ATOM     14  C   UNL     1       0.303  10.635  20.492  0.00  0.00    +0.000 A 
ATOM     15  C   UNL     1       0.705  10.423  19.199  0.00  0.00    +0.000 A 
ATOM     16  N   UNL     1       1.340   9.216  19.082  0.00  0.00    +0.000 NA
ATOM     17  C   UNL     1       1.340   8.675  20.284  0.00  0.00    +0.000 A 
BRANCH  13  19
ATOM     18  C   UNL     1      -0.681  10.118  23.137  0.00  0.00    +0.000 C 
ATOM     19  C   UNL     1       0.481   9.295  22.597  0.00  0.00    +0.000 C 
ENDBRANCH  13  19
ENDBRANCH  12  17
ENDBRANCH   8  12
ENDBRANCH   1   9
BRANCH   6  20
ATOM     20  C   UNL     1       5.459   3.894  17.376  0.00  0.00    +0.000 C 
BRANCH  20  21
ATOM     21  C   UNL     1       6.251   5.148  17.692  0.00  0.00    +0.000 A 
ATOM     22  C   UNL     1       7.209   5.154  18.719  0.00  0.00    +0.000 A 
ATOM     23  C   UNL     1       8.013   6.277  18.943  0.00  0.00    +0.000 A 
ATOM     24  C   UNL     1       7.873   7.409  18.138  0.00  0.00    +0.000 A 
ATOM     25  C   UNL     1       6.912   7.426  17.128  0.00  0.00    +0.000 A 
ATOM     26  C   UNL     1       6.107   6.306  16.923  0.00  0.00    +0.000 A 
ATOM     27  F   UNL     1       5.190   6.347  15.943  0.00  0.00    +0.000 F 
ENDBRANCH  20  21
ENDBRANCH   6  20
TORSDOF 6
ENDMDL
MODEL 3
REMARK VINA RESULT:      -8.0      1.553      2.142
REMARK  Name = 
REMARK  7 active torsions:
REMARK  status: ('A' for Active; 'I' for Inactive)
REMARK    1  A    between atoms: C_1  and  C_2
REMARK    2  A    between atoms: C_2  and  N_3
REMARK    3  A    between atoms: C_7  and  C_8
REMARK    4  A    between atoms: C_8  and  N_9
REMARK    5  A    between atoms: C_10  and  C_12
REMARK    6  A    between atoms: N_17  and  C_18
REMARK    7  A    between atoms: C_18  and  C_19
REMARK                            x       y       z     vdW  Elec       q    Type
REMARK                         _______ _______ _______ _____ _____    ______ ____
ROOT
ATOM      1  C   UNL     1       7.483   5.904  18.765  0.00  0.00    +0.000 C 
ATOM      2  C   UNL     1       7.924   4.731  17.901  0.00  0.00    +0.000 C 
ATOM      3  C   UNL     1       7.137   4.698  16.602  0.00  0.00    +0.000 C 
ATOM      4  C   UNL     1       5.645   4.927  16.748  0.00  0.00    +0.000 C 
ATOM      5  O   UNL     1       4.907   4.740  15.780  0.00  0.00    +0.000 OA
ATOM      6  N   UNL     1       5.162   5.336  17.979  0.00  0.00    +0.000 N 
ATOM      7  C   UNL     1       6.016   5.713  19.107  0.00  0.00    +0.000 C 
ENDROOT
BRANCH   1   9
ATOM      8  N   UNL     1       8.595   8.146  18.917  0.00  0.00    +0.000 N 
ATOM      9  C   UNL     1       7.926   7.230  18.157  0.00  0.00    +0.000 C 
ATOM     10  O   UNL     1       7.629   7.479  16.986  0.00  0.00    +0.000 OA
ATOM     11  H   UNL     1       8.775   8.032  19.910  0.00  0.00    +0.000 HD
BRANCH   8  12
ATOM     12  C   UNL     1       8.941   9.421  18.328  0.00  0.00    +0.000 C 
BRANCH  12  17
ATOM     13  N   UNL     1      10.321  11.404  19.076  0.00  0.00    +0.000 N 
ATOM     14  C   UNL     1      10.512  12.126  20.226  0.00  0.00    +0.000 A 
ATOM     15  C   UNL     1       9.670  11.560  21.149  0.00  0.00    +0.000 A 
ATOM     16  N   UNL     1       8.984  10.512  20.598  0.00  0.00    +0.000 NA
ATOM     17  C   UNL     1       9.387  10.418  19.346  0.00  0.00    +0.000 A 
BRANCH  13  19
ATOM     18  C   UNL     1      10.699  12.973  17.200  0.00  0.00    +0.000 C 
ATOM     19  C   UNL     1      11.034  11.628  17.831  0.00  0.00    +0.000 C 
ENDBRANCH  13  19
ENDBRANCH  12  17
ENDBRANCH   8  12
ENDBRANCH   1   9
BRANCH   6  20
ATOM     20  C   UNL     1       3.745   5.090  18.270  0.00  0.00    +0.000 C 
BRANCH  20  21
ATOM     21  C   UNL     1       3.037   6.357  18.705  0.00  0.00    +0.000 A 
ATOM     22  C   UNL     1       2.949   7.465  17.845  0.00  0.00    +0.000 A 
ATOM     23  C   UNL     1       2.206   8.594  18.205  0.00  0.00    +0.000 A 
ATOM     24  C   UNL     1       1.536   8.630  19.429  0.00  0.00    +0.000 A 
ATOM     25  C   UNL     1       1.631   7.548  20.302  0.00  0.00    +0.000 A 
ATOM     26  C   UNL     1       2.384   6.432  19.939  0.00  0.00    +0.000 A 
ATOM     27  F   UNL     1       2.458   5.402  20.797  0.00  0.00    +0.000 F 
ENDBRANCH  20  21
ENDBRANCH   6  20
TORSDOF 6
ENDMDL
MODEL 4
REMARK VINA RESULT:      -7.8      1.489      1.723
REMARK  Name = 
REMARK  7 active torsions:
REMARK  status: ('A' for Active; 'I' for Inactive)
REMARK    1  A    between atoms: C_1  and  C_2
REMARK    2  A    between atoms: C_2  and  N_3
REMARK    3  A    between atoms: C_7  and  C_8
REMARK    4  A    between atoms: C_8  and  N_9
REMARK    5  A    between atoms: C_10  and  C_12
REMARK    6  A    between atoms: N_17  and  C_18
REMARK    7  A    between atoms: C_18  and  C_19
REMARK                            x       y       z     vdW  Elec       q    Type
REMARK                         _______ _______ _______ _____ _____    ______ ____
ROOT
ATOM      1  C   UNL     1       6.737   6.033  18.460  0.00  0.00    +0.000 C 
ATOM      2  C   UNL     1       7.722   4.898  18.221  0.00  0.00    +0.000 C 
ATOM      3  C   UNL     1       7.640   4.413  16.783  0.00  0.00    +0.000 C 
ATOM      4  C   UNL     1       6.235   4.233  16.244  0.00  0.00    +0.000 C 
ATOM      5  O   UNL     1       6.070   3.675  15.159  0.00  0.00    +0.000 OA
ATOM      6  N   UNL     1       5.177   4.701  17.004  0.00  0.00    +0.000 N 
ATOM      7  C   UNL     1       5.335   5.499  18.221  0.00  0.00    +0.000 C 
ENDROOT
BRANCH   1   9
ATOM      8  N   UNL     1       8.078   8.146  18.302  0.00  0.00    +0.000 N 
ATOM      9  C   UNL     1       7.171   7.300  17.731  0.00  0.00    +0.000 C 
ATOM     10  O   UNL     1       6.655   7.569  16.643  0.00  0.00    +0.000 OA
ATOM     11  H   UNL     1       8.456   8.021  19.236  0.00  0.00    +0.000 HD
BRANCH   8  12
ATOM     12  C   UNL     1       8.417   9.371  17.613  0.00  0.00    +0.000 C 
BRANCH  12  17
ATOM     13  N   UNL     1       8.732  11.776  18.331  0.00  0.00    +0.000 N 
ATOM     14  C   UNL     1       9.350  12.454  19.350  0.00  0.00    +0.000 A 
ATOM     15  C   UNL     1       9.892  11.481  20.150  0.00  0.00    +0.000 A 
ATOM     16  N   UNL     1       9.631  10.237  19.643  0.00  0.00    +0.000 NA
ATOM     17  C   UNL     1       8.934  10.422  18.539  0.00  0.00    +0.000 A 
BRANCH  13  19
ATOM     18  C   UNL     1       7.388  13.724  17.606  0.00  0.00    +0.000 C 
ATOM     19  C   UNL     1       8.043  12.405  17.218  0.00  0.00    +0.000 C 
ENDBRANCH  13  19
ENDBRANCH  12  17
ENDBRANCH   8  12
ENDBRANCH   1   9
BRANCH   6  20
ATOM     20  C   UNL     1       3.852   4.120  16.756  0.00  0.00    +0.000 C 
BRANCH  20  21
ATOM     21  C   UNL     1       3.173   3.708  18.047  0.00  0.00    +0.000 A 
ATOM     22  C   UNL     1       3.866   2.970  19.021  0.00  0.00    +0.000 A 
ATOM     23  C   UNL     1       3.275   2.679  20.256  0.00  0.00    +0.000 A 
ATOM     24  C   UNL     1       1.983   3.129  20.535  0.00  0.00    +0.000 A 
ATOM     25  C   UNL     1       1.275   3.844  19.571  0.00  0.00    +0.000 A 
ATOM     26  C   UNL     1       1.868   4.117  18.340  0.00  0.00    +0.000 A 
ATOM     27  F   UNL     1       1.166   4.809  17.429  0.00  0.00    +0.000 F 
ENDBRANCH  20  21
ENDBRANCH   6  20
TORSDOF 6
ENDMDL
MODEL 5
REMARK VINA RESULT:      -7.8      1.839      2.365
REMARK  Name = 
REMARK  7 active torsions:
REMARK  status: ('A' for Active; 'I' for Inactive)
REMARK    1  A    between atoms: C_1  and  C_2
REMARK    2  A    between atoms: C_2  and  N_3
REMARK    3  A    between atoms: C_7  and  C_8
REMARK    4  A    between atoms: C_8  and  N_9
REMARK    5  A    between atoms: C_10  and  C_12
REMARK    6  A    between atoms: N_17  and  C_18
REMARK    7  A    between atoms: C_18  and  C_19
REMARK                            x       y       z     vdW  Elec       q    Type
REMARK                         _______ _______ _______ _____ _____    ______ ____
ROOT
ATOM      1  C   UNL     1       7.479   5.805  18.604  0.00  0.00    +0.000 C 
ATOM      2  C   UNL     1       7.818   4.584  17.761  0.00  0.00    +0.000 C 
ATOM      3  C   UNL     1       6.871   4.474  16.577  0.00  0.00    +0.000 C 
ATOM      4  C   UNL     1       5.408   4.708  16.899  0.00  0.00    +0.000 C 
ATOM      5  O   UNL     1       4.555   4.462  16.046  0.00  0.00    +0.000 OA
ATOM      6  N   UNL     1       5.083   5.187  18.156  0.00  0.00    +0.000 N 
ATOM      7  C   UNL     1       6.070   5.632  19.142  0.00  0.00    +0.000 C 
ENDROOT
BRANCH   1   9
ATOM      8  N   UNL     1       8.189   8.210  18.569  0.00  0.00    +0.000 N 
ATOM      9  C   UNL     1       7.829   7.094  17.869  0.00  0.00    +0.000 C 
ATOM     10  O   UNL     1       7.735   7.124  16.639  0.00  0.00    +0.000 OA
ATOM     11  H   UNL     1       8.184   8.265  19.583  0.00  0.00    +0.000 HD
BRANCH   8  12
ATOM     12  C   UNL     1       8.448   9.434  17.843  0.00  0.00    +0.000 C 
BRANCH  12  17
ATOM     13  N   UNL     1       8.870  11.851  18.456  0.00  0.00    +0.000 N 
ATOM     14  C   UNL     1       9.544  12.544  19.429  0.00  0.00    +0.000 A 
ATOM     15  C   UNL     1      10.075  11.584  20.251  0.00  0.00    +0.000 A 
ATOM     16  N   UNL     1       9.754  10.332  19.801  0.00  0.00    +0.000 NA
ATOM     17  C   UNL     1       9.031  10.499  18.712  0.00  0.00    +0.000 A 
BRANCH  13  19
ATOM     18  C   UNL     1       7.574  13.817  17.695  0.00  0.00    +0.000 C 
ATOM     19  C   UNL     1       8.171  12.462  17.340  0.00  0.00    +0.000 C 
ENDBRANCH  13  19
ENDBRANCH  12  17
ENDBRANCH   8  12
ENDBRANCH   1   9
BRANCH   6  20
ATOM     20  C   UNL     1       3.716   4.957  18.639  0.00  0.00    +0.000 C 
BRANCH  20  21
ATOM     21  C   UNL     1       3.005   6.260  18.945  0.00  0.00    +0.000 A 
ATOM     22  C   UNL     1       2.994   7.311  18.013  0.00  0.00    +0.000 A 
ATOM     23  C   UNL     1       2.251   8.472  18.251  0.00  0.00    +0.000 A 
ATOM     24  C   UNL     1       1.504   8.597  19.423  0.00  0.00    +0.000 A 
ATOM     25  C   UNL     1       1.521   7.571  20.367  0.00  0.00    +0.000 A 
ATOM     26  C   UNL     1       2.276   6.424  20.127  0.00  0.00    +0.000 A 
ATOM     27  F   UNL     1       2.274   5.450  21.051  0.00  0.00    +0.000 F 
ENDBRANCH  20  21
ENDBRANCH   6  20
TORSDOF 6
ENDMDL
MODEL 6
REMARK VINA RESULT:      -7.8      1.022      1.374
REMARK  Name = 
REMARK  7 active torsions:
REMARK  status: ('A' for Active; 'I' for Inactive)
REMARK    1  A    between atoms: C_1  and  C_2
REMARK    2  A    between atoms: C_2  and  N_3
REMARK    3  A    between atoms: C_7  and  C_8
REMARK    4  A    between atoms: C_8  and  N_9
REMARK    5  A    between atoms: C_10  and  C_12
REMARK    6  A    between atoms: N_17  and  C_18
REMARK    7  A    between atoms: C_18  and  C_19
REMARK                            x       y       z     vdW  Elec       q    Type
REMARK                         _______ _______ _______ _____ _____    ______ ____
ROOT
ATOM      1  C   UNL     1       7.250   6.101  18.643  0.00  0.00    +0.000 C 
ATOM      2  C   UNL     1       7.722   4.817  17.977  0.00  0.00    +0.000 C 
ATOM      3  C   UNL     1       7.141   4.697  16.577  0.00  0.00    +0.000 C 
ATOM      4  C   UNL     1       5.668   5.035  16.461  0.00  0.00    +0.000 C 
ATOM      5  O   UNL     1       5.073   4.793  15.410  0.00  0.00    +0.000 OA
ATOM      6  N   UNL     1       5.038   5.603  17.555  0.00  0.00    +0.000 N 
ATOM      7  C   UNL     1       5.737   6.042  18.763  0.00  0.00    +0.000 C 
ENDROOT
BRANCH   1   9
ATOM      8  N   UNL     1       8.427   8.312  18.761  0.00  0.00    +0.000 N 
ATOM      9  C   UNL     1       7.884   7.324  17.990  0.00  0.00    +0.000 C 
ATOM     10  O   UNL     1       7.857   7.426  16.761  0.00  0.00    +0.000 OA
ATOM     11  H   UNL     1       8.386   8.323  19.776  0.00  0.00    +0.000 HD
BRANCH   8  12
ATOM     12  C   UNL     1       8.960   9.489  18.112  0.00  0.00    +0.000 C 
BRANCH  12  17
ATOM     13  N   UNL     1      10.426  11.449  18.747  0.00  0.00    +0.000 N 
ATOM     14  C   UNL     1      10.702  12.182  19.872  0.00  0.00    +0.000 A 
ATOM     15  C   UNL     1       9.906  11.648  20.852  0.00  0.00    +0.000 A 
ATOM     16  N   UNL     1       9.165  10.608  20.359  0.00  0.00    +0.000 NA
ATOM     17  C   UNL     1       9.489  10.488  19.086  0.00  0.00    +0.000 A 
BRANCH  13  19
ATOM     18  C   UNL     1      10.962  13.077  16.961  0.00  0.00    +0.000 C 
ATOM     19  C   UNL     1      11.067  11.642  17.458  0.00  0.00    +0.000 C 
ENDBRANCH  13  19
ENDBRANCH  12  17
ENDBRANCH   8  12
ENDBRANCH   1   9
BRANCH   6  20
ATOM     20  C   UNL     1       3.577   5.481  17.637  0.00  0.00    +0.000 C 
BRANCH  20  21
ATOM     21  C   UNL     1       3.157   4.581  18.782  0.00  0.00    +0.000 A 
ATOM     22  C   UNL     1       3.498   3.218  18.790  0.00  0.00    +0.000 A 
ATOM     23  C   UNL     1       3.201   2.411  19.894  0.00  0.00    +0.000 A 
ATOM     24  C   UNL     1       2.564   2.958  21.009  0.00  0.00    +0.000 A 
ATOM     25  C   UNL     1       2.201   4.304  21.008  0.00  0.00    +0.000 A 
ATOM     26  C   UNL     1       2.489   5.096  19.898  0.00  0.00    +0.000 A 
ATOM     27  F   UNL     1       2.130   6.389  19.923  0.00  0.00    +0.000 F 
ENDBRANCH  20  21
ENDBRANCH   6  20
TORSDOF 6
ENDMDL
MODEL 7
REMARK VINA RESULT:      -7.7      1.529      2.062
REMARK  Name = 
REMARK  7 active torsions:
REMARK  status: ('A' for Active; 'I' for Inactive)
REMARK    1  A    between atoms: C_1  and  C_2
REMARK    2  A    between atoms: C_2  and  N_3
REMARK    3  A    between atoms: C_7  and  C_8
REMARK    4  A    between atoms: C_8  and  N_9
REMARK    5  A    between atoms: C_10  and  C_12
REMARK    6  A    between atoms: N_17  and  C_18
REMARK    7  A    between atoms: C_18  and  C_19
REMARK                            x       y       z     vdW  Elec       q    Type
REMARK                         _______ _______ _______ _____ _____    ______ ____
ROOT
ATOM      1  C   UNL     1       7.410   5.892  18.785  0.00  0.00    +0.000 C 
ATOM      2  C   UNL     1       7.979   4.753  17.952  0.00  0.00    +0.000 C 
ATOM      3  C   UNL     1       7.207   4.604  16.652  0.00  0.00    +0.000 C 
ATOM      4  C   UNL     1       5.698   4.675  16.787  0.00  0.00    +0.000 C 
ATOM      5  O   UNL     1       4.990   4.386  15.822  0.00  0.00    +0.000 OA
ATOM      6  N   UNL     1       5.168   5.060  18.006  0.00  0.00    +0.000 N 
ATOM      7  C   UNL     1       5.969   5.554  19.127  0.00  0.00    +0.000 C 
ENDROOT
BRANCH   1   9
ATOM      8  N   UNL     1       8.501   8.150  18.793  0.00  0.00    +0.000 N 
ATOM      9  C   UNL     1       7.711   7.243  18.146  0.00  0.00    +0.000 C 
ATOM     10  O   UNL     1       7.194   7.519  17.061  0.00  0.00    +0.000 OA
ATOM     11  H   UNL     1       8.868   8.011  19.730  0.00  0.00    +0.000 HD
BRANCH   8  12
ATOM     12  C   UNL     1       8.712   9.447  18.189  0.00  0.00    +0.000 C 
BRANCH  12  17
ATOM     13  N   UNL     1       9.513  11.760  18.825  0.00  0.00    +0.000 N 
ATOM     14  C   UNL     1       9.846  12.434  19.972  0.00  0.00    +0.000 A 
ATOM     15  C   UNL     1       9.632  11.540  20.989  0.00  0.00    +0.000 A 
ATOM     16  N   UNL     1       9.192  10.342  20.494  0.00  0.00    +0.000 NA
ATOM     17  C   UNL     1       9.127  10.479  19.184  0.00  0.00    +0.000 A 
BRANCH  13  19
ATOM     18  C   UNL     1      10.976  12.929  17.207  0.00  0.00    +0.000 C 
ATOM     19  C   UNL     1       9.613  12.309  17.485  0.00  0.00    +0.000 C 
ENDBRANCH  13  19
ENDBRANCH  12  17
ENDBRANCH   8  12
ENDBRANCH   1   9
BRANCH   6  20
ATOM     20  C   UNL     1       3.783   4.671  18.298  0.00  0.00    +0.000 C 
BRANCH  20  21
ATOM     21  C   UNL     1       2.980   5.834  18.846  0.00  0.00    +0.000 A 
ATOM     22  C   UNL     1       2.334   5.741  20.090  0.00  0.00    +0.000 A 
ATOM     23  C   UNL     1       1.682   6.848  20.643  0.00  0.00    +0.000 A 
ATOM     24  C   UNL     1       1.671   8.066  19.962  0.00  0.00    +0.000 A 
ATOM     25  C   UNL     1       2.290   8.169  18.717  0.00  0.00    +0.000 A 
ATOM     26  C   UNL     1       2.926   7.056  18.168  0.00  0.00    +0.000 A 
ATOM     27  F   UNL     1       3.516   7.182  16.969  0.00  0.00    +0.000 F 
ENDBRANCH  20  21
ENDBRANCH   6  20
TORSDOF 6
ENDMDL
MODEL 8
REMARK VINA RESULT:      -7.7      4.034      7.439
REMARK  Name = 
REMARK  7 active torsions:
REMARK  status: ('A' for Active; 'I' for Inactive)
REMARK    1  A    between atoms: C_1  and  C_2
REMARK    2  A    between atoms: C_2  and  N_3
REMARK    3  A    between atoms: C_7  and  C_8
REMARK    4  A    between atoms: C_8  and  N_9
REMARK    5  A    between atoms: C_10  and  C_12
REMARK    6  A    between atoms: N_17  and  C_18
REMARK    7  A    between atoms: C_18  and  C_19
REMARK                            x       y       z     vdW  Elec       q    Type
REMARK                         _______ _______ _______ _____ _____    ______ ____
ROOT
ATOM      1  C   UNL     1       5.912   6.152  16.035  0.00  0.00    +0.000 C 
ATOM      2  C   UNL     1       7.115   6.515  16.894  0.00  0.00    +0.000 C 
ATOM      3  C   UNL     1       7.226   5.575  18.082  0.00  0.00    +0.000 C 
ATOM      4  C   UNL     1       5.922   5.291  18.803  0.00  0.00    +0.000 C 
ATOM      5  O   UNL     1       5.944   4.690  19.877  0.00  0.00    +0.000 OA
ATOM      6  N   UNL     1       4.745   5.729  18.223  0.00  0.00    +0.000 N 
ATOM      7  C   UNL     1       4.662   6.311  16.882  0.00  0.00    +0.000 C 
ENDROOT
BRANCH   1   9
ATOM      8  N   UNL     1       6.644   4.826  14.037  0.00  0.00    +0.000 N 
ATOM      9  C   UNL     1       6.137   4.832  15.305  0.00  0.00    +0.000 C 
ATOM     10  O   UNL     1       5.811   3.780  15.860  0.00  0.00    +0.000 OA
ATOM     11  H   UNL     1       6.834   5.667  13.501  0.00  0.00    +0.000 HD
BRANCH   8  12
ATOM     12  C   UNL     1       6.782   3.561  13.349  0.00  0.00    +0.000 C 
BRANCH  12  17
ATOM     13  N   UNL     1       5.657   2.251  11.500  0.00  0.00    +0.000 N 
ATOM     14  C   UNL     1       4.490   2.313  10.784  0.00  0.00    +0.000 A 
ATOM     15  C   UNL     1       3.812   3.389  11.296  0.00  0.00    +0.000 A 
ATOM     16  N   UNL     1       4.536   3.988  12.291  0.00  0.00    +0.000 NA
ATOM     17  C   UNL     1       5.654   3.299  12.406  0.00  0.00    +0.000 A 
BRANCH  13  19
ATOM     18  C   UNL     1       6.203  -0.157  11.334  0.00  0.00    +0.000 C 
ATOM     19  C   UNL     1       6.711   1.277  11.280  0.00  0.00    +0.000 C 
ENDBRANCH  13  19
ENDBRANCH  12  17
ENDBRANCH   8  12
ENDBRANCH   1   9
BRANCH   6  20
ATOM     20  C   UNL     1       3.579   5.902  19.098  0.00  0.00    +0.000 C 
BRANCH  20  21
ATOM     21  C   UNL     1       2.639   4.716  19.016  0.00  0.00    +0.000 A 
ATOM     22  C   UNL     1       2.753   3.777  17.977  0.00  0.00    +0.000 A 
ATOM     23  C   UNL     1       1.956   2.628  17.958  0.00  0.00    +0.000 A 
ATOM     24  C   UNL     1       1.036   2.398  18.983  0.00  0.00    +0.000 A 
ATOM     25  C   UNL     1       0.897   3.331  20.010  0.00  0.00    +0.000 A 
ATOM     26  C   UNL     1       1.686   4.479  20.011  0.00  0.00    +0.000 A 
ATOM     27  F   UNL     1       1.534   5.361  21.013  0.00  0.00    +0.000 F 
ENDBRANCH  20  21
ENDBRANCH   6  20
TORSDOF 6
ENDMDL
MODEL 9
REMARK VINA RESULT:      -7.6      4.445      8.160
REMARK  Name = 
REMARK  7 active torsions:
REMARK  status: ('A' for Active; 'I' for Inactive)
REMARK    1  A    between atoms: C_1  and  C_2
REMARK    2  A    between atoms: C_2  and  N_3
REMARK    3  A    between atoms: C_7  and  C_8
REMARK    4  A    between atoms: C_8  and  N_9
REMARK    5  A    between atoms: C_10  and  C_12
REMARK    6  A    between atoms: N_17  and  C_18
REMARK    7  A    between atoms: C_18  and  C_19
REMARK                            x       y       z     vdW  Elec       q    Type
REMARK                         _______ _______ _______ _____ _____    ______ ____
ROOT
ATOM      1  C   UNL     1       6.514   4.627  18.455  0.00  0.00    +0.000 C 
ATOM      2  C   UNL     1       6.042   6.014  18.868  0.00  0.00    +0.000 C 
ATOM      3  C   UNL     1       5.109   6.596  17.820  0.00  0.00    +0.000 C 
ATOM      4  C   UNL     1       5.565   6.420  16.384  0.00  0.00    +0.000 C 
ATOM      5  O   UNL     1       4.970   7.013  15.484  0.00  0.00    +0.000 OA
ATOM      6  N   UNL     1       6.650   5.597  16.138  0.00  0.00    +0.000 N 
ATOM      7  C   UNL     1       7.289   4.760  17.155  0.00  0.00    +0.000 C 
ENDROOT
BRANCH   1   9
ATOM      8  N   UNL     1       5.145   2.921  19.680  0.00  0.00    +0.000 N 
ATOM      9  C   UNL     1       5.376   3.616  18.527  0.00  0.00    +0.000 C 
ATOM     10  O   UNL     1       4.700   3.403  17.517  0.00  0.00    +0.000 OA
ATOM     11  H   UNL     1       5.733   2.986  20.505  0.00  0.00    +0.000 HD
BRANCH   8  12
ATOM     12  C   UNL     1       4.100   1.921  19.693  0.00  0.00    +0.000 C 
BRANCH  12  17
ATOM     13  N   UNL     1       1.722   2.782  19.744  0.00  0.00    +0.000 N 
ATOM     14  C   UNL     1       0.806   3.165  20.690  0.00  0.00    +0.000 A 
ATOM     15  C   UNL     1       1.431   2.969  21.894  0.00  0.00    +0.000 A 
ATOM     16  N   UNL     1       2.701   2.492  21.708  0.00  0.00    +0.000 NA
ATOM     17  C   UNL     1       2.873   2.387  20.405  0.00  0.00    +0.000 A 
BRANCH  13  19
ATOM     18  C   UNL     1       1.481   4.278  17.786  0.00  0.00    +0.000 C 
ATOM     19  C   UNL     1       1.506   2.848  18.310  0.00  0.00    +0.000 C 
ENDBRANCH  13  19
ENDBRANCH  12  17
ENDBRANCH   8  12
ENDBRANCH   1   9
BRANCH   6  20
ATOM     20  C   UNL     1       7.384   5.797  14.883  0.00  0.00    +0.000 C 
BRANCH  20  21
ATOM     21  C   UNL     1       6.943   4.816  13.816  0.00  0.00    +0.000 A 
ATOM     22  C   UNL     1       5.866   3.942  14.041  0.00  0.00    +0.000 A 
ATOM     23  C   UNL     1       5.392   3.111  13.021  0.00  0.00    +0.000 A 
ATOM     24  C   UNL     1       5.985   3.146  11.758  0.00  0.00    +0.000 A 
ATOM     25  C   UNL     1       7.067   3.992  11.524  0.00  0.00    +0.000 A 
ATOM     26  C   UNL     1       7.541   4.807  12.551  0.00  0.00    +0.000 A 
ATOM     27  F   UNL     1       8.584   5.614  12.300  0.00  0.00    +0.000 F 
ENDBRANCH  20  21
ENDBRANCH   6  20
TORSDOF 6
ENDMDL
