MODEL 1
REMARK VINA RESULT:      -7.1      0.000      0.000
REMARK  Name = 
REMARK  14 active torsions:
REMARK  status: ('A' for Active; 'I' for Inactive)
REMARK    1  A    between atoms: C_1  and  C_2
REMARK    2  A    between atoms: C_2  and  O_3
REMARK    3  A    between atoms: O_3  and  C_4
REMARK    4  A    between atoms: C_4  and  C_6
REMARK    5  A    between atoms: C_7  and  C_8
REMARK    6  A    between atoms: C_12  and  C_13
REMARK    7  A    between atoms: C_13  and  C_15
REMARK    8  A    between atoms: C_16  and  C_17
REMARK    9  A    between atoms: C_17  and  C_18
REMARK   10  A    between atoms: C_19  and  C_20
REMARK   11  A    between atoms: C_22  and  O_23
REMARK   12  A    between atoms: C_24  and  N_25
REMARK   13  A    between atoms: N_25  and  C_26
REMARK   14  A    between atoms: N_25  and  C_27
REMARK                            x       y       z     vdW  Elec       q    Type
REMARK                         _______ _______ _______ _____ _____    ______ ____
ROOT
ATOM      1  C   UNL     1       4.277   5.539  17.782  0.00  0.00    +0.000 C 
ATOM      2  O   UNL     1       3.870   5.415  16.627  0.00  0.00    +0.000 OA
ENDROOT
BRANCH   1   3
ATOM      3  C   UNL     1       3.284   5.466  18.893  0.00  0.00    +0.000 A 
ATOM      4  C   UNL     1       2.681   6.700  19.309  0.00  0.00    +0.000 A 
ATOM      5  C   UNL     1       1.743   6.637  20.346  0.00  0.00    +0.000 A 
ATOM      6  C   UNL     1       1.014   7.828  20.913  0.00  0.00    +0.000 C 
ATOM      7  N   UNL     1       1.362   5.467  20.904  0.00  0.00    +0.000 NA
ATOM      8  C   UNL     1       1.954   4.340  20.474  0.00  0.00    +0.000 A 
ATOM      9  C   UNL     1       2.954   4.220  19.501  0.00  0.00    +0.000 A 
BRANCH   9  10
ATOM     10  N   UNL     1       3.502   2.991  19.110  0.00  0.00    +0.000 N 
ATOM     11  C   UNL     1       4.435   2.272  19.981  0.00  0.00    +0.000 C 
ATOM     12  C   UNL     1       2.800   2.131  18.156  0.00  0.00    +0.000 C 
ENDBRANCH   9  10
BRANCH   4  13
ATOM     13  C   UNL     1       2.997   8.036  18.653  0.00  0.00    +0.000 C 
ATOM     14  C   UNL     1       1.952   8.505  17.643  0.00  0.00    +0.000 C 
ENDBRANCH   4  13
BRANCH   8  15
ATOM     15  O   UNL     1       1.439   3.270  21.135  0.00  0.00    +0.000 OA
ATOM     16  H   UNL     1       1.400   2.642  20.391  0.00  0.00    +0.000 HD
ENDBRANCH   8  15
ENDBRANCH   1   3
BRANCH   1  21
ATOM     17  C   UNL     1       7.442   7.554  18.011  0.00  0.00    +0.000 A 
ATOM     18  C   UNL     1       8.315   6.654  18.629  0.00  0.00    +0.000 A 
ATOM     19  C   UNL     1       7.915   5.341  18.884  0.00  0.00    +0.000 A 
ATOM     20  C   UNL     1       6.633   4.917  18.528  0.00  0.00    +0.000 A 
ATOM     21  C   UNL     1       5.724   5.830  17.988  0.00  0.00    +0.000 A 
ATOM     22  C   UNL     1       6.145   7.136  17.702  0.00  0.00    +0.000 A 
BRANCH  17  24
ATOM     23  C   UNL     1       8.665   9.672  18.426  0.00  0.00    +0.000 C 
ATOM     24  C   UNL     1       7.927   8.881  17.633  0.00  0.00    +0.000 C 
BRANCH  23  25
ATOM     25  C   UNL     1       9.056  11.011  17.922  0.00  0.00    +0.000 C 
ATOM     26  O   UNL     1       8.274  11.895  17.614  0.00  0.00    +0.000 OA
BRANCH  25  27
ATOM     27  O   UNL     1      10.405  11.027  17.787  0.00  0.00    +0.000 OA
BRANCH  27  29
ATOM     28  C   UNL     1      11.452  11.892  19.753  0.00  0.00    +0.000 C 
ATOM     29  C   UNL     1      11.030  12.196  18.327  0.00  0.00    +0.000 C 
ENDBRANCH  27  29
ENDBRANCH  25  27
ENDBRANCH  23  25
ENDBRANCH  17  24
ENDBRANCH   1  21
TORSDOF 9
ENDMDL
MODEL 2
REMARK VINA RESULT:      -7.1      4.094      6.952
REMARK  Name = 
REMARK  14 active torsions:
REMARK  status: ('A' for Active; 'I' for Inactive)
REMARK    1  A    between atoms: C_1  and  C_2
REMARK    2  A    between atoms: C_2  and  O_3
REMARK    3  A    between atoms: O_3  and  C_4
REMARK    4  A    between atoms: C_4  and  C_6
REMARK    5  A    between atoms: C_7  and  C_8
REMARK    6  A    between atoms: C_12  and  C_13
REMARK    7  A    between atoms: C_13  and  C_15
REMARK    8  A    between atoms: C_16  and  C_17
REMARK    9  A    between atoms: C_17  and  C_18
REMARK   10  A    between atoms: C_19  and  C_20
REMARK   11  A    between atoms: C_22  and  O_23
REMARK   12  A    between atoms: C_24  and  N_25
REMARK   13  A    between atoms: N_25  and  C_26
REMARK   14  A    between atoms: N_25  and  C_27
REMARK                            x       y       z     vdW  Elec       q    Type
REMARK                         _______ _______ _______ _____ _____    ______ ____
ROOT
ATOM      1  C   UNL     1       2.333   5.574  17.974  0.00  0.00    +0.000 C 
ATOM      2  O   UNL     1       1.518   4.943  17.299  0.00  0.00    +0.000 OA
ENDROOT
BRANCH   1   3
ATOM      3  C   UNL     1       3.556   4.865  18.449  0.00  0.00    +0.000 A 
ATOM      4  C   UNL     1       4.819   5.366  17.988  0.00  0.00    +0.000 A 
ATOM      5  C   UNL     1       5.971   4.709  18.436  0.00  0.00    +0.000 A 
ATOM      6  C   UNL     1       7.378   5.092  18.054  0.00  0.00    +0.000 C 
ATOM      7  N   UNL     1       5.921   3.682  19.313  0.00  0.00    +0.000 NA
ATOM      8  C   UNL     1       4.713   3.256  19.718  0.00  0.00    +0.000 A 
ATOM      9  C   UNL     1       3.461   3.745  19.325  0.00  0.00    +0.000 A 
BRANCH   9  10
ATOM     10  N   UNL     1       2.250   3.239  19.817  0.00  0.00    +0.000 N 
ATOM     11  C   UNL     1       1.672   2.009  19.271  0.00  0.00    +0.000 C 
ATOM     12  C   UNL     1       1.811   3.546  21.179  0.00  0.00    +0.000 C 
ENDBRANCH   9  10
BRANCH   4  13
ATOM     13  C   UNL     1       4.944   6.578  17.077  0.00  0.00    +0.000 C 
ATOM     14  C   UNL     1       5.163   6.240  15.604  0.00  0.00    +0.000 C 
ENDBRANCH   4  13
BRANCH   8  15
ATOM     15  O   UNL     1       4.859   2.234  20.602  0.00  0.00    +0.000 OA
ATOM     16  H   UNL     1       4.146   2.471  21.221  0.00  0.00    +0.000 HD
ENDBRANCH   8  15
ENDBRANCH   1   3
BRANCH   1  21
ATOM     17  C   UNL     1       1.509   8.526  20.150  0.00  0.00    +0.000 A 
ATOM     18  C   UNL     1       1.688   9.595  19.269  0.00  0.00    +0.000 A 
ATOM     19  C   UNL     1       1.978   9.363  17.923  0.00  0.00    +0.000 A 
ATOM     20  C   UNL     1       2.097   8.056  17.447  0.00  0.00    +0.000 A 
ATOM     21  C   UNL     1       2.004   6.981  18.335  0.00  0.00    +0.000 A 
ATOM     22  C   UNL     1       1.677   7.222  19.677  0.00  0.00    +0.000 A 
BRANCH  17  24
ATOM     23  C   UNL     1       0.128   9.677  21.859  0.00  0.00    +0.000 C 
ATOM     24  C   UNL     1       1.075   8.790  21.522  0.00  0.00    +0.000 C 
BRANCH  23  25
ATOM     25  C   UNL     1      -0.184   9.866  23.297  0.00  0.00    +0.000 C 
ATOM     26  O   UNL     1       0.536   9.520  24.217  0.00  0.00    +0.000 OA
BRANCH  25  27
ATOM     27  O   UNL     1      -1.427  10.398  23.386  0.00  0.00    +0.000 OA
BRANCH  27  29
ATOM     28  C   UNL     1      -2.772  12.372  23.293  0.00  0.00    +0.000 C 
ATOM     29  C   UNL     1      -1.577  11.647  22.702  0.00  0.00    +0.000 C 
ENDBRANCH  27  29
ENDBRANCH  25  27
ENDBRANCH  23  25
ENDBRANCH  17  24
ENDBRANCH   1  21
TORSDOF 9
ENDMDL
MODEL 3
REMARK VINA RESULT:      -7.0      3.602      5.692
REMARK  Name = 
REMARK  14 active torsions:
REMARK  status: ('A' for Active; 'I' for Inactive)
REMARK    1  A    between atoms: C_1  and  C_2
REMARK    2  A    between atoms: C_2  and  O_3
REMARK    3  A    between atoms: O_3  and  C_4
REMARK    4  A    between atoms: C_4  and  C_6
REMARK    5  A    between atoms: C_7  and  C_8
REMARK    6  A    between atoms: C_12  and  C_13
REMARK    7  A    between atoms: C_13  and  C_15
REMARK    8  A    between atoms: C_16  and  C_17
REMARK    9  A    between atoms: C_17  and  C_18
REMARK   10  A    between atoms: C_19  and  C_20
REMARK   11  A    between atoms: C_22  and  O_23
REMARK   12  A    between atoms: C_24  and  N_25
REMARK   13  A    between atoms: N_25  and  C_26
REMARK   14  A    between atoms: N_25  and  C_27
REMARK                            x       y       z     vdW  Elec       q    Type
REMARK                         _______ _______ _______ _____ _____    ______ ____
ROOT
ATOM      1  C   UNL     1       2.400   5.927  18.384  0.00  0.00    +0.000 C 
ATOM      2  O   UNL     1       1.626   5.594  17.486  0.00  0.00    +0.000 OA
ENDROOT
BRANCH   1   3
ATOM      3  C   UNL     1       3.619   5.098  18.609  0.00  0.00    +0.000 A 
ATOM      4  C   UNL     1       4.850   5.588  18.058  0.00  0.00    +0.000 A 
ATOM      5  C   UNL     1       5.999   4.817  18.272  0.00  0.00    +0.000 A 
ATOM      6  C   UNL     1       7.373   5.173  17.766  0.00  0.00    +0.000 C 
ATOM      7  N   UNL     1       5.983   3.688  19.014  0.00  0.00    +0.000 NA
ATOM      8  C   UNL     1       4.804   3.277  19.512  0.00  0.00    +0.000 A 
ATOM      9  C   UNL     1       3.551   3.878  19.344  0.00  0.00    +0.000 A 
BRANCH   9  10
ATOM     10  N   UNL     1       2.376   3.377  19.918  0.00  0.00    +0.000 N 
ATOM     11  C   UNL     1       1.617   2.308  19.265  0.00  0.00    +0.000 C 
ATOM     12  C   UNL     1       2.154   3.463  21.362  0.00  0.00    +0.000 C 
ENDBRANCH   9  10
BRANCH   4  13
ATOM     13  C   UNL     1       4.949   6.901  17.297  0.00  0.00    +0.000 C 
ATOM     14  C   UNL     1       4.964   6.750  15.778  0.00  0.00    +0.000 C 
ENDBRANCH   4  13
BRANCH   8  15
ATOM     15  O   UNL     1       4.984   2.141  20.236  0.00  0.00    +0.000 OA
ATOM     16  H   UNL     1       5.328   2.541  21.055  0.00  0.00    +0.000 HD
ENDBRANCH   8  15
ENDBRANCH   1   3
BRANCH   1  21
ATOM     17  C   UNL     1       1.328   9.423  19.255  0.00  0.00    +0.000 A 
ATOM     18  C   UNL     1       0.998   9.297  20.608  0.00  0.00    +0.000 A 
ATOM     19  C   UNL     1       1.220   8.095  21.282  0.00  0.00    +0.000 A 
ATOM     20  C   UNL     1       1.771   7.004  20.607  0.00  0.00    +0.000 A 
ATOM     21  C   UNL     1       2.026   7.091  19.236  0.00  0.00    +0.000 A 
ATOM     22  C   UNL     1       1.833   8.312  18.574  0.00  0.00    +0.000 A 
BRANCH  17  24
ATOM     23  C   UNL     1       1.074  11.890  19.260  0.00  0.00    +0.000 C 
ATOM     24  C   UNL     1       1.212  10.728  18.606  0.00  0.00    +0.000 C 
BRANCH  23  25
ATOM     25  C   UNL     1       0.930  13.135  18.467  0.00  0.00    +0.000 C 
ATOM     26  O   UNL     1      -0.113  13.748  18.315  0.00  0.00    +0.000 OA
BRANCH  25  27
ATOM     27  O   UNL     1       2.127  13.399  17.887  0.00  0.00    +0.000 OA
BRANCH  27  29
ATOM     28  C   UNL     1       3.815  15.089  17.799  0.00  0.00    +0.000 C 
ATOM     29  C   UNL     1       3.012  14.173  18.704  0.00  0.00    +0.000 C 
ENDBRANCH  27  29
ENDBRANCH  25  27
ENDBRANCH  23  25
ENDBRANCH  17  24
ENDBRANCH   1  21
TORSDOF 9
ENDMDL
MODEL 4
REMARK VINA RESULT:      -7.0      4.137      6.031
REMARK  Name = 
REMARK  14 active torsions:
REMARK  status: ('A' for Active; 'I' for Inactive)
REMARK    1  A    between atoms: C_1  and  C_2
REMARK    2  A    between atoms: C_2  and  O_3
REMARK    3  A    between atoms: O_3  and  C_4
REMARK    4  A    between atoms: C_4  and  C_6
REMARK    5  A    between atoms: C_7  and  C_8
REMARK    6  A    between atoms: C_12  and  C_13
REMARK    7  A    between atoms: C_13  and  C_15
REMARK    8  A    between atoms: C_16  and  C_17
REMARK    9  A    between atoms: C_17  and  C_18
REMARK   10  A    between atoms: C_19  and  C_20
REMARK   11  A    between atoms: C_22  and  O_23
REMARK   12  A    between atoms: C_24  and  N_25
REMARK   13  A    between atoms: N_25  and  C_26
REMARK   14  A    between atoms: N_25  and  C_27
REMARK                            x       y       z     vdW  Elec       q    Type
REMARK                         _______ _______ _______ _____ _____    ______ ____
ROOT
ATOM      1  C   UNL     1       3.189   4.243  17.592  0.00  0.00    +0.000 C 
ATOM      2  O   UNL     1       2.337   3.873  16.783  0.00  0.00    +0.000 OA
ENDROOT
BRANCH   1   3
ATOM      3  C   UNL     1       2.741   4.620  18.964  0.00  0.00    +0.000 A 
ATOM      4  C   UNL     1       2.273   5.963  19.151  0.00  0.00    +0.000 A 
ATOM      5  C   UNL     1       1.845   6.320  20.435  0.00  0.00    +0.000 A 
ATOM      6  C   UNL     1       1.328   7.684  20.815  0.00  0.00    +0.000 C 
ATOM      7  N   UNL     1       1.810   5.436  21.456  0.00  0.00    +0.000 NA
ATOM      8  C   UNL     1       2.254   4.189  21.226  0.00  0.00    +0.000 A 
ATOM      9  C   UNL     1       2.777   3.676  20.033  0.00  0.00    +0.000 A 
BRANCH   9  10
ATOM     10  N   UNL     1       3.204   2.349  19.888  0.00  0.00    +0.000 N 
ATOM     11  C   UNL     1       2.459   1.407  19.050  0.00  0.00    +0.000 C 
ATOM     12  C   UNL     1       4.611   1.993  20.071  0.00  0.00    +0.000 C 
ENDBRANCH   9  10
BRANCH   4  13
ATOM     13  C   UNL     1       2.198   6.976  18.018  0.00  0.00    +0.000 C 
ATOM     14  C   UNL     1       3.473   7.792  17.816  0.00  0.00    +0.000 C 
ENDBRANCH   4  13
BRANCH   8  15
ATOM     15  O   UNL     1       2.130   3.442  22.355  0.00  0.00    +0.000 OA
ATOM     16  H   UNL     1       2.504   2.607  22.021  0.00  0.00    +0.000 HD
ENDBRANCH   8  15
ENDBRANCH   1   3
BRANCH   1  21
ATOM     17  C   UNL     1       6.091   4.246  15.205  0.00  0.00    +0.000 A 
ATOM     18  C   UNL     1       7.098   4.837  15.972  0.00  0.00    +0.000 A 
ATOM     19  C   UNL     1       6.875   5.148  17.315  0.00  0.00    +0.000 A 
ATOM     20  C   UNL     1       5.638   4.874  17.901  0.00  0.00    +0.000 A 
ATOM     21  C   UNL     1       4.597   4.361  17.123  0.00  0.00    +0.000 A 
ATOM     22  C   UNL     1       4.841   4.019  15.785  0.00  0.00    +0.000 A 
BRANCH  17  24
ATOM     23  C   UNL     1       5.469   3.399  12.958  0.00  0.00    +0.000 C 
ATOM     24  C   UNL     1       6.390   3.807  13.842  0.00  0.00    +0.000 C 
BRANCH  23  25
ATOM     25  C   UNL     1       5.924   2.947  11.620  0.00  0.00    +0.000 C 
ATOM     26  O   UNL     1       6.915   2.267  11.414  0.00  0.00    +0.000 OA
BRANCH  25  27
ATOM     27  O   UNL     1       5.102   3.498  10.694  0.00  0.00    +0.000 OA
BRANCH  27  29
ATOM     28  C   UNL     1       2.916   3.919   9.825  0.00  0.00    +0.000 C 
ATOM     29  C   UNL     1       3.718   3.185  10.883  0.00  0.00    +0.000 C 
ENDBRANCH  27  29
ENDBRANCH  25  27
ENDBRANCH  23  25
ENDBRANCH  17  24
ENDBRANCH   1  21
TORSDOF 9
ENDMDL
MODEL 5
REMARK VINA RESULT:      -6.9      1.450      2.083
REMARK  Name = 
REMARK  14 active torsions:
REMARK  status: ('A' for Active; 'I' for Inactive)
REMARK    1  A    between atoms: C_1  and  C_2
REMARK    2  A    between atoms: C_2  and  O_3
REMARK    3  A    between atoms: O_3  and  C_4
REMARK    4  A    between atoms: C_4  and  C_6
REMARK    5  A    between atoms: C_7  and  C_8
REMARK    6  A    between atoms: C_12  and  C_13
REMARK    7  A    between atoms: C_13  and  C_15
REMARK    8  A    between atoms: C_16  and  C_17
REMARK    9  A    between atoms: C_17  and  C_18
REMARK   10  A    between atoms: C_19  and  C_20
REMARK   11  A    between atoms: C_22  and  O_23
REMARK   12  A    between atoms: C_24  and  N_25
REMARK   13  A    between atoms: N_25  and  C_26
REMARK   14  A    between atoms: N_25  and  C_27
REMARK                            x       y       z     vdW  Elec       q    Type
REMARK                         _______ _______ _______ _____ _____    ______ ____
ROOT
ATOM      1  C   UNL     1       3.258   4.324  17.395  0.00  0.00    +0.000 C 
ATOM      2  O   UNL     1       2.448   3.777  16.644  0.00  0.00    +0.000 OA
ENDROOT
BRANCH   1   3
ATOM      3  C   UNL     1       2.812   4.683  18.772  0.00  0.00    +0.000 A 
ATOM      4  C   UNL     1       2.306   6.011  18.968  0.00  0.00    +0.000 A 
ATOM      5  C   UNL     1       1.879   6.351  20.257  0.00  0.00    +0.000 A 
ATOM      6  C   UNL     1       1.324   7.697  20.647  0.00  0.00    +0.000 C 
ATOM      7  N   UNL     1       1.879   5.462  21.275  0.00  0.00    +0.000 NA
ATOM      8  C   UNL     1       2.358   4.230  21.036  0.00  0.00    +0.000 A 
ATOM      9  C   UNL     1       2.886   3.737  19.837  0.00  0.00    +0.000 A 
BRANCH   9  10
ATOM     10  N   UNL     1       3.351   2.424  19.684  0.00  0.00    +0.000 N 
ATOM     11  C   UNL     1       2.637   1.469  18.832  0.00  0.00    +0.000 C 
ATOM     12  C   UNL     1       4.767   2.106  19.872  0.00  0.00    +0.000 C 
ENDBRANCH   9  10
BRANCH   4  13
ATOM     13  C   UNL     1       2.190   7.025  17.839  0.00  0.00    +0.000 C 
ATOM     14  C   UNL     1       3.257   8.116  17.861  0.00  0.00    +0.000 C 
ENDBRANCH   4  13
BRANCH   8  15
ATOM     15  O   UNL     1       2.268   3.476  22.164  0.00  0.00    +0.000 OA
ATOM     16  H   UNL     1       1.356   3.703  22.420  0.00  0.00    +0.000 HD
ENDBRANCH   8  15
ENDBRANCH   1   3
BRANCH   1  21
ATOM     17  C   UNL     1       6.677   5.876  17.231  0.00  0.00    +0.000 A 
ATOM     18  C   UNL     1       7.267   5.167  16.180  0.00  0.00    +0.000 A 
ATOM     19  C   UNL     1       6.523   4.246  15.441  0.00  0.00    +0.000 A 
ATOM     20  C   UNL     1       5.180   4.021  15.750  0.00  0.00    +0.000 A 
ATOM     21  C   UNL     1       4.603   4.659  16.850  0.00  0.00    +0.000 A 
ATOM     22  C   UNL     1       5.347   5.609  17.565  0.00  0.00    +0.000 A 
BRANCH  17  24
ATOM     23  C   UNL     1       7.561   8.183  17.444  0.00  0.00    +0.000 C 
ATOM     24  C   UNL     1       7.436   6.930  17.903  0.00  0.00    +0.000 C 
BRANCH  23  25
ATOM     25  C   UNL     1       8.395   9.138  18.214  0.00  0.00    +0.000 C 
ATOM     26  O   UNL     1       9.073   8.847  19.184  0.00  0.00    +0.000 OA
BRANCH  25  27
ATOM     27  O   UNL     1       8.189  10.377  17.702  0.00  0.00    +0.000 OA
BRANCH  27  29
ATOM     28  C   UNL     1       8.665  12.714  17.855  0.00  0.00    +0.000 C 
ATOM     29  C   UNL     1       9.228  11.313  18.006  0.00  0.00    +0.000 C 
ENDBRANCH  27  29
ENDBRANCH  25  27
ENDBRANCH  23  25
ENDBRANCH  17  24
ENDBRANCH   1  21
TORSDOF 9
ENDMDL
MODEL 6
REMARK VINA RESULT:      -6.8      0.793      1.295
REMARK  Name = 
REMARK  14 active torsions:
REMARK  status: ('A' for Active; 'I' for Inactive)
REMARK    1  A    between atoms: C_1  and  C_2
REMARK    2  A    between atoms: C_2  and  O_3
REMARK    3  A    between atoms: O_3  and  C_4
REMARK    4  A    between atoms: C_4  and  C_6
REMARK    5  A    between atoms: C_7  and  C_8
REMARK    6  A    between atoms: C_12  and  C_13
REMARK    7  A    between atoms: C_13  and  C_15
REMARK    8  A    between atoms: C_16  and  C_17
REMARK    9  A    between atoms: C_17  and  C_18
REMARK   10  A    between atoms: C_19  and  C_20
REMARK   11  A    between atoms: C_22  and  O_23
REMARK   12  A    between atoms: C_24  and  N_25
REMARK   13  A    between atoms: N_25  and  C_26
REMARK   14  A    between atoms: N_25  and  C_27
REMARK                            x       y       z     vdW  Elec       q    Type
REMARK                         _______ _______ _______ _____ _____    ______ ____
ROOT
ATOM      1  C   UNL     1       4.345   5.614  17.791  0.00  0.00    +0.000 C 
ATOM      2  O   UNL     1       3.971   5.536  16.620  0.00  0.00    +0.000 OA
ENDROOT
BRANCH   1   3
ATOM      3  C   UNL     1       3.320   5.503  18.868  0.00  0.00    +0.000 A 
ATOM      4  C   UNL     1       2.690   6.719  19.296  0.00  0.00    +0.000 A 
ATOM      5  C   UNL     1       1.722   6.620  20.302  0.00  0.00    +0.000 A 
ATOM      6  C   UNL     1       0.962   7.788  20.876  0.00  0.00    +0.000 C 
ATOM      7  N   UNL     1       1.338   5.432  20.820  0.00  0.00    +0.000 NA
ATOM      8  C   UNL     1       1.956   4.323  20.380  0.00  0.00    +0.000 A 
ATOM      9  C   UNL     1       2.986   4.238  19.436  0.00  0.00    +0.000 A 
BRANCH   9  10
ATOM     10  N   UNL     1       3.559   3.025  19.031  0.00  0.00    +0.000 N 
ATOM     11  C   UNL     1       4.429   2.267  19.933  0.00  0.00    +0.000 C 
ATOM     12  C   UNL     1       2.927   2.210  17.994  0.00  0.00    +0.000 C 
ENDBRANCH   9  10
BRANCH   4  13
ATOM     13  C   UNL     1       3.010   8.074  18.683  0.00  0.00    +0.000 C 
ATOM     14  C   UNL     1       1.991   8.556  17.652  0.00  0.00    +0.000 C 
ENDBRANCH   4  13
BRANCH   8  15
ATOM     15  O   UNL     1       1.434   3.231  20.999  0.00  0.00    +0.000 OA
ATOM     16  H   UNL     1       0.547   3.243  20.596  0.00  0.00    +0.000 HD
ENDBRANCH   8  15
ENDBRANCH   1   3
BRANCH   1  21
ATOM     17  C   UNL     1       7.532   7.587  18.068  0.00  0.00    +0.000 A 
ATOM     18  C   UNL     1       8.359   6.705  18.769  0.00  0.00    +0.000 A 
ATOM     19  C   UNL     1       7.924   5.413  19.069  0.00  0.00    +0.000 A 
ATOM     20  C   UNL     1       6.653   4.993  18.675  0.00  0.00    +0.000 A 
ATOM     21  C   UNL     1       5.785   5.891  18.049  0.00  0.00    +0.000 A 
ATOM     22  C   UNL     1       6.243   7.176  17.720  0.00  0.00    +0.000 A 
BRANCH  17  24
ATOM     23  C   UNL     1       8.850   9.662  18.402  0.00  0.00    +0.000 C 
ATOM     24  C   UNL     1       8.058   8.886  17.649  0.00  0.00    +0.000 C 
BRANCH  23  25
ATOM     25  C   UNL     1       9.278  10.974  17.860  0.00  0.00    +0.000 C 
ATOM     26  O   UNL     1      10.437  11.319  17.705  0.00  0.00    +0.000 OA
BRANCH  25  27
ATOM     27  O   UNL     1       8.167  11.725  17.663  0.00  0.00    +0.000 OA
BRANCH  27  29
ATOM     28  C   UNL     1       7.065  13.844  17.558  0.00  0.00    +0.000 C 
ATOM     29  C   UNL     1       8.383  13.133  17.807  0.00  0.00    +0.000 C 
ENDBRANCH  27  29
ENDBRANCH  25  27
ENDBRANCH  23  25
ENDBRANCH  17  24
ENDBRANCH   1  21
TORSDOF 9
ENDMDL
MODEL 7
REMARK VINA RESULT:      -6.8      3.946      7.006
REMARK  Name = 
REMARK  14 active torsions:
REMARK  status: ('A' for Active; 'I' for Inactive)
REMARK    1  A    between atoms: C_1  and  C_2
REMARK    2  A    between atoms: C_2  and  O_3
REMARK    3  A    between atoms: O_3  and  C_4
REMARK    4  A    between atoms: C_4  and  C_6
REMARK    5  A    between atoms: C_7  and  C_8
REMARK    6  A    between atoms: C_12  and  C_13
REMARK    7  A    between atoms: C_13  and  C_15
REMARK    8  A    between atoms: C_16  and  C_17
REMARK    9  A    between atoms: C_17  and  C_18
REMARK   10  A    between atoms: C_19  and  C_20
REMARK   11  A    between atoms: C_22  and  O_23
REMARK   12  A    between atoms: C_24  and  N_25
REMARK   13  A    between atoms: N_25  and  C_26
REMARK   14  A    between atoms: N_25  and  C_27
REMARK                            x       y       z     vdW  Elec       q    Type
REMARK                         _______ _______ _______ _____ _____    ______ ____
ROOT
ATOM      1  C   UNL     1       2.395   6.053  18.403  0.00  0.00    +0.000 C 
ATOM      2  O   UNL     1       1.634   5.776  17.475  0.00  0.00    +0.000 OA
ENDROOT
BRANCH   1   3
ATOM      3  C   UNL     1       3.606   5.204  18.600  0.00  0.00    +0.000 A 
ATOM      4  C   UNL     1       4.836   5.685  18.039  0.00  0.00    +0.000 A 
ATOM      5  C   UNL     1       5.977   4.897  18.228  0.00  0.00    +0.000 A 
ATOM      6  C   UNL     1       7.349   5.241  17.708  0.00  0.00    +0.000 C 
ATOM      7  N   UNL     1       5.955   3.758  18.954  0.00  0.00    +0.000 NA
ATOM      8  C   UNL     1       4.778   3.356  19.462  0.00  0.00    +0.000 A 
ATOM      9  C   UNL     1       3.531   3.976  19.320  0.00  0.00    +0.000 A 
BRANCH   9  10
ATOM     10  N   UNL     1       2.357   3.482  19.903  0.00  0.00    +0.000 N 
ATOM     11  C   UNL     1       1.579   2.427  19.249  0.00  0.00    +0.000 C 
ATOM     12  C   UNL     1       2.152   3.558  21.350  0.00  0.00    +0.000 C 
ENDBRANCH   9  10
BRANCH   4  13
ATOM     13  C   UNL     1       4.942   7.008  17.295  0.00  0.00    +0.000 C 
ATOM     14  C   UNL     1       4.946   6.876  15.774  0.00  0.00    +0.000 C 
ENDBRANCH   4  13
BRANCH   8  15
ATOM     15  O   UNL     1       4.952   2.207  20.168  0.00  0.00    +0.000 OA
ATOM     16  H   UNL     1       4.023   2.041  20.411  0.00  0.00    +0.000 HD
ENDBRANCH   8  15
ENDBRANCH   1   3
BRANCH   1  21
ATOM     17  C   UNL     1       0.885   9.319  19.489  0.00  0.00    +0.000 A 
ATOM     18  C   UNL     1       0.930   9.210  20.882  0.00  0.00    +0.000 A 
ATOM     19  C   UNL     1       1.550   8.116  21.488  0.00  0.00    +0.000 A 
ATOM     20  C   UNL     1       2.126   7.115  20.704  0.00  0.00    +0.000 A 
ATOM     21  C   UNL     1       2.014   7.169  19.312  0.00  0.00    +0.000 A 
ATOM     22  C   UNL     1       1.421   8.289  18.712  0.00  0.00    +0.000 A 
BRANCH  17  24
ATOM     23  C   UNL     1      -0.893  10.658  18.395  0.00  0.00    +0.000 C 
ATOM     24  C   UNL     1       0.351  10.537  18.880  0.00  0.00    +0.000 C 
BRANCH  23  25
ATOM     25  C   UNL     1      -1.286  11.944  17.771  0.00  0.00    +0.000 C 
ATOM     26  O   UNL     1      -0.902  13.042  18.136  0.00  0.00    +0.000 OA
BRANCH  25  27
ATOM     27  O   UNL     1      -2.200  11.676  16.806  0.00  0.00    +0.000 OA
BRANCH  27  29
ATOM     28  C   UNL     1      -2.955   9.774  15.572  0.00  0.00    +0.000 C 
ATOM     29  C   UNL     1      -2.841  10.404  16.948  0.00  0.00    +0.000 C 
ENDBRANCH  27  29
ENDBRANCH  25  27
ENDBRANCH  23  25
ENDBRANCH  17  24
ENDBRANCH   1  21
TORSDOF 9
ENDMDL
MODEL 8
REMARK VINA RESULT:      -6.7      3.663      6.270
REMARK  Name = 
REMARK  14 active torsions:
REMARK  status: ('A' for Active; 'I' for Inactive)
REMARK    1  A    between atoms: C_1  and  C_2
REMARK    2  A    between atoms: C_2  and  O_3
REMARK    3  A    between atoms: O_3  and  C_4
REMARK    4  A    between atoms: C_4  and  C_6
REMARK    5  A    between atoms: C_7  and  C_8
REMARK    6  A    between atoms: C_12  and  C_13
REMARK    7  A    between atoms: C_13  and  C_15
REMARK    8  A    between atoms: C_16  and  C_17
REMARK    9  A    between atoms: C_17  and  C_18
REMARK   10  A    between atoms: C_19  and  C_20
REMARK   11  A    between atoms: C_22  and  O_23
REMARK   12  A    between atoms: C_24  and  N_25
REMARK   13  A    between atoms: N_25  and  C_26
REMARK   14  A    between atoms: N_25  and  C_27
REMARK                            x       y       z     vdW  Elec       q    Type
REMARK                         _______ _______ _______ _____ _____    ______ ____
ROOT
ATOM      1  C   UNL     1       2.394   5.884  18.413  0.00  0.00    +0.000 C 
ATOM      2  O   UNL     1       1.614   5.548  17.521  0.00  0.00    +0.000 OA
ENDROOT
BRANCH   1   3
ATOM      3  C   UNL     1       3.619   5.061  18.628  0.00  0.00    +0.000 A 
ATOM      4  C   UNL     1       4.844   5.558  18.070  0.00  0.00    +0.000 A 
ATOM      5  C   UNL     1       5.998   4.792  18.276  0.00  0.00    +0.000 A 
ATOM      6  C   UNL     1       7.368   5.155  17.761  0.00  0.00    +0.000 C 
ATOM      7  N   UNL     1       5.992   3.661  19.015  0.00  0.00    +0.000 NA
ATOM      8  C   UNL     1       4.819   3.243  19.519  0.00  0.00    +0.000 A 
ATOM      9  C   UNL     1       3.562   3.839  19.361  0.00  0.00    +0.000 A 
BRANCH   9  10
ATOM     10  N   UNL     1       2.392   3.331  19.941  0.00  0.00    +0.000 N 
ATOM     11  C   UNL     1       1.629   2.265  19.286  0.00  0.00    +0.000 C 
ATOM     12  C   UNL     1       2.183   3.405  21.387  0.00  0.00    +0.000 C 
ENDBRANCH   9  10
BRANCH   4  13
ATOM     13  C   UNL     1       4.932   6.873  17.312  0.00  0.00    +0.000 C 
ATOM     14  C   UNL     1       4.958   6.724  15.792  0.00  0.00    +0.000 C 
ENDBRANCH   4  13
BRANCH   8  15
ATOM     15  O   UNL     1       5.008   2.106  20.239  0.00  0.00    +0.000 OA
ATOM     16  H   UNL     1       4.488   2.343  21.028  0.00  0.00    +0.000 HD
ENDBRANCH   8  15
ENDBRANCH   1   3
BRANCH   1  21
ATOM     17  C   UNL     1       1.455   9.414  19.299  0.00  0.00    +0.000 A 
ATOM     18  C   UNL     1       1.019   9.276  20.620  0.00  0.00    +0.000 A 
ATOM     19  C   UNL     1       1.125   8.048  21.275  0.00  0.00    +0.000 A 
ATOM     20  C   UNL     1       1.662   6.943  20.612  0.00  0.00    +0.000 A 
ATOM     21  C   UNL     1       2.023   7.047  19.266  0.00  0.00    +0.000 A 
ATOM     22  C   UNL     1       1.947   8.293  18.626  0.00  0.00    +0.000 A 
BRANCH  17  24
ATOM     23  C   UNL     1       0.826  11.810  19.177  0.00  0.00    +0.000 C 
ATOM     24  C   UNL     1       1.459  10.739  18.679  0.00  0.00    +0.000 C 
BRANCH  23  25
ATOM     25  C   UNL     1       0.887  13.084  18.419  0.00  0.00    +0.000 C 
ATOM     26  O   UNL     1       1.892  13.538  17.899  0.00  0.00    +0.000 OA
BRANCH  25  27
ATOM     27  O   UNL     1      -0.333  13.671  18.494  0.00  0.00    +0.000 OA
BRANCH  27  29
ATOM     28  C   UNL     1      -1.599  14.342  20.407  0.00  0.00    +0.000 C 
ATOM     29  C   UNL     1      -0.430  14.684  19.502  0.00  0.00    +0.000 C 
ENDBRANCH  27  29
ENDBRANCH  25  27
ENDBRANCH  23  25
ENDBRANCH  17  24
ENDBRANCH   1  21
TORSDOF 9
ENDMDL
MODEL 9
REMARK VINA RESULT:      -6.7      5.239      8.418
REMARK  Name = 
REMARK  14 active torsions:
REMARK  status: ('A' for Active; 'I' for Inactive)
REMARK    1  A    between atoms: C_1  and  C_2
REMARK    2  A    between atoms: C_2  and  O_3
REMARK    3  A    between atoms: O_3  and  C_4
REMARK    4  A    between atoms: C_4  and  C_6
REMARK    5  A    between atoms: C_7  and  C_8
REMARK    6  A    between atoms: C_12  and  C_13
REMARK    7  A    between atoms: C_13  and  C_15
REMARK    8  A    between atoms: C_16  and  C_17
REMARK    9  A    between atoms: C_17  and  C_18
REMARK   10  A    between atoms: C_19  and  C_20
REMARK   11  A    between atoms: C_22  and  O_23
REMARK   12  A    between atoms: C_24  and  N_25
REMARK   13  A    between atoms: N_25  and  C_26
REMARK   14  A    between atoms: N_25  and  C_27
REMARK                            x       y       z     vdW  Elec       q    Type
REMARK                         _______ _______ _______ _____ _____    ______ ____
ROOT
ATOM      1  C   UNL     1      -0.405  11.349  18.935  0.00  0.00    +0.000 C 
ATOM      2  O   UNL     1       0.326  12.100  18.288  0.00  0.00    +0.000 OA
ENDROOT
BRANCH   1   3
ATOM      3  C   UNL     1      -1.803  11.790  19.210  0.00  0.00    +0.000 A 
ATOM      4  C   UNL     1      -2.834  11.241  18.376  0.00  0.00    +0.000 A 
ATOM      5  C   UNL     1      -4.150  11.645  18.634  0.00  0.00    +0.000 A 
ATOM      6  C   UNL     1      -5.355  11.177  17.860  0.00  0.00    +0.000 C 
ATOM      7  N   UNL     1      -4.464  12.470  19.658  0.00  0.00    +0.000 NA
ATOM      8  C   UNL     1      -3.460  12.950  20.411  0.00  0.00    +0.000 A 
ATOM      9  C   UNL     1      -2.090  12.711  20.260  0.00  0.00    +0.000 A 
BRANCH   9  10
ATOM     10  N   UNL     1      -1.116  13.251  21.111  0.00  0.00    +0.000 N 
ATOM     11  C   UNL     1      -0.632  14.621  20.925  0.00  0.00    +0.000 C 
ATOM     12  C   UNL     1      -0.953  12.746  22.474  0.00  0.00    +0.000 C 
ENDBRANCH   9  10
BRANCH   4  13
ATOM     13  C   UNL     1      -2.554  10.234  17.271  0.00  0.00    +0.000 C 
ATOM     14  C   UNL     1      -2.585  10.820  15.861  0.00  0.00    +0.000 C 
ENDBRANCH   4  13
BRANCH   8  15
ATOM     15  O   UNL     1      -3.964  13.745  21.392  0.00  0.00    +0.000 OA
ATOM     16  H   UNL     1      -3.163  13.828  21.940  0.00  0.00    +0.000 HD
ENDBRANCH   8  15
ENDBRANCH   1   3
BRANCH   1  21
ATOM     17  C   UNL     1       1.833   8.335  19.110  0.00  0.00    +0.000 A 
ATOM     18  C   UNL     1       1.630   7.898  20.422  0.00  0.00    +0.000 A 
ATOM     19  C   UNL     1       0.679   8.518  21.236  0.00  0.00    +0.000 A 
ATOM     20  C   UNL     1      -0.073   9.586  20.745  0.00  0.00    +0.000 A 
ATOM     21  C   UNL     1       0.180  10.086  19.465  0.00  0.00    +0.000 A 
ATOM     22  C   UNL     1       1.111   9.435  18.643  0.00  0.00    +0.000 A 
BRANCH  17  24
ATOM     23  C   UNL     1       2.935   6.263  18.307  0.00  0.00    +0.000 C 
ATOM     24  C   UNL     1       2.736   7.587  18.236  0.00  0.00    +0.000 C 
BRANCH  23  25
ATOM     25  C   UNL     1       3.910   5.644  17.377  0.00  0.00    +0.000 C 
ATOM     26  O   UNL     1       4.125   4.447  17.288  0.00  0.00    +0.000 OA
BRANCH  25  27
ATOM     27  O   UNL     1       4.563   6.642  16.733  0.00  0.00    +0.000 OA
BRANCH  27  29
ATOM     28  C   UNL     1       6.821   6.780  17.502  0.00  0.00    +0.000 C 
ATOM     29  C   UNL     1       5.912   6.322  16.377  0.00  0.00    +0.000 C 
ENDBRANCH  27  29
ENDBRANCH  25  27
ENDBRANCH  23  25
ENDBRANCH  17  24
ENDBRANCH   1  21
TORSDOF 9
ENDMDL
