MODEL 1
REMARK VINA RESULT:      -8.8      0.000      0.000
REMARK  Name = 
REMARK  6 active torsions:
REMARK  status: ('A' for Active; 'I' for Inactive)
REMARK    1  A    between atoms: C_2  and  O_3
REMARK    2  A    between atoms: C_2  and  C_4
REMARK    3  A    between atoms: C_4  and  N_5
REMARK    4  A    between atoms: C_8  and  C_9
REMARK    5  A    between atoms: C_12  and  O_13
REMARK    6  A    between atoms: C_15  and  O_16
REMARK                            x       y       z     vdW  Elec       q    Type
REMARK                         _______ _______ _______ _____ _____    ______ ____
ROOT
ATOM      1  N   UNL     1       6.539   5.241  17.714  0.00  0.00    +0.000 N 
ATOM      2  C   UNL     1       5.489   5.097  18.620  0.00  0.00    +0.000 A 
ATOM      3  O   UNL     1       5.458   5.674  19.699  0.00  0.00    +0.000 OA
ATOM      4  C   UNL     1       4.349   4.157  18.206  0.00  0.00    +0.000 A 
ATOM      5  N   UNL     1       4.239   3.744  16.975  0.00  0.00    +0.000 NA
ATOM      6  C   UNL     1       5.210   4.101  16.030  0.00  0.00    +0.000 A 
ATOM      7  C   UNL     1       4.995   3.698  14.709  0.00  0.00    +0.000 A 
ATOM      8  C   UNL     1       5.960   3.940  13.739  0.00  0.00    +0.000 A 
ATOM      9 CL   UNL     1       5.695   3.432  12.117  0.00  0.00    +0.000 Cl
ATOM     10  C   UNL     1       7.147   4.583  14.076  0.00  0.00    +0.000 A 
ATOM     11  C   UNL     1       7.367   5.001  15.393  0.00  0.00    +0.000 A 
ATOM     12  C   UNL     1       6.396   4.773  16.377  0.00  0.00    +0.000 A 
ENDROOT
BRANCH   4  13
ATOM     13  C   UNL     1       3.414   3.644  19.256  0.00  0.00    +0.000 A 
ATOM     14  C   UNL     1       2.150   4.245  19.403  0.00  0.00    +0.000 A 
ATOM     15  C   UNL     1       1.284   3.867  20.429  0.00  0.00    +0.000 A 
ATOM     16  C   UNL     1       1.685   2.895  21.334  0.00  0.00    +0.000 A 
ATOM     17  C   UNL     1       2.922   2.273  21.210  0.00  0.00    +0.000 A 
ATOM     18  C   UNL     1       3.784   2.646  20.172  0.00  0.00    +0.000 A 
BRANCH  16  19
ATOM     19  O   UNL     1       0.886   2.525  22.373  0.00  0.00    +0.000 OA
ATOM     20  H   UNL     1       0.029   2.231  22.021  0.00  0.00    +0.000 HD
ENDBRANCH  16  19
BRANCH  18  21
ATOM     21  O   UNL     1       4.987   2.004  20.060  0.00  0.00    +0.000 OA
ATOM     22  H   UNL     1       4.853   1.047  20.164  0.00  0.00    +0.000 HD
ENDBRANCH  18  21
ENDBRANCH   4  13
BRANCH   1  23
ATOM     23  C   UNL     1       7.769   5.862  18.202  0.00  0.00    +0.000 C 
BRANCH  23  25
ATOM     24  O   UNL     1       7.243   7.986  17.180  0.00  0.00    +0.000 OA
ATOM     25  C   UNL     1       7.872   7.373  18.031  0.00  0.00    +0.000 C 
BRANCH  25  26
ATOM     26  O   UNL     1       8.662   8.003  18.927  0.00  0.00    +0.000 OA
ATOM     27  H   UNL     1       8.201   8.729  19.390  0.00  0.00    +0.000 HD
ENDBRANCH  25  26
ENDBRANCH  23  25
ENDBRANCH   1  23
TORSDOF 6
ENDMDL
MODEL 2
REMARK VINA RESULT:      -7.9      0.872      1.411
REMARK  Name = 
REMARK  6 active torsions:
REMARK  status: ('A' for Active; 'I' for Inactive)
REMARK    1  A    between atoms: C_2  and  O_3
REMARK    2  A    between atoms: C_2  and  C_4
REMARK    3  A    between atoms: C_4  and  N_5
REMARK    4  A    between atoms: C_8  and  C_9
REMARK    5  A    between atoms: C_12  and  O_13
REMARK    6  A    between atoms: C_15  and  O_16
REMARK                            x       y       z     vdW  Elec       q    Type
REMARK                         _______ _______ _______ _____ _____    ______ ____
ROOT
ATOM      1  N   UNL     1       6.534   5.272  17.690  0.00  0.00    +0.000 N 
ATOM      2  C   UNL     1       5.501   5.198  18.624  0.00  0.00    +0.000 A 
ATOM      3  O   UNL     1       5.523   5.801  19.689  0.00  0.00    +0.000 OA
ATOM      4  C   UNL     1       4.310   4.301  18.260  0.00  0.00    +0.000 A 
ATOM      5  N   UNL     1       4.151   3.865  17.043  0.00  0.00    +0.000 NA
ATOM      6  C   UNL     1       5.114   4.154  16.067  0.00  0.00    +0.000 A 
ATOM      7  C   UNL     1       4.849   3.730  14.761  0.00  0.00    +0.000 A 
ATOM      8  C   UNL     1       5.800   3.904  13.764  0.00  0.00    +0.000 A 
ATOM      9 CL   UNL     1       5.473   3.371  12.162  0.00  0.00    +0.000 Cl
ATOM     10  C   UNL     1       7.023   4.500  14.057  0.00  0.00    +0.000 A 
ATOM     11  C   UNL     1       7.293   4.938  15.358  0.00  0.00    +0.000 A 
ATOM     12  C   UNL     1       6.337   4.778  16.370  0.00  0.00    +0.000 A 
ENDROOT
BRANCH   4  13
ATOM     13  C   UNL     1       3.378   3.858  19.344  0.00  0.00    +0.000 A 
ATOM     14  C   UNL     1       3.849   2.979  20.338  0.00  0.00    +0.000 A 
ATOM     15  C   UNL     1       2.992   2.462  21.311  0.00  0.00    +0.000 A 
ATOM     16  C   UNL     1       1.649   2.804  21.285  0.00  0.00    +0.000 A 
ATOM     17  C   UNL     1       1.154   3.679  20.324  0.00  0.00    +0.000 A 
ATOM     18  C   UNL     1       2.017   4.205  19.357  0.00  0.00    +0.000 A 
BRANCH  16  19
ATOM     19  O   UNL     1       0.772   2.291  22.192  0.00  0.00    +0.000 OA
ATOM     20  H   UNL     1       0.057   2.934  22.337  0.00  0.00    +0.000 HD
ENDBRANCH  16  19
BRANCH  18  21
ATOM     21  O   UNL     1       1.509   5.080  18.435  0.00  0.00    +0.000 OA
ATOM     22  H   UNL     1       1.239   5.899  18.883  0.00  0.00    +0.000 HD
ENDBRANCH  18  21
ENDBRANCH   4  13
BRANCH   1  23
ATOM     23  C   UNL     1       7.802   5.846  18.135  0.00  0.00    +0.000 C 
BRANCH  23  25
ATOM     24  O   UNL     1       7.356   8.008  17.155  0.00  0.00    +0.000 OA
ATOM     25  C   UNL     1       7.931   7.361  18.019  0.00  0.00    +0.000 C 
BRANCH  25  26
ATOM     26  O   UNL     1       8.676   7.952  18.977  0.00  0.00    +0.000 OA
ATOM     27  H   UNL     1       9.502   7.467  19.165  0.00  0.00    +0.000 HD
ENDBRANCH  25  26
ENDBRANCH  23  25
ENDBRANCH   1  23
TORSDOF 6
ENDMDL
MODEL 3
REMARK VINA RESULT:      -7.8      1.080      1.218
REMARK  Name = 
REMARK  6 active torsions:
REMARK  status: ('A' for Active; 'I' for Inactive)
REMARK    1  A    between atoms: C_2  and  O_3
REMARK    2  A    between atoms: C_2  and  C_4
REMARK    3  A    between atoms: C_4  and  N_5
REMARK    4  A    between atoms: C_8  and  C_9
REMARK    5  A    between atoms: C_12  and  O_13
REMARK    6  A    between atoms: C_15  and  O_16
REMARK                            x       y       z     vdW  Elec       q    Type
REMARK                         _______ _______ _______ _____ _____    ______ ____
ROOT
ATOM      1  N   UNL     1       6.256   5.342  17.774  0.00  0.00    +0.000 N 
ATOM      2  C   UNL     1       5.206   5.154  18.671  0.00  0.00    +0.000 A 
ATOM      3  O   UNL     1       5.136   5.735  19.746  0.00  0.00    +0.000 OA
ATOM      4  C   UNL     1       4.117   4.156  18.253  0.00  0.00    +0.000 A 
ATOM      5  N   UNL     1       4.039   3.730  17.024  0.00  0.00    +0.000 NA
ATOM      6  C   UNL     1       5.001   4.127  16.086  0.00  0.00    +0.000 A 
ATOM      7  C   UNL     1       4.819   3.706  14.766  0.00  0.00    +0.000 A 
ATOM      8  C   UNL     1       5.781   3.988  13.804  0.00  0.00    +0.000 A 
ATOM      9 CL   UNL     1       5.557   3.458  12.183  0.00  0.00    +0.000 Cl
ATOM     10  C   UNL     1       6.932   4.691  14.147  0.00  0.00    +0.000 A 
ATOM     11  C   UNL     1       7.118   5.128  15.463  0.00  0.00    +0.000 A 
ATOM     12  C   UNL     1       6.150   4.858  16.440  0.00  0.00    +0.000 A 
ENDROOT
BRANCH   4  13
ATOM     13  C   UNL     1       3.197   3.605  19.298  0.00  0.00    +0.000 A 
ATOM     14  C   UNL     1       1.907   4.150  19.433  0.00  0.00    +0.000 A 
ATOM     15  C   UNL     1       1.051   3.736  20.454  0.00  0.00    +0.000 A 
ATOM     16  C   UNL     1       1.488   2.786  21.365  0.00  0.00    +0.000 A 
ATOM     17  C   UNL     1       2.753   2.220  21.253  0.00  0.00    +0.000 A 
ATOM     18  C   UNL     1       3.605   2.628  20.220  0.00  0.00    +0.000 A 
BRANCH  16  19
ATOM     19  O   UNL     1       0.698   2.384  22.400  0.00  0.00    +0.000 OA
ATOM     20  H   UNL     1      -0.232   2.433  22.122  0.00  0.00    +0.000 HD
ENDBRANCH  16  19
BRANCH  18  21
ATOM     21  O   UNL     1       4.836   2.039  20.120  0.00  0.00    +0.000 OA
ATOM     22  H   UNL     1       4.949   1.401  20.844  0.00  0.00    +0.000 HD
ENDBRANCH  18  21
ENDBRANCH   4  13
BRANCH   1  23
ATOM     23  C   UNL     1       7.450   6.026  18.270  0.00  0.00    +0.000 C 
BRANCH  23  25
ATOM     24  O   UNL     1       9.083   4.426  19.049  0.00  0.00    +0.000 OA
ATOM     25  C   UNL     1       8.257   5.284  19.329  0.00  0.00    +0.000 C 
BRANCH  25  26
ATOM     26  O   UNL     1       8.044   5.682  20.602  0.00  0.00    +0.000 OA
ATOM     27  H   UNL     1       8.698   5.314  21.226  0.00  0.00    +0.000 HD
ENDBRANCH  25  26
ENDBRANCH  23  25
ENDBRANCH   1  23
TORSDOF 6
ENDMDL
MODEL 4
REMARK VINA RESULT:      -7.6      3.859      5.796
REMARK  Name = 
REMARK  6 active torsions:
REMARK  status: ('A' for Active; 'I' for Inactive)
REMARK    1  A    between atoms: C_2  and  O_3
REMARK    2  A    between atoms: C_2  and  C_4
REMARK    3  A    between atoms: C_4  and  N_5
REMARK    4  A    between atoms: C_8  and  C_9
REMARK    5  A    between atoms: C_12  and  O_13
REMARK    6  A    between atoms: C_15  and  O_16
REMARK                            x       y       z     vdW  Elec       q    Type
REMARK                         _______ _______ _______ _____ _____    ______ ____
ROOT
ATOM      1  N   UNL     1       2.983   4.547  19.015  0.00  0.00    +0.000 N 
ATOM      2  C   UNL     1       2.518   5.683  19.677  0.00  0.00    +0.000 A 
ATOM      3  O   UNL     1       1.988   5.641  20.779  0.00  0.00    +0.000 OA
ATOM      4  C   UNL     1       2.695   7.022  18.947  0.00  0.00    +0.000 A 
ATOM      5  N   UNL     1       3.476   7.117  17.909  0.00  0.00    +0.000 NA
ATOM      6  C   UNL     1       4.108   5.974  17.404  0.00  0.00    +0.000 A 
ATOM      7  C   UNL     1       4.998   6.152  16.341  0.00  0.00    +0.000 A 
ATOM      8  C   UNL     1       5.591   5.051  15.734  0.00  0.00    +0.000 A 
ATOM      9 CL   UNL     1       6.676   5.276  14.419  0.00  0.00    +0.000 Cl
ATOM     10  C   UNL     1       5.301   3.765  16.178  0.00  0.00    +0.000 A 
ATOM     11  C   UNL     1       4.422   3.577  17.250  0.00  0.00    +0.000 A 
ATOM     12  C   UNL     1       3.826   4.680  17.877  0.00  0.00    +0.000 A 
ENDROOT
BRANCH   4  13
ATOM     13  C   UNL     1       1.885   8.201  19.389  0.00  0.00    +0.000 A 
ATOM     14  C   UNL     1       1.416   8.254  20.715  0.00  0.00    +0.000 A 
ATOM     15  C   UNL     1       0.578   9.283  21.144  0.00  0.00    +0.000 A 
ATOM     16  C   UNL     1       0.183  10.260  20.243  0.00  0.00    +0.000 A 
ATOM     17  C   UNL     1       0.638  10.243  18.929  0.00  0.00    +0.000 A 
ATOM     18  C   UNL     1       1.488   9.216  18.504  0.00  0.00    +0.000 A 
BRANCH  16  19
ATOM     19  O   UNL     1      -0.666  11.260  20.611  0.00  0.00    +0.000 OA
ATOM     20  H   UNL     1      -1.491  11.173  20.104  0.00  0.00    +0.000 HD
ENDBRANCH  16  19
BRANCH  18  21
ATOM     21  O   UNL     1       1.939   9.234  17.212  0.00  0.00    +0.000 OA
ATOM     22  H   UNL     1       1.895   8.337  16.842  0.00  0.00    +0.000 HD
ENDBRANCH  18  21
ENDBRANCH   4  13
BRANCH   1  23
ATOM     23  C   UNL     1       2.549   3.247  19.526  0.00  0.00    +0.000 C 
BRANCH  23  25
ATOM     24  O   UNL     1       0.678   2.377  18.271  0.00  0.00    +0.000 OA
ATOM     25  C   UNL     1       1.083   2.894  19.303  0.00  0.00    +0.000 C 
BRANCH  25  26
ATOM     26  O   UNL     1       0.265   3.132  20.351  0.00  0.00    +0.000 OA
ATOM     27  H   UNL     1      -0.672   2.950  20.147  0.00  0.00    +0.000 HD
ENDBRANCH  25  26
ENDBRANCH  23  25
ENDBRANCH   1  23
TORSDOF 6
ENDMDL
MODEL 5
REMARK VINA RESULT:      -7.5      3.854      5.724
REMARK  Name = 
REMARK  6 active torsions:
REMARK  status: ('A' for Active; 'I' for Inactive)
REMARK    1  A    between atoms: C_2  and  O_3
REMARK    2  A    between atoms: C_2  and  C_4
REMARK    3  A    between atoms: C_4  and  N_5
REMARK    4  A    between atoms: C_8  and  C_9
REMARK    5  A    between atoms: C_12  and  O_13
REMARK    6  A    between atoms: C_15  and  O_16
REMARK                            x       y       z     vdW  Elec       q    Type
REMARK                         _______ _______ _______ _____ _____    ______ ____
ROOT
ATOM      1  N   UNL     1       2.729   4.639  19.070  0.00  0.00    +0.000 N 
ATOM      2  C   UNL     1       2.293   5.790  19.726  0.00  0.00    +0.000 A 
ATOM      3  O   UNL     1       1.727   5.764  20.810  0.00  0.00    +0.000 OA
ATOM      4  C   UNL     1       2.550   7.125  19.012  0.00  0.00    +0.000 A 
ATOM      5  N   UNL     1       3.367   7.193  18.000  0.00  0.00    +0.000 NA
ATOM      6  C   UNL     1       3.965   6.027  17.506  0.00  0.00    +0.000 A 
ATOM      7  C   UNL     1       4.896   6.173  16.473  0.00  0.00    +0.000 A 
ATOM      8  C   UNL     1       5.459   5.052  15.876  0.00  0.00    +0.000 A 
ATOM      9 CL   UNL     1       6.594   5.238  14.598  0.00  0.00    +0.000 Cl
ATOM     10  C   UNL     1       5.101   3.776  16.302  0.00  0.00    +0.000 A 
ATOM     11  C   UNL     1       4.181   3.619  17.344  0.00  0.00    +0.000 A 
ATOM     12  C   UNL     1       3.614   4.743  17.960  0.00  0.00    +0.000 A 
ENDROOT
BRANCH   4  13
ATOM     13  C   UNL     1       1.778   8.335  19.438  0.00  0.00    +0.000 A 
ATOM     14  C   UNL     1       1.305   8.418  20.760  0.00  0.00    +0.000 A 
ATOM     15  C   UNL     1       0.500   9.479  21.175  0.00  0.00    +0.000 A 
ATOM     16  C   UNL     1       0.142  10.459  20.261  0.00  0.00    +0.000 A 
ATOM     17  C   UNL     1       0.601  10.412  18.949  0.00  0.00    +0.000 A 
ATOM     18  C   UNL     1       1.419   9.353  18.539  0.00  0.00    +0.000 A 
BRANCH  16  19
ATOM     19  O   UNL     1      -0.675  11.490  20.614  0.00  0.00    +0.000 OA
ATOM     20  H   UNL     1      -0.357  12.303  20.188  0.00  0.00    +0.000 HD
ENDBRANCH  16  19
BRANCH  18  21
ATOM     21  O   UNL     1       1.875   9.342  17.249  0.00  0.00    +0.000 OA
ATOM     22  H   UNL     1       1.846   8.434  16.904  0.00  0.00    +0.000 HD
ENDBRANCH  18  21
ENDBRANCH   4  13
BRANCH   1  23
ATOM     23  C   UNL     1       2.224   3.357  19.557  0.00  0.00    +0.000 C 
BRANCH  23  25
ATOM     24  O   UNL     1       4.059   2.215  20.635  0.00  0.00    +0.000 OA
ATOM     25  C   UNL     1       2.964   2.750  20.743  0.00  0.00    +0.000 C 
BRANCH  25  26
ATOM     26  O   UNL     1       2.357   2.898  21.940  0.00  0.00    +0.000 OA
ATOM     27  H   UNL     1       1.426   2.605  21.929  0.00  0.00    +0.000 HD
ENDBRANCH  25  26
ENDBRANCH  23  25
ENDBRANCH   1  23
TORSDOF 6
ENDMDL
MODEL 6
REMARK VINA RESULT:      -7.5      1.441      1.768
REMARK  Name = 
REMARK  6 active torsions:
REMARK  status: ('A' for Active; 'I' for Inactive)
REMARK    1  A    between atoms: C_2  and  O_3
REMARK    2  A    between atoms: C_2  and  C_4
REMARK    3  A    between atoms: C_4  and  N_5
REMARK    4  A    between atoms: C_8  and  C_9
REMARK    5  A    between atoms: C_12  and  O_13
REMARK    6  A    between atoms: C_15  and  O_16
REMARK                            x       y       z     vdW  Elec       q    Type
REMARK                         _______ _______ _______ _____ _____    ______ ____
ROOT
ATOM      1  N   UNL     1       5.948   6.095  16.985  0.00  0.00    +0.000 N 
ATOM      2  C   UNL     1       4.854   5.888  17.823  0.00  0.00    +0.000 A 
ATOM      3  O   UNL     1       4.537   6.670  18.710  0.00  0.00    +0.000 OA
ATOM      4  C   UNL     1       4.046   4.603  17.593  0.00  0.00    +0.000 A 
ATOM      5  N   UNL     1       4.207   3.900  16.507  0.00  0.00    +0.000 NA
ATOM      6  C   UNL     1       5.179   4.275  15.571  0.00  0.00    +0.000 A 
ATOM      7  C   UNL     1       5.249   3.532  14.389  0.00  0.00    +0.000 A 
ATOM      8  C   UNL     1       6.247   3.793  13.458  0.00  0.00    +0.000 A 
ATOM      9 CL   UNL     1       6.336   2.867  12.011  0.00  0.00    +0.000 Cl
ATOM     10  C   UNL     1       7.184   4.794  13.695  0.00  0.00    +0.000 A 
ATOM     11  C   UNL     1       7.114   5.552  14.869  0.00  0.00    +0.000 A 
ATOM     12  C   UNL     1       6.106   5.306  15.811  0.00  0.00    +0.000 A 
ENDROOT
BRANCH   4  13
ATOM     13  C   UNL     1       3.132   4.117  18.674  0.00  0.00    +0.000 A 
ATOM     14  C   UNL     1       3.678   3.733  19.912  0.00  0.00    +0.000 A 
ATOM     15  C   UNL     1       2.878   3.182  20.915  0.00  0.00    +0.000 A 
ATOM     16  C   UNL     1       1.525   2.991  20.678  0.00  0.00    +0.000 A 
ATOM     17  C   UNL     1       0.953   3.370  19.469  0.00  0.00    +0.000 A 
ATOM     18  C   UNL     1       1.755   3.933  18.469  0.00  0.00    +0.000 A 
BRANCH  16  19
ATOM     19  O   UNL     1       0.718   2.420  21.615  0.00  0.00    +0.000 OA
ATOM     20  H   UNL     1       0.271   1.653  21.218  0.00  0.00    +0.000 HD
ENDBRANCH  16  19
BRANCH  18  21
ATOM     21  O   UNL     1       1.163   4.317  17.297  0.00  0.00    +0.000 OA
ATOM     22  H   UNL     1       0.513   3.647  17.029  0.00  0.00    +0.000 HD
ENDBRANCH  18  21
ENDBRANCH   4  13
BRANCH   1  23
ATOM     23  C   UNL     1       6.911   7.123  17.377  0.00  0.00    +0.000 C 
BRANCH  23  25
ATOM     24  O   UNL     1       8.033   5.584  18.862  0.00  0.00    +0.000 OA
ATOM     25  C   UNL     1       7.897   6.736  18.473  0.00  0.00    +0.000 C 
BRANCH  25  26
ATOM     26  O   UNL     1       8.659   7.744  18.946  0.00  0.00    +0.000 OA
ATOM     27  H   UNL     1       8.173   8.329  19.559  0.00  0.00    +0.000 HD
ENDBRANCH  25  26
ENDBRANCH  23  25
ENDBRANCH   1  23
TORSDOF 6
ENDMDL
MODEL 7
REMARK VINA RESULT:      -7.2      3.456      5.225
REMARK  Name = 
REMARK  6 active torsions:
REMARK  status: ('A' for Active; 'I' for Inactive)
REMARK    1  A    between atoms: C_2  and  O_3
REMARK    2  A    between atoms: C_2  and  C_4
REMARK    3  A    between atoms: C_4  and  N_5
REMARK    4  A    between atoms: C_8  and  C_9
REMARK    5  A    between atoms: C_12  and  O_13
REMARK    6  A    between atoms: C_15  and  O_16
REMARK                            x       y       z     vdW  Elec       q    Type
REMARK                         _______ _______ _______ _____ _____    ______ ____
ROOT
ATOM      1  N   UNL     1       3.310   4.197  18.438  0.00  0.00    +0.000 N 
ATOM      2  C   UNL     1       2.817   5.236  19.225  0.00  0.00    +0.000 A 
ATOM      3  O   UNL     1       2.243   5.050  20.291  0.00  0.00    +0.000 OA
ATOM      4  C   UNL     1       3.019   6.659  18.688  0.00  0.00    +0.000 A 
ATOM      5  N   UNL     1       3.841   6.890  17.703  0.00  0.00    +0.000 NA
ATOM      6  C   UNL     1       4.495   5.822  17.076  0.00  0.00    +0.000 A 
ATOM      7  C   UNL     1       5.426   6.137  16.082  0.00  0.00    +0.000 A 
ATOM      8  C   UNL     1       6.044   5.125  15.358  0.00  0.00    +0.000 A 
ATOM      9 CL   UNL     1       7.181   5.519  14.129  0.00  0.00    +0.000 Cl
ATOM     10  C   UNL     1       5.741   3.792  15.616  0.00  0.00    +0.000 A 
ATOM     11  C   UNL     1       4.820   3.466  16.617  0.00  0.00    +0.000 A 
ATOM     12  C   UNL     1       4.198   4.477  17.362  0.00  0.00    +0.000 A 
ENDROOT
BRANCH   4  13
ATOM     13  C   UNL     1       2.189   7.772  19.250  0.00  0.00    +0.000 A 
ATOM     14  C   UNL     1       1.756   7.697  20.586  0.00  0.00    +0.000 A 
ATOM     15  C   UNL     1       0.902   8.661  21.124  0.00  0.00    +0.000 A 
ATOM     16  C   UNL     1       0.456   9.699  20.320  0.00  0.00    +0.000 A 
ATOM     17  C   UNL     1       0.874   9.808  18.999  0.00  0.00    +0.000 A 
ATOM     18  C   UNL     1       1.740   8.847  18.465  0.00  0.00    +0.000 A 
BRANCH  16  19
ATOM     19  O   UNL     1      -0.410  10.638  20.795  0.00  0.00    +0.000 OA
ATOM     20  H   UNL     1       0.063  11.481  20.890  0.00  0.00    +0.000 HD
ENDBRANCH  16  19
BRANCH  18  21
ATOM     21  O   UNL     1       2.154   8.989  17.169  0.00  0.00    +0.000 OA
ATOM     22  H   UNL     1       1.726   9.768  16.777  0.00  0.00    +0.000 HD
ENDBRANCH  18  21
ENDBRANCH   4  13
BRANCH   1  23
ATOM     23  C   UNL     1       2.859   2.842  18.754  0.00  0.00    +0.000 C 
BRANCH  23  25
ATOM     24  O   UNL     1       4.667   2.108  20.177  0.00  0.00    +0.000 OA
ATOM     25  C   UNL     1       3.934   1.870  19.227  0.00  0.00    +0.000 C 
BRANCH  25  26
ATOM     26  O   UNL     1       3.982   0.695  18.564  0.00  0.00    +0.000 OA
ATOM     27  H   UNL     1       4.878   0.309  18.545  0.00  0.00    +0.000 HD
ENDBRANCH  25  26
ENDBRANCH  23  25
ENDBRANCH   1  23
TORSDOF 6
ENDMDL
MODEL 8
REMARK VINA RESULT:      -7.2      3.794      7.191
REMARK  Name = 
REMARK  6 active torsions:
REMARK  status: ('A' for Active; 'I' for Inactive)
REMARK    1  A    between atoms: C_2  and  O_3
REMARK    2  A    between atoms: C_2  and  C_4
REMARK    3  A    between atoms: C_4  and  N_5
REMARK    4  A    between atoms: C_8  and  C_9
REMARK    5  A    between atoms: C_12  and  O_13
REMARK    6  A    between atoms: C_15  and  O_16
REMARK                            x       y       z     vdW  Elec       q    Type
REMARK                         _______ _______ _______ _____ _____    ______ ____
ROOT
ATOM      1  N   UNL     1       2.507   5.491  20.305  0.00  0.00    +0.000 N 
ATOM      2  C   UNL     1       3.262   4.974  19.254  0.00  0.00    +0.000 A 
ATOM      3  O   UNL     1       3.552   3.788  19.162  0.00  0.00    +0.000 OA
ATOM      4  C   UNL     1       3.735   5.976  18.191  0.00  0.00    +0.000 A 
ATOM      5  N   UNL     1       3.226   7.174  18.132  0.00  0.00    +0.000 NA
ATOM      6  C   UNL     1       2.291   7.583  19.091  0.00  0.00    +0.000 A 
ATOM      7  C   UNL     1       1.720   8.849  18.929  0.00  0.00    +0.000 A 
ATOM      8  C   UNL     1       0.853   9.353  19.890  0.00  0.00    +0.000 A 
ATOM      9 CL   UNL     1       0.162  10.915  19.690  0.00  0.00    +0.000 Cl
ATOM     10  C   UNL     1       0.548   8.603  21.022  0.00  0.00    +0.000 A 
ATOM     11  C   UNL     1       1.105   7.330  21.188  0.00  0.00    +0.000 A 
ATOM     12  C   UNL     1       1.972   6.807  20.220  0.00  0.00    +0.000 A 
ENDROOT
BRANCH   4  13
ATOM     13  C   UNL     1       4.855   5.589  17.277  0.00  0.00    +0.000 A 
ATOM     14  C   UNL     1       6.038   6.351  17.282  0.00  0.00    +0.000 A 
ATOM     15  C   UNL     1       7.070   6.089  16.379  0.00  0.00    +0.000 A 
ATOM     16  C   UNL     1       6.918   5.073  15.448  0.00  0.00    +0.000 A 
ATOM     17  C   UNL     1       5.766   4.294  15.425  0.00  0.00    +0.000 A 
ATOM     18  C   UNL     1       4.737   4.551  16.338  0.00  0.00    +0.000 A 
BRANCH  16  19
ATOM     19  O   UNL     1       7.884   4.810  14.524  0.00  0.00    +0.000 OA
ATOM     20  H   UNL     1       8.351   5.637  14.315  0.00  0.00    +0.000 HD
ENDBRANCH  16  19
BRANCH  18  21
ATOM     21  O   UNL     1       3.624   3.757  16.308  0.00  0.00    +0.000 OA
ATOM     22  H   UNL     1       2.869   4.272  15.980  0.00  0.00    +0.000 HD
ENDBRANCH  18  21
ENDBRANCH   4  13
BRANCH   1  23
ATOM     23  C   UNL     1       2.318   4.640  21.479  0.00  0.00    +0.000 C 
BRANCH  23  25
ATOM     24  O   UNL     1       1.503   2.426  22.000  0.00  0.00    +0.000 OA
ATOM     25  C   UNL     1       1.428   3.417  21.286  0.00  0.00    +0.000 C 
BRANCH  25  26
ATOM     26  O   UNL     1       0.502   3.525  20.310  0.00  0.00    +0.000 OA
ATOM     27  H   UNL     1       0.888   3.783  19.450  0.00  0.00    +0.000 HD
ENDBRANCH  25  26
ENDBRANCH  23  25
ENDBRANCH   1  23
TORSDOF 6
ENDMDL
MODEL 9
REMARK VINA RESULT:      -7.2      3.738      7.175
REMARK  Name = 
REMARK  6 active torsions:
REMARK  status: ('A' for Active; 'I' for Inactive)
REMARK    1  A    between atoms: C_2  and  O_3
REMARK    2  A    between atoms: C_2  and  C_4
REMARK    3  A    between atoms: C_4  and  N_5
REMARK    4  A    between atoms: C_8  and  C_9
REMARK    5  A    between atoms: C_12  and  O_13
REMARK    6  A    between atoms: C_15  and  O_16
REMARK                            x       y       z     vdW  Elec       q    Type
REMARK                         _______ _______ _______ _____ _____    ______ ____
ROOT
ATOM      1  N   UNL     1       2.496   5.492  20.343  0.00  0.00    +0.000 N 
ATOM      2  C   UNL     1       3.300   5.044  19.296  0.00  0.00    +0.000 A 
ATOM      3  O   UNL     1       3.629   3.872  19.163  0.00  0.00    +0.000 OA
ATOM      4  C   UNL     1       3.777   6.105  18.295  0.00  0.00    +0.000 A 
ATOM      5  N   UNL     1       3.235   7.290  18.270  0.00  0.00    +0.000 NA
ATOM      6  C   UNL     1       2.257   7.629  19.215  0.00  0.00    +0.000 A 
ATOM      7  C   UNL     1       1.653   8.884  19.088  0.00  0.00    +0.000 A 
ATOM      8  C   UNL     1       0.742   9.320  20.041  0.00  0.00    +0.000 A 
ATOM      9 CL   UNL     1       0.011  10.869  19.886  0.00  0.00    +0.000 Cl
ATOM     10  C   UNL     1       0.423   8.512  21.129  0.00  0.00    +0.000 A 
ATOM     11  C   UNL     1       1.012   7.250  21.258  0.00  0.00    +0.000 A 
ATOM     12  C   UNL     1       1.925   6.794  20.297  0.00  0.00    +0.000 A 
ENDROOT
BRANCH   4  13
ATOM     13  C   UNL     1       4.937   5.792  17.403  0.00  0.00    +0.000 A 
ATOM     14  C   UNL     1       4.790   5.932  16.010  0.00  0.00    +0.000 A 
ATOM     15  C   UNL     1       5.811   5.560  15.134  0.00  0.00    +0.000 A 
ATOM     16  C   UNL     1       6.983   5.022  15.645  0.00  0.00    +0.000 A 
ATOM     17  C   UNL     1       7.164   4.881  17.016  0.00  0.00    +0.000 A 
ATOM     18  C   UNL     1       6.144   5.266  17.893  0.00  0.00    +0.000 A 
BRANCH  16  19
ATOM     19  O   UNL     1       7.987   4.609  14.822  0.00  0.00    +0.000 OA
ATOM     20  H   UNL     1       8.809   4.549  15.337  0.00  0.00    +0.000 HD
ENDBRANCH  16  19
BRANCH  18  21
ATOM     21  O   UNL     1       6.356   5.137  19.239  0.00  0.00    +0.000 OA
ATOM     22  H   UNL     1       5.515   4.928  19.679  0.00  0.00    +0.000 HD
ENDBRANCH  18  21
ENDBRANCH   4  13
BRANCH   1  23
ATOM     23  C   UNL     1       2.296   4.585  21.472  0.00  0.00    +0.000 C 
BRANCH  23  25
ATOM     24  O   UNL     1       1.435   2.367  21.895  0.00  0.00    +0.000 OA
ATOM     25  C   UNL     1       1.390   3.385  21.217  0.00  0.00    +0.000 C 
BRANCH  25  26
ATOM     26  O   UNL     1       0.485   3.545  20.228  0.00  0.00    +0.000 OA
ATOM     27  H   UNL     1      -0.116   2.781  20.140  0.00  0.00    +0.000 HD
ENDBRANCH  25  26
ENDBRANCH  23  25
ENDBRANCH   1  23
TORSDOF 6
ENDMDL
