MODEL 1
REMARK VINA RESULT:      -8.6      0.000      0.000
REMARK  Name = 
REMARK  11 active torsions:
REMARK  status: ('A' for Active; 'I' for Inactive)
REMARK    1  A    between atoms: C_1  and  O_2
REMARK    2  A    between atoms: O_2  and  C_3
REMARK    3  A    between atoms: C_5  and  C_6
REMARK    4  A    between atoms: C_6  and  C_7
REMARK    5  A    between atoms: C_7  and  C_8
REMARK    6  A    between atoms: C_7  and  C_9
REMARK    7  A    between atoms: C_9  and  C_10
REMARK    8  A    between atoms: C_9  and  C_11
REMARK    9  A    between atoms: C_11  and  O_12
REMARK   10  A    between atoms: C_11  and  C_13
REMARK   11  A    between atoms: C_24  and  O_25
REMARK                            x       y       z     vdW  Elec       q    Type
REMARK                         _______ _______ _______ _____ _____    ______ ____
ROOT
ATOM      1  C   UNL     1       2.832   3.359  18.848  0.00  0.00    +0.000 C 
ATOM      2  C   UNL     1       2.477   1.875  19.028  0.00  0.00    +0.000 C 
ENDROOT
BRANCH   1   3
ATOM      3  C   UNL     1       1.824   4.312  19.599  0.00  0.00    +0.000 C 
ATOM      4  C   UNL     1       0.989   3.521  20.625  0.00  0.00    +0.000 C 
BRANCH   3   5
ATOM      5  C   UNL     1       2.471   5.548  20.280  0.00  0.00    +0.000 C 
BRANCH   5   8
ATOM      6  C   UNL     1       1.459   9.151  19.429  0.00  0.00    +0.000 A 
ATOM      7  C   UNL     1       1.653   7.951  20.127  0.00  0.00    +0.000 A 
ATOM      8  C   UNL     1       2.318   6.863  19.539  0.00  0.00    +0.000 A 
ATOM      9  C   UNL     1       2.764   6.988  18.218  0.00  0.00    +0.000 A 
ATOM     10  C   UNL     1       2.614   8.193  17.528  0.00  0.00    +0.000 A 
ATOM     11  C   UNL     1       1.989   9.279  18.143  0.00  0.00    +0.000 A 
BRANCH   6  13
ATOM     12  C   UNL     1      -0.599  10.266  19.776  0.00  0.00    +0.000 C 
ATOM     13  O   UNL     1       0.772  10.110  20.129  0.00  0.00    +0.000 OA
ENDBRANCH   6  13
BRANCH  11  14
ATOM     14  O   UNL     1       1.931  10.469  17.471  0.00  0.00    +0.000 OA
ATOM     15  H   UNL     1       1.397  10.343  16.669  0.00  0.00    +0.000 HD
ENDBRANCH  11  14
ENDBRANCH   5   8
ENDBRANCH   3   5
ENDBRANCH   1   3
BRANCH   1  16
ATOM     16  C   UNL     1       4.321   3.655  19.216  0.00  0.00    +0.000 C 
BRANCH  16  17
ATOM     17  C   UNL     1       5.248   4.226  18.139  0.00  0.00    +0.000 A 
ATOM     18  C   UNL     1       6.369   5.040  18.426  0.00  0.00    +0.000 A 
ATOM     19  C   UNL     1       7.219   5.500  17.415  0.00  0.00    +0.000 A 
ATOM     20  C   UNL     1       6.944   5.134  16.113  0.00  0.00    +0.000 A 
ATOM     21  C   UNL     1       5.878   4.331  15.813  0.00  0.00    +0.000 A 
ATOM     22  C   UNL     1       5.031   3.855  16.791  0.00  0.00    +0.000 A 
ATOM     23  O   UNL     1       5.782   4.068  14.482  0.00  0.00    +0.000 OA
ATOM     24  C   UNL     1       6.920   4.798  13.979  0.00  0.00    +0.000 C 
ATOM     25  O   UNL     1       7.662   5.485  15.012  0.00  0.00    +0.000 OA
ENDBRANCH  16  17
BRANCH  16  26
ATOM     26  O   UNL     1       4.913   2.453  19.716  0.00  0.00    +0.000 OA
ATOM     27  H   UNL     1       5.877   2.578  19.705  0.00  0.00    +0.000 HD
ENDBRANCH  16  26
ENDBRANCH   1  16
TORSDOF 8
ENDMDL
MODEL 2
REMARK VINA RESULT:      -8.4      0.894      1.009
REMARK  Name = 
REMARK  11 active torsions:
REMARK  status: ('A' for Active; 'I' for Inactive)
REMARK    1  A    between atoms: C_1  and  O_2
REMARK    2  A    between atoms: O_2  and  C_3
REMARK    3  A    between atoms: C_5  and  C_6
REMARK    4  A    between atoms: C_6  and  C_7
REMARK    5  A    between atoms: C_7  and  C_8
REMARK    6  A    between atoms: C_7  and  C_9
REMARK    7  A    between atoms: C_9  and  C_10
REMARK    8  A    between atoms: C_9  and  C_11
REMARK    9  A    between atoms: C_11  and  O_12
REMARK   10  A    between atoms: C_11  and  C_13
REMARK   11  A    between atoms: C_24  and  O_25
REMARK                            x       y       z     vdW  Elec       q    Type
REMARK                         _______ _______ _______ _____ _____    ______ ____
ROOT
ATOM      1  C   UNL     1       1.759   3.555  18.994  0.00  0.00    +0.000 C 
ATOM      2  C   UNL     1       0.609   2.598  18.642  0.00  0.00    +0.000 C 
ENDROOT
BRANCH   1   3
ATOM      3  C   UNL     1       1.504   4.328  20.346  0.00  0.00    +0.000 C 
ATOM      4  C   UNL     1       1.481   3.348  21.535  0.00  0.00    +0.000 C 
BRANCH   3   5
ATOM      5  C   UNL     1       2.490   5.492  20.633  0.00  0.00    +0.000 C 
BRANCH   5   8
ATOM      6  C   UNL     1       1.400   8.995  19.505  0.00  0.00    +0.000 A 
ATOM      7  C   UNL     1       1.628   7.860  20.297  0.00  0.00    +0.000 A 
ATOM      8  C   UNL     1       2.301   6.738  19.789  0.00  0.00    +0.000 A 
ATOM      9  C   UNL     1       2.723   6.759  18.454  0.00  0.00    +0.000 A 
ATOM     10  C   UNL     1       2.540   7.901  17.669  0.00  0.00    +0.000 A 
ATOM     11  C   UNL     1       1.906   9.024  18.203  0.00  0.00    +0.000 A 
BRANCH   6  13
ATOM     12  C   UNL     1      -0.634  10.186  19.700  0.00  0.00    +0.000 C 
ATOM     13  O   UNL     1       0.709   9.997  20.135  0.00  0.00    +0.000 OA
ENDBRANCH   6  13
BRANCH  11  14
ATOM     14  O   UNL     1       1.817  10.152  17.436  0.00  0.00    +0.000 OA
ATOM     15  H   UNL     1       1.265   9.954  16.662  0.00  0.00    +0.000 HD
ENDBRANCH  11  14
ENDBRANCH   5   8
ENDBRANCH   3   5
ENDBRANCH   1   3
BRANCH   1  16
ATOM     16  C   UNL     1       3.147   2.839  18.967  0.00  0.00    +0.000 C 
BRANCH  16  17
ATOM     17  C   UNL     1       4.314   3.518  18.245  0.00  0.00    +0.000 A 
ATOM     18  C   UNL     1       5.379   4.162  18.918  0.00  0.00    +0.000 A 
ATOM     19  C   UNL     1       6.452   4.727  18.221  0.00  0.00    +0.000 A 
ATOM     20  C   UNL     1       6.456   4.638  16.844  0.00  0.00    +0.000 A 
ATOM     21  C   UNL     1       5.448   4.002  16.172  0.00  0.00    +0.000 A 
ATOM     22  C   UNL     1       4.384   3.427  16.835  0.00  0.00    +0.000 A 
ATOM     23  O   UNL     1       5.637   4.003  14.825  0.00  0.00    +0.000 OA
ATOM     24  C   UNL     1       6.889   4.712  14.728  0.00  0.00    +0.000 C 
ATOM     25  O   UNL     1       7.414   5.125  16.010  0.00  0.00    +0.000 OA
ENDBRANCH  16  17
BRANCH  16  26
ATOM     26  O   UNL     1       2.975   1.537  18.402  0.00  0.00    +0.000 OA
ATOM     27  H   UNL     1       2.928   0.905  19.140  0.00  0.00    +0.000 HD
ENDBRANCH  16  26
ENDBRANCH   1  16
TORSDOF 8
ENDMDL
MODEL 3
REMARK VINA RESULT:      -8.2      1.346      1.982
REMARK  Name = 
REMARK  11 active torsions:
REMARK  status: ('A' for Active; 'I' for Inactive)
REMARK    1  A    between atoms: C_1  and  O_2
REMARK    2  A    between atoms: O_2  and  C_3
REMARK    3  A    between atoms: C_5  and  C_6
REMARK    4  A    between atoms: C_6  and  C_7
REMARK    5  A    between atoms: C_7  and  C_8
REMARK    6  A    between atoms: C_7  and  C_9
REMARK    7  A    between atoms: C_9  and  C_10
REMARK    8  A    between atoms: C_9  and  C_11
REMARK    9  A    between atoms: C_11  and  O_12
REMARK   10  A    between atoms: C_11  and  C_13
REMARK   11  A    between atoms: C_24  and  O_25
REMARK                            x       y       z     vdW  Elec       q    Type
REMARK                         _______ _______ _______ _____ _____    ______ ____
ROOT
ATOM      1  C   UNL     1       1.865   3.473  18.901  0.00  0.00    +0.000 C 
ATOM      2  C   UNL     1       0.878   2.336  18.592  0.00  0.00    +0.000 C 
ENDROOT
BRANCH   1   3
ATOM      3  C   UNL     1       1.510   4.228  20.240  0.00  0.00    +0.000 C 
ATOM      4  C   UNL     1       1.425   3.237  21.417  0.00  0.00    +0.000 C 
BRANCH   3   5
ATOM      5  C   UNL     1       2.456   5.405  20.601  0.00  0.00    +0.000 C 
BRANCH   5   8
ATOM      6  C   UNL     1       1.265   8.963  19.793  0.00  0.00    +0.000 A 
ATOM      7  C   UNL     1       1.552   7.779  20.487  0.00  0.00    +0.000 A 
ATOM      8  C   UNL     1       2.203   6.704  19.860  0.00  0.00    +0.000 A 
ATOM      9  C   UNL     1       2.540   6.825  18.506  0.00  0.00    +0.000 A 
ATOM     10  C   UNL     1       2.298   8.016  17.817  0.00  0.00    +0.000 A 
ATOM     11  C   UNL     1       1.688   9.090  18.468  0.00  0.00    +0.000 A 
BRANCH   6  13
ATOM     12  C   UNL     1       0.648   9.725  21.947  0.00  0.00    +0.000 C 
ATOM     13  O   UNL     1       0.605   9.909  20.534  0.00  0.00    +0.000 OA
ENDBRANCH   6  13
BRANCH  11  14
ATOM     14  O   UNL     1       1.540  10.268  17.789  0.00  0.00    +0.000 OA
ATOM     15  H   UNL     1       2.392  10.498  17.384  0.00  0.00    +0.000 HD
ENDBRANCH  11  14
ENDBRANCH   5   8
ENDBRANCH   3   5
ENDBRANCH   1   3
BRANCH   1  16
ATOM     16  C   UNL     1       3.349   2.987  18.864  0.00  0.00    +0.000 C 
BRANCH  16  17
ATOM     17  C   UNL     1       4.395   3.864  18.170  0.00  0.00    +0.000 A 
ATOM     18  C   UNL     1       4.413   4.100  16.775  0.00  0.00    +0.000 A 
ATOM     19  C   UNL     1       5.358   4.947  16.188  0.00  0.00    +0.000 A 
ATOM     20  C   UNL     1       6.282   5.564  17.006  0.00  0.00    +0.000 A 
ATOM     21  C   UNL     1       6.272   5.367  18.360  0.00  0.00    +0.000 A 
ATOM     22  C   UNL     1       5.345   4.545  18.967  0.00  0.00    +0.000 A 
ATOM     23  O   UNL     1       7.246   6.071  18.996  0.00  0.00    +0.000 OA
ATOM     24  C   UNL     1       7.869   6.740  17.882  0.00  0.00    +0.000 C 
ATOM     25  O   UNL     1       7.265   6.417  16.609  0.00  0.00    +0.000 OA
ENDBRANCH  16  17
BRANCH  16  26
ATOM     26  O   UNL     1       3.387   1.691  18.260  0.00  0.00    +0.000 OA
ATOM     27  H   UNL     1       2.484   1.334  18.285  0.00  0.00    +0.000 HD
ENDBRANCH  16  26
ENDBRANCH   1  16
TORSDOF 8
ENDMDL
MODEL 4
REMARK VINA RESULT:      -8.0      1.266      1.892
REMARK  Name = 
REMARK  11 active torsions:
REMARK  status: ('A' for Active; 'I' for Inactive)
REMARK    1  A    between atoms: C_1  and  O_2
REMARK    2  A    between atoms: O_2  and  C_3
REMARK    3  A    between atoms: C_5  and  C_6
REMARK    4  A    between atoms: C_6  and  C_7
REMARK    5  A    between atoms: C_7  and  C_8
REMARK    6  A    between atoms: C_7  and  C_9
REMARK    7  A    between atoms: C_9  and  C_10
REMARK    8  A    between atoms: C_9  and  C_11
REMARK    9  A    between atoms: C_11  and  O_12
REMARK   10  A    between atoms: C_11  and  C_13
REMARK   11  A    between atoms: C_24  and  O_25
REMARK                            x       y       z     vdW  Elec       q    Type
REMARK                         _______ _______ _______ _____ _____    ______ ____
ROOT
ATOM      1  C   UNL     1       2.929   2.869  20.170  0.00  0.00    +0.000 C 
ATOM      2  C   UNL     1       2.523   2.454  21.593  0.00  0.00    +0.000 C 
ENDROOT
BRANCH   1   3
ATOM      3  C   UNL     1       2.142   4.140  19.667  0.00  0.00    +0.000 C 
ATOM      4  C   UNL     1       0.626   3.864  19.637  0.00  0.00    +0.000 C 
BRANCH   3   5
ATOM      5  C   UNL     1       2.430   5.446  20.456  0.00  0.00    +0.000 C 
BRANCH   5   8
ATOM      6  C   UNL     1       1.470   9.031  19.480  0.00  0.00    +0.000 A 
ATOM      7  C   UNL     1       1.651   7.855  20.220  0.00  0.00    +0.000 A 
ATOM      8  C   UNL     1       2.293   6.735  19.668  0.00  0.00    +0.000 A 
ATOM      9  C   UNL     1       2.731   6.803  18.340  0.00  0.00    +0.000 A 
ATOM     10  C   UNL     1       2.596   7.985  17.607  0.00  0.00    +0.000 A 
ATOM     11  C   UNL     1       1.993   9.103  18.186  0.00  0.00    +0.000 A 
BRANCH   6  13
ATOM     12  C   UNL     1       0.641   9.824  21.549  0.00  0.00    +0.000 C 
ATOM     13  O   UNL     1       0.805  10.026  20.148  0.00  0.00    +0.000 OA
ENDBRANCH   6  13
BRANCH  11  14
ATOM     14  O   UNL     1       1.950  10.268  17.471  0.00  0.00    +0.000 OA
ATOM     15  H   UNL     1       2.836  10.663  17.474  0.00  0.00    +0.000 HD
ENDBRANCH  11  14
ENDBRANCH   5   8
ENDBRANCH   3   5
ENDBRANCH   1   3
BRANCH   1  16
ATOM     16  C   UNL     1       4.477   3.028  20.025  0.00  0.00    +0.000 C 
BRANCH  16  17
ATOM     17  C   UNL     1       5.026   3.889  18.884  0.00  0.00    +0.000 A 
ATOM     18  C   UNL     1       4.613   3.755  17.538  0.00  0.00    +0.000 A 
ATOM     19  C   UNL     1       5.105   4.596  16.534  0.00  0.00    +0.000 A 
ATOM     20  C   UNL     1       6.008   5.577  16.887  0.00  0.00    +0.000 A 
ATOM     21  C   UNL     1       6.406   5.739  18.186  0.00  0.00    +0.000 A 
ATOM     22  C   UNL     1       5.930   4.931  19.197  0.00  0.00    +0.000 A 
ATOM     23  O   UNL     1       7.285   6.766  18.337  0.00  0.00    +0.000 OA
ATOM     24  C   UNL     1       7.389   7.237  16.978  0.00  0.00    +0.000 C 
ATOM     25  O   UNL     1       6.583   6.480  16.047  0.00  0.00    +0.000 OA
ENDBRANCH  16  17
BRANCH  16  26
ATOM     26  O   UNL     1       5.058   1.725  19.915  0.00  0.00    +0.000 OA
ATOM     27  H   UNL     1       5.462   1.662  19.034  0.00  0.00    +0.000 HD
ENDBRANCH  16  26
ENDBRANCH   1  16
TORSDOF 8
ENDMDL
MODEL 5
REMARK VINA RESULT:      -7.8      1.186      2.126
REMARK  Name = 
REMARK  11 active torsions:
REMARK  status: ('A' for Active; 'I' for Inactive)
REMARK    1  A    between atoms: C_1  and  O_2
REMARK    2  A    between atoms: O_2  and  C_3
REMARK    3  A    between atoms: C_5  and  C_6
REMARK    4  A    between atoms: C_6  and  C_7
REMARK    5  A    between atoms: C_7  and  C_8
REMARK    6  A    between atoms: C_7  and  C_9
REMARK    7  A    between atoms: C_9  and  C_10
REMARK    8  A    between atoms: C_9  and  C_11
REMARK    9  A    between atoms: C_11  and  O_12
REMARK   10  A    between atoms: C_11  and  C_13
REMARK   11  A    between atoms: C_24  and  O_25
REMARK                            x       y       z     vdW  Elec       q    Type
REMARK                         _______ _______ _______ _____ _____    ______ ____
ROOT
ATOM      1  C   UNL     1       1.742   3.583  19.119  0.00  0.00    +0.000 C 
ATOM      2  C   UNL     1       0.604   2.692  18.597  0.00  0.00    +0.000 C 
ENDROOT
BRANCH   1   3
ATOM      3  C   UNL     1       1.424   4.192  20.540  0.00  0.00    +0.000 C 
ATOM      4  C   UNL     1       1.501   3.103  21.628  0.00  0.00    +0.000 C 
BRANCH   3   5
ATOM      5  C   UNL     1       2.297   5.410  20.944  0.00  0.00    +0.000 C 
BRANCH   5   8
ATOM      6  C   UNL     1       2.363   8.132  18.239  0.00  0.00    +0.000 A 
ATOM      7  C   UNL     1       2.568   6.923  18.918  0.00  0.00    +0.000 A 
ATOM      8  C   UNL     1       2.019   6.697  20.191  0.00  0.00    +0.000 A 
ATOM      9  C   UNL     1       1.277   7.723  20.790  0.00  0.00    +0.000 A 
ATOM     10  C   UNL     1       1.029   8.915  20.104  0.00  0.00    +0.000 A 
ATOM     11  C   UNL     1       1.547   9.106  18.822  0.00  0.00    +0.000 A 
BRANCH   6  13
ATOM     12  C   UNL     1       4.176   7.443  16.884  0.00  0.00    +0.000 C 
ATOM     13  O   UNL     1       2.983   8.210  17.019  0.00  0.00    +0.000 OA
ENDBRANCH   6  13
BRANCH  11  14
ATOM     14  O   UNL     1       1.219  10.249  18.147  0.00  0.00    +0.000 OA
ATOM     15  H   UNL     1       1.110  10.029  17.207  0.00  0.00    +0.000 HD
ENDBRANCH  11  14
ENDBRANCH   5   8
ENDBRANCH   3   5
ENDBRANCH   1   3
BRANCH   1  16
ATOM     16  C   UNL     1       3.123   2.855  19.077  0.00  0.00    +0.000 C 
BRANCH  16  17
ATOM     17  C   UNL     1       4.299   3.543  18.377  0.00  0.00    +0.000 A 
ATOM     18  C   UNL     1       5.318   4.240  19.068  0.00  0.00    +0.000 A 
ATOM     19  C   UNL     1       6.401   4.812  18.393  0.00  0.00    +0.000 A 
ATOM     20  C   UNL     1       6.462   4.677  17.021  0.00  0.00    +0.000 A 
ATOM     21  C   UNL     1       5.500   3.990  16.333  0.00  0.00    +0.000 A 
ATOM     22  C   UNL     1       4.427   3.407  16.975  0.00  0.00    +0.000 A 
ATOM     23  O   UNL     1       5.742   3.951  14.996  0.00  0.00    +0.000 OA
ATOM     24  C   UNL     1       6.977   4.692  14.923  0.00  0.00    +0.000 C 
ATOM     25  O   UNL     1       7.439   5.163  16.208  0.00  0.00    +0.000 OA
ENDBRANCH  16  17
BRANCH  16  26
ATOM     26  O   UNL     1       2.941   1.571  18.475  0.00  0.00    +0.000 OA
ATOM     27  H   UNL     1       3.313   1.615  17.579  0.00  0.00    +0.000 HD
ENDBRANCH  16  26
ENDBRANCH   1  16
TORSDOF 8
ENDMDL
MODEL 6
REMARK VINA RESULT:      -7.8      0.843      1.884
REMARK  Name = 
REMARK  11 active torsions:
REMARK  status: ('A' for Active; 'I' for Inactive)
REMARK    1  A    between atoms: C_1  and  O_2
REMARK    2  A    between atoms: O_2  and  C_3
REMARK    3  A    between atoms: C_5  and  C_6
REMARK    4  A    between atoms: C_6  and  C_7
REMARK    5  A    between atoms: C_7  and  C_8
REMARK    6  A    between atoms: C_7  and  C_9
REMARK    7  A    between atoms: C_9  and  C_10
REMARK    8  A    between atoms: C_9  and  C_11
REMARK    9  A    between atoms: C_11  and  O_12
REMARK   10  A    between atoms: C_11  and  C_13
REMARK   11  A    between atoms: C_24  and  O_25
REMARK                            x       y       z     vdW  Elec       q    Type
REMARK                         _______ _______ _______ _____ _____    ______ ____
ROOT
ATOM      1  C   UNL     1       2.910   3.063  18.971  0.00  0.00    +0.000 C 
ATOM      2  C   UNL     1       2.759   1.534  18.936  0.00  0.00    +0.000 C 
ENDROOT
BRANCH   1   3
ATOM      3  C   UNL     1       1.817   3.753  19.876  0.00  0.00    +0.000 C 
ATOM      4  C   UNL     1       1.113   2.711  20.767  0.00  0.00    +0.000 C 
BRANCH   3   5
ATOM      5  C   UNL     1       2.330   4.934  20.742  0.00  0.00    +0.000 C 
BRANCH   5   8
ATOM      6  C   UNL     1       2.379   7.999  18.433  0.00  0.00    +0.000 A 
ATOM      7  C   UNL     1       2.569   6.703  18.931  0.00  0.00    +0.000 A 
ATOM      8  C   UNL     1       2.068   6.321  20.185  0.00  0.00    +0.000 A 
ATOM      9  C   UNL     1       1.392   7.276  20.953  0.00  0.00    +0.000 A 
ATOM     10  C   UNL     1       1.159   8.559  20.449  0.00  0.00    +0.000 A 
ATOM     11  C   UNL     1       1.627   8.908  19.182  0.00  0.00    +0.000 A 
BRANCH   6  13
ATOM     12  C   UNL     1       4.084   7.423  16.896  0.00  0.00    +0.000 C 
ATOM     13  O   UNL     1       2.948   8.226  17.206  0.00  0.00    +0.000 OA
ENDBRANCH   6  13
BRANCH  11  14
ATOM     14  O   UNL     1       1.312  10.143  18.685  0.00  0.00    +0.000 OA
ATOM     15  H   UNL     1       1.837  10.808  19.159  0.00  0.00    +0.000 HD
ENDBRANCH  11  14
ENDBRANCH   5   8
ENDBRANCH   3   5
ENDBRANCH   1   3
BRANCH   1  16
ATOM     16  C   UNL     1       4.361   3.501  19.349  0.00  0.00    +0.000 C 
BRANCH  16  17
ATOM     17  C   UNL     1       5.257   4.103  18.262  0.00  0.00    +0.000 A 
ATOM     18  C   UNL     1       6.387   4.908  18.541  0.00  0.00    +0.000 A 
ATOM     19  C   UNL     1       7.207   5.398  17.520  0.00  0.00    +0.000 A 
ATOM     20  C   UNL     1       6.894   5.072  16.216  0.00  0.00    +0.000 A 
ATOM     21  C   UNL     1       5.819   4.278  15.923  0.00  0.00    +0.000 A 
ATOM     22  C   UNL     1       5.000   3.773  16.911  0.00  0.00    +0.000 A 
ATOM     23  O   UNL     1       5.684   4.055  14.589  0.00  0.00    +0.000 OA
ATOM     24  C   UNL     1       6.806   4.799  14.075  0.00  0.00    +0.000 C 
ATOM     25  O   UNL     1       7.579   5.455  15.105  0.00  0.00    +0.000 OA
ENDBRANCH  16  17
BRANCH  16  26
ATOM     26  O   UNL     1       5.043   2.376  19.910  0.00  0.00    +0.000 OA
ATOM     27  H   UNL     1       5.182   1.734  19.193  0.00  0.00    +0.000 HD
ENDBRANCH  16  26
ENDBRANCH   1  16
TORSDOF 8
ENDMDL
MODEL 7
REMARK VINA RESULT:      -7.7      1.733      4.738
REMARK  Name = 
REMARK  11 active torsions:
REMARK  status: ('A' for Active; 'I' for Inactive)
REMARK    1  A    between atoms: C_1  and  O_2
REMARK    2  A    between atoms: O_2  and  C_3
REMARK    3  A    between atoms: C_5  and  C_6
REMARK    4  A    between atoms: C_6  and  C_7
REMARK    5  A    between atoms: C_7  and  C_8
REMARK    6  A    between atoms: C_7  and  C_9
REMARK    7  A    between atoms: C_9  and  C_10
REMARK    8  A    between atoms: C_9  and  C_11
REMARK    9  A    between atoms: C_11  and  O_12
REMARK   10  A    between atoms: C_11  and  C_13
REMARK   11  A    between atoms: C_24  and  O_25
REMARK                            x       y       z     vdW  Elec       q    Type
REMARK                         _______ _______ _______ _____ _____    ______ ____
ROOT
ATOM      1  C   UNL     1       5.849   5.292  16.560  0.00  0.00    +0.000 C 
ATOM      2  C   UNL     1       5.274   5.242  15.136  0.00  0.00    +0.000 C 
ENDROOT
BRANCH   1   3
ATOM      3  C   UNL     1       5.358   6.559  17.362  0.00  0.00    +0.000 C 
ATOM      4  C   UNL     1       6.471   7.622  17.433  0.00  0.00    +0.000 C 
BRANCH   3   5
ATOM      5  C   UNL     1       4.043   7.198  16.840  0.00  0.00    +0.000 C 
BRANCH   5   8
ATOM      6  C   UNL     1       1.454   9.291  18.749  0.00  0.00    +0.000 A 
ATOM      7  C   UNL     1       2.319   8.833  17.746  0.00  0.00    +0.000 A 
ATOM      8  C   UNL     1       3.064   7.653  17.906  0.00  0.00    +0.000 A 
ATOM      9  C   UNL     1       2.949   6.949  19.110  0.00  0.00    +0.000 A 
ATOM     10  C   UNL     1       2.057   7.372  20.099  0.00  0.00    +0.000 A 
ATOM     11  C   UNL     1       1.293   8.524  19.906  0.00  0.00    +0.000 A 
BRANCH   6  13
ATOM     12  C   UNL     1       1.423  11.646  18.981  0.00  0.00    +0.000 C 
ATOM     13  O   UNL     1       0.816  10.468  18.455  0.00  0.00    +0.000 OA
ENDBRANCH   6  13
BRANCH  11  14
ATOM     14  O   UNL     1       0.371   8.865  20.857  0.00  0.00    +0.000 OA
ATOM     15  H   UNL     1      -0.508   8.599  20.542  0.00  0.00    +0.000 HD
ENDBRANCH  11  14
ENDBRANCH   5   8
ENDBRANCH   3   5
ENDBRANCH   1   3
BRANCH   1  16
ATOM     16  C   UNL     1       5.603   3.960  17.339  0.00  0.00    +0.000 C 
BRANCH  16  17
ATOM     17  C   UNL     1       4.246   3.738  18.011  0.00  0.00    +0.000 A 
ATOM     18  C   UNL     1       3.020   3.717  17.304  0.00  0.00    +0.000 A 
ATOM     19  C   UNL     1       1.806   3.461  17.950  0.00  0.00    +0.000 A 
ATOM     20  C   UNL     1       1.826   3.219  19.309  0.00  0.00    +0.000 A 
ATOM     21  C   UNL     1       3.002   3.213  20.010  0.00  0.00    +0.000 A 
ATOM     22  C   UNL     1       4.213   3.452  19.396  0.00  0.00    +0.000 A 
ATOM     23  O   UNL     1       2.820   2.939  21.329  0.00  0.00    +0.000 OA
ATOM     24  C   UNL     1       1.389   2.768  21.376  0.00  0.00    +0.000 C 
ATOM     25  O   UNL     1       0.748   2.951  20.094  0.00  0.00    +0.000 OA
ENDBRANCH  16  17
BRANCH  16  26
ATOM     26  O   UNL     1       6.618   3.824  18.337  0.00  0.00    +0.000 OA
ATOM     27  H   UNL     1       6.507   2.950  18.747  0.00  0.00    +0.000 HD
ENDBRANCH  16  26
ENDBRANCH   1  16
TORSDOF 8
ENDMDL
MODEL 8
REMARK VINA RESULT:      -7.7      1.582      2.845
REMARK  Name = 
REMARK  11 active torsions:
REMARK  status: ('A' for Active; 'I' for Inactive)
REMARK    1  A    between atoms: C_1  and  O_2
REMARK    2  A    between atoms: O_2  and  C_3
REMARK    3  A    between atoms: C_5  and  C_6
REMARK    4  A    between atoms: C_6  and  C_7
REMARK    5  A    between atoms: C_7  and  C_8
REMARK    6  A    between atoms: C_7  and  C_9
REMARK    7  A    between atoms: C_9  and  C_10
REMARK    8  A    between atoms: C_9  and  C_11
REMARK    9  A    between atoms: C_11  and  O_12
REMARK   10  A    between atoms: C_11  and  C_13
REMARK   11  A    between atoms: C_24  and  O_25
REMARK                            x       y       z     vdW  Elec       q    Type
REMARK                         _______ _______ _______ _____ _____    ______ ____
ROOT
ATOM      1  C   UNL     1       1.686   3.306  19.212  0.00  0.00    +0.000 C 
ATOM      2  C   UNL     1       0.585   2.426  18.599  0.00  0.00    +0.000 C 
ENDROOT
BRANCH   1   3
ATOM      3  C   UNL     1       1.298   3.839  20.645  0.00  0.00    +0.000 C 
ATOM      4  C   UNL     1       1.311   2.692  21.674  0.00  0.00    +0.000 C 
BRANCH   3   5
ATOM      5  C   UNL     1       2.156   5.026  21.160  0.00  0.00    +0.000 C 
BRANCH   5   8
ATOM      6  C   UNL     1       2.269   7.836  18.549  0.00  0.00    +0.000 A 
ATOM      7  C   UNL     1       2.429   6.593  19.176  0.00  0.00    +0.000 A 
ATOM      8  C   UNL     1       1.926   6.354  20.465  0.00  0.00    +0.000 A 
ATOM      9  C   UNL     1       1.280   7.401  21.134  0.00  0.00    +0.000 A 
ATOM     10  C   UNL     1       1.076   8.630  20.502  0.00  0.00    +0.000 A 
ATOM     11  C   UNL     1       1.545   8.836  19.203  0.00  0.00    +0.000 A 
BRANCH   6  13
ATOM     12  C   UNL     1       4.153   7.390  17.189  0.00  0.00    +0.000 C 
ATOM     13  O   UNL     1       2.835   7.920  17.303  0.00  0.00    +0.000 OA
ENDBRANCH   6  13
BRANCH  11  14
ATOM     14  O   UNL     1       1.259  10.021  18.584  0.00  0.00    +0.000 OA
ATOM     15  H   UNL     1       2.054  10.577  18.602  0.00  0.00    +0.000 HD
ENDBRANCH  11  14
ENDBRANCH   5   8
ENDBRANCH   3   5
ENDBRANCH   1   3
BRANCH   1  16
ATOM     16  C   UNL     1       3.079   2.600  19.194  0.00  0.00    +0.000 C 
BRANCH  16  17
ATOM     17  C   UNL     1       4.279   3.351  18.610  0.00  0.00    +0.000 A 
ATOM     18  C   UNL     1       4.557   3.419  17.224  0.00  0.00    +0.000 A 
ATOM     19  C   UNL     1       5.636   4.157  16.728  0.00  0.00    +0.000 A 
ATOM     20  C   UNL     1       6.434   4.834  17.628  0.00  0.00    +0.000 A 
ATOM     21  C   UNL     1       6.173   4.801  18.971  0.00  0.00    +0.000 A 
ATOM     22  C   UNL     1       5.109   4.090  19.485  0.00  0.00    +0.000 A 
ATOM     23  O   UNL     1       7.056   5.541  19.692  0.00  0.00    +0.000 OA
ATOM     24  C   UNL     1       7.903   6.050  18.642  0.00  0.00    +0.000 C 
ATOM     25  O   UNL     1       7.517   5.599  17.325  0.00  0.00    +0.000 OA
ENDBRANCH  16  17
BRANCH  16  26
ATOM     26  O   UNL     1       2.951   1.360  18.494  0.00  0.00    +0.000 OA
ATOM     27  H   UNL     1       2.224   0.866  18.911  0.00  0.00    +0.000 HD
ENDBRANCH  16  26
ENDBRANCH   1  16
TORSDOF 8
ENDMDL
MODEL 9
REMARK VINA RESULT:      -7.7      1.362      1.982
REMARK  Name = 
REMARK  11 active torsions:
REMARK  status: ('A' for Active; 'I' for Inactive)
REMARK    1  A    between atoms: C_1  and  O_2
REMARK    2  A    between atoms: O_2  and  C_3
REMARK    3  A    between atoms: C_5  and  C_6
REMARK    4  A    between atoms: C_6  and  C_7
REMARK    5  A    between atoms: C_7  and  C_8
REMARK    6  A    between atoms: C_7  and  C_9
REMARK    7  A    between atoms: C_9  and  C_10
REMARK    8  A    between atoms: C_9  and  C_11
REMARK    9  A    between atoms: C_11  and  O_12
REMARK   10  A    between atoms: C_11  and  C_13
REMARK   11  A    between atoms: C_24  and  O_25
REMARK                            x       y       z     vdW  Elec       q    Type
REMARK                         _______ _______ _______ _____ _____    ______ ____
ROOT
ATOM      1  C   UNL     1       2.786   2.645  19.762  0.00  0.00    +0.000 C 
ATOM      2  C   UNL     1       3.636   2.665  21.042  0.00  0.00    +0.000 C 
ENDROOT
BRANCH   1   3
ATOM      3  C   UNL     1       1.921   3.955  19.596  0.00  0.00    +0.000 C 
ATOM      4  C   UNL     1       0.456   3.693  19.997  0.00  0.00    +0.000 C 
BRANCH   3   5
ATOM      5  C   UNL     1       2.464   5.200  20.347  0.00  0.00    +0.000 C 
BRANCH   5   8
ATOM      6  C   UNL     1       1.564   8.849  19.568  0.00  0.00    +0.000 A 
ATOM      7  C   UNL     1       1.751   7.639  20.251  0.00  0.00    +0.000 A 
ATOM      8  C   UNL     1       2.320   6.523  19.617  0.00  0.00    +0.000 A 
ATOM      9  C   UNL     1       2.676   6.630  18.267  0.00  0.00    +0.000 A 
ATOM     10  C   UNL     1       2.534   7.843  17.589  0.00  0.00    +0.000 A 
ATOM     11  C   UNL     1       2.006   8.955  18.246  0.00  0.00    +0.000 A 
BRANCH   6  13
ATOM     12  C   UNL     1      -0.436   9.966  20.160  0.00  0.00    +0.000 C 
ATOM     13  O   UNL     1       0.975   9.837  20.313  0.00  0.00    +0.000 OA
ENDBRANCH   6  13
BRANCH  11  14
ATOM     14  O   UNL     1       1.957  10.148  17.579  0.00  0.00    +0.000 OA
ATOM     15  H   UNL     1       1.714  10.844  18.211  0.00  0.00    +0.000 HD
ENDBRANCH  11  14
ENDBRANCH   5   8
ENDBRANCH   3   5
ENDBRANCH   1   3
BRANCH   1  16
ATOM     16  C   UNL     1       3.641   2.330  18.493  0.00  0.00    +0.000 C 
BRANCH  16  17
ATOM     17  C   UNL     1       4.482   3.450  17.873  0.00  0.00    +0.000 A 
ATOM     18  C   UNL     1       4.314   3.906  16.544  0.00  0.00    +0.000 A 
ATOM     19  C   UNL     1       5.070   4.965  16.032  0.00  0.00    +0.000 A 
ATOM     20  C   UNL     1       5.992   5.571  16.861  0.00  0.00    +0.000 A 
ATOM     21  C   UNL     1       6.157   5.162  18.156  0.00  0.00    +0.000 A 
ATOM     22  C   UNL     1       5.418   4.127  18.689  0.00  0.00    +0.000 A 
ATOM     23  O   UNL     1       7.097   5.890  18.817  0.00  0.00    +0.000 OA
ATOM     24  C   UNL     1       7.500   6.812  17.785  0.00  0.00    +0.000 C 
ATOM     25  O   UNL     1       6.805   6.611  16.534  0.00  0.00    +0.000 OA
ENDBRANCH  16  17
BRANCH  16  26
ATOM     26  O   UNL     1       2.775   1.814  17.479  0.00  0.00    +0.000 OA
ATOM     27  H   UNL     1       1.896   2.203  17.623  0.00  0.00    +0.000 HD
ENDBRANCH  16  26
ENDBRANCH   1  16
TORSDOF 8
ENDMDL
