MODEL 1
REMARK VINA RESULT:      -8.8      0.000      0.000
REMARK  Name = 
REMARK  1 active torsions:
REMARK  status: ('A' for Active; 'I' for Inactive)
REMARK    1  A    between atoms: C_4  and  C_5
REMARK                            x       y       z     vdW  Elec       q    Type
REMARK                         _______ _______ _______ _____ _____    ______ ____
ROOT
ATOM      1  O   UNL     1       2.960   8.384  16.774  0.00  0.00    +0.000 OA
ATOM      2  C   UNL     1       2.620   8.004  17.886  0.00  0.00    +0.000 A 
ATOM      3  C   UNL     1       3.011   6.677  18.387  0.00  0.00    +0.000 A 
ATOM      4  C   UNL     1       2.601   6.275  19.598  0.00  0.00    +0.000 A 
ATOM      5  O   UNL     1       1.811   7.055  20.428  0.00  0.00    +0.000 OA
ATOM      6  C   UNL     1       1.473   8.332  20.045  0.00  0.00    +0.000 A 
ATOM      7  C   UNL     1       1.818   8.838  18.793  0.00  0.00    +0.000 A 
ATOM      8  C   UNL     1       1.418  10.118  18.413  0.00  0.00    +0.000 A 
ATOM      9  C   UNL     1       0.678  10.900  19.299  0.00  0.00    +0.000 A 
ATOM     10  C   UNL     1       0.344  10.421  20.578  0.00  0.00    +0.000 A 
ATOM     11  C   UNL     1      -0.381  11.216  21.479  0.00  0.00    +0.000 A 
ATOM     12  C   UNL     1      -0.698  10.748  22.756  0.00  0.00    +0.000 A 
ATOM     13  C   UNL     1      -0.299   9.477  23.148  0.00  0.00    +0.000 A 
ATOM     14  C   UNL     1       0.414   8.669  22.261  0.00  0.00    +0.000 A 
ATOM     15  C   UNL     1       0.747   9.119  20.965  0.00  0.00    +0.000 A 
ENDROOT
BRANCH   4  16
ATOM     16  C   UNL     1       2.936   4.928  20.202  0.00  0.00    +0.000 C 
ATOM     17  C   UNL     1       2.027   4.406  21.370  0.00  0.00    +0.000 C 
ATOM     18  C   UNL     1       1.636   2.988  20.900  0.00  0.00    +0.000 C 
ATOM     19  C   UNL     1       0.716   3.141  19.711  0.00  0.00    +0.000 C 
ATOM     20  C   UNL     1       1.461   3.577  18.686  0.00  0.00    +0.000 C 
ATOM     21  C   UNL     1       2.877   3.730  19.200  0.00  0.00    +0.000 C 
ATOM     22  C   UNL     1       2.905   2.544  20.170  0.00  0.00    +0.000 C 
ENDBRANCH   4  16
TORSDOF 1
ENDMDL
MODEL 2
REMARK VINA RESULT:      -8.5      2.971      5.013
REMARK  Name = 
REMARK  1 active torsions:
REMARK  status: ('A' for Active; 'I' for Inactive)
REMARK    1  A    between atoms: C_4  and  C_5
REMARK                            x       y       z     vdW  Elec       q    Type
REMARK                         _______ _______ _______ _____ _____    ______ ____
ROOT
ATOM      1  O   UNL     1       2.936   3.108  20.331  0.00  0.00    +0.000 OA
ATOM      2  C   UNL     1       3.088   3.986  19.492  0.00  0.00    +0.000 A 
ATOM      3  C   UNL     1       3.797   3.716  18.231  0.00  0.00    +0.000 A 
ATOM      4  C   UNL     1       3.974   4.703  17.342  0.00  0.00    +0.000 A 
ATOM      5  O   UNL     1       3.517   5.996  17.545  0.00  0.00    +0.000 OA
ATOM      6  C   UNL     1       2.786   6.292  18.672  0.00  0.00    +0.000 A 
ATOM      7  C   UNL     1       2.572   5.350  19.676  0.00  0.00    +0.000 A 
ATOM      8  C   UNL     1       1.870   5.694  20.830  0.00  0.00    +0.000 A 
ATOM      9  C   UNL     1       1.369   6.988  20.972  0.00  0.00    +0.000 A 
ATOM     10  C   UNL     1       1.549   7.946  19.958  0.00  0.00    +0.000 A 
ATOM     11  C   UNL     1       1.024   9.240  20.090  0.00  0.00    +0.000 A 
ATOM     12  C   UNL     1       1.186  10.188  19.077  0.00  0.00    +0.000 A 
ATOM     13  C   UNL     1       1.878   9.854  17.919  0.00  0.00    +0.000 A 
ATOM     14  C   UNL     1       2.415   8.574  17.777  0.00  0.00    +0.000 A 
ATOM     15  C   UNL     1       2.264   7.599  18.786  0.00  0.00    +0.000 A 
ENDROOT
BRANCH   4  16
ATOM     16  C   UNL     1       4.698   4.536  16.023  0.00  0.00    +0.000 C 
ATOM     17  C   UNL     1       5.171   5.835  15.281  0.00  0.00    +0.000 C 
ATOM     18  C   UNL     1       6.664   5.552  15.002  0.00  0.00    +0.000 C 
ATOM     19  C   UNL     1       7.384   5.562  16.329  0.00  0.00    +0.000 C 
ATOM     20  C   UNL     1       7.012   4.457  16.991  0.00  0.00    +0.000 C 
ATOM     21  C   UNL     1       6.028   3.721  16.107  0.00  0.00    +0.000 C 
ATOM     22  C   UNL     1       6.649   4.045  14.744  0.00  0.00    +0.000 C 
ENDBRANCH   4  16
TORSDOF 1
ENDMDL
MODEL 3
REMARK VINA RESULT:      -8.3      4.424      7.467
REMARK  Name = 
REMARK  1 active torsions:
REMARK  status: ('A' for Active; 'I' for Inactive)
REMARK    1  A    between atoms: C_4  and  C_5
REMARK                            x       y       z     vdW  Elec       q    Type
REMARK                         _______ _______ _______ _____ _____    ______ ____
ROOT
ATOM      1  O   UNL     1       6.609   5.439  19.739  0.00  0.00    +0.000 OA
ATOM      2  C   UNL     1       5.971   4.835  18.887  0.00  0.00    +0.000 A 
ATOM      3  C   UNL     1       4.756   4.084  19.240  0.00  0.00    +0.000 A 
ATOM      4  C   UNL     1       4.092   3.409  18.291  0.00  0.00    +0.000 A 
ATOM      5  O   UNL     1       4.491   3.376  16.964  0.00  0.00    +0.000 OA
ATOM      6  C   UNL     1       5.578   4.117  16.561  0.00  0.00    +0.000 A 
ATOM      7  C   UNL     1       6.360   4.827  17.469  0.00  0.00    +0.000 A 
ATOM      8  C   UNL     1       7.485   5.528  17.038  0.00  0.00    +0.000 A 
ATOM      9  C   UNL     1       7.821   5.525  15.685  0.00  0.00    +0.000 A 
ATOM     10  C   UNL     1       7.030   4.839  14.747  0.00  0.00    +0.000 A 
ATOM     11  C   UNL     1       7.354   4.855  13.382  0.00  0.00    +0.000 A 
ATOM     12  C   UNL     1       6.559   4.189  12.446  0.00  0.00    +0.000 A 
ATOM     13  C   UNL     1       5.432   3.494  12.864  0.00  0.00    +0.000 A 
ATOM     14  C   UNL     1       5.101   3.458  14.219  0.00  0.00    +0.000 A 
ATOM     15  C   UNL     1       5.888   4.125  15.183  0.00  0.00    +0.000 A 
ENDROOT
BRANCH   4  16
ATOM     16  C   UNL     1       2.840   2.596  18.548  0.00  0.00    +0.000 C 
ATOM     17  C   UNL     1       2.547   2.157  20.025  0.00  0.00    +0.000 C 
ATOM     18  C   UNL     1       1.091   2.626  20.245  0.00  0.00    +0.000 C 
ATOM     19  C   UNL     1       1.099   4.137  20.268  0.00  0.00    +0.000 C 
ATOM     20  C   UNL     1       1.338   4.551  19.016  0.00  0.00    +0.000 C 
ATOM     21  C   UNL     1       1.506   3.313  18.162  0.00  0.00    +0.000 C 
ATOM     22  C   UNL     1       0.484   2.407  18.858  0.00  0.00    +0.000 C 
ENDBRANCH   4  16
TORSDOF 1
ENDMDL
MODEL 4
REMARK VINA RESULT:      -8.2      0.858      1.067
REMARK  Name = 
REMARK  1 active torsions:
REMARK  status: ('A' for Active; 'I' for Inactive)
REMARK    1  A    between atoms: C_4  and  C_5
REMARK                            x       y       z     vdW  Elec       q    Type
REMARK                         _______ _______ _______ _____ _____    ______ ____
ROOT
ATOM      1  O   UNL     1       4.136   7.315  16.631  0.00  0.00    +0.000 OA
ATOM      2  C   UNL     1       3.544   7.079  17.675  0.00  0.00    +0.000 A 
ATOM      3  C   UNL     1       3.710   5.791  18.368  0.00  0.00    +0.000 A 
ATOM      4  C   UNL     1       3.027   5.549  19.496  0.00  0.00    +0.000 A 
ATOM      5  O   UNL     1       2.152   6.463  20.062  0.00  0.00    +0.000 OA
ATOM      6  C   UNL     1       2.009   7.709  19.500  0.00  0.00    +0.000 A 
ATOM      7  C   UNL     1       2.645   8.055  18.310  0.00  0.00    +0.000 A 
ATOM      8  C   UNL     1       2.442   9.309  17.736  0.00  0.00    +0.000 A 
ATOM      9  C   UNL     1       1.604  10.227  18.369  0.00  0.00    +0.000 A 
ATOM     10  C   UNL     1       0.974   9.910  19.585  0.00  0.00    +0.000 A 
ATOM     11  C   UNL     1       0.150  10.842  20.233  0.00  0.00    +0.000 A 
ATOM     12  C   UNL     1      -0.462  10.536  21.451  0.00  0.00    +0.000 A 
ATOM     13  C   UNL     1      -0.261   9.292  22.035  0.00  0.00    +0.000 A 
ATOM     14  C   UNL     1       0.548   8.349  21.398  0.00  0.00    +0.000 A 
ATOM     15  C   UNL     1       1.178   8.636  20.168  0.00  0.00    +0.000 A 
ENDROOT
BRANCH   4  16
ATOM     16  C   UNL     1       3.115   4.256  20.279  0.00  0.00    +0.000 C 
ATOM     17  C   UNL     1       2.161   4.085  21.512  0.00  0.00    +0.000 C 
ATOM     18  C   UNL     1       1.489   2.720  21.245  0.00  0.00    +0.000 C 
ATOM     19  C   UNL     1       0.577   2.888  20.052  0.00  0.00    +0.000 C 
ATOM     20  C   UNL     1       1.359   3.028  18.972  0.00  0.00    +0.000 C 
ATOM     21  C   UNL     1       2.794   2.970  19.452  0.00  0.00    +0.000 C 
ATOM     22  C   UNL     1       2.624   1.942  20.576  0.00  0.00    +0.000 C 
ENDBRANCH   4  16
TORSDOF 1
ENDMDL
MODEL 5
REMARK VINA RESULT:      -8.2      2.543      4.580
REMARK  Name = 
REMARK  1 active torsions:
REMARK  status: ('A' for Active; 'I' for Inactive)
REMARK    1  A    between atoms: C_4  and  C_5
REMARK                            x       y       z     vdW  Elec       q    Type
REMARK                         _______ _______ _______ _____ _____    ______ ____
ROOT
ATOM      1  O   UNL     1       2.257   4.048  21.274  0.00  0.00    +0.000 OA
ATOM      2  C   UNL     1       2.599   4.802  20.374  0.00  0.00    +0.000 A 
ATOM      3  C   UNL     1       3.532   4.357  19.326  0.00  0.00    +0.000 A 
ATOM      4  C   UNL     1       3.913   5.213  18.367  0.00  0.00    +0.000 A 
ATOM      5  O   UNL     1       3.468   6.524  18.302  0.00  0.00    +0.000 OA
ATOM      6  C   UNL     1       2.541   6.976  19.211  0.00  0.00    +0.000 A 
ATOM      7  C   UNL     1       2.103   6.182  20.268  0.00  0.00    +0.000 A 
ATOM      8  C   UNL     1       1.199   6.684  21.204  0.00  0.00    +0.000 A 
ATOM      9  C   UNL     1       0.724   7.988  21.071  0.00  0.00    +0.000 A 
ATOM     10  C   UNL     1       1.130   8.797  19.996  0.00  0.00    +0.000 A 
ATOM     11  C   UNL     1       0.633  10.101  19.848  0.00  0.00    +0.000 A 
ATOM     12  C   UNL     1       1.022  10.900  18.770  0.00  0.00    +0.000 A 
ATOM     13  C   UNL     1       1.916  10.408  17.828  0.00  0.00    +0.000 A 
ATOM     14  C   UNL     1       2.428   9.117  17.966  0.00  0.00    +0.000 A 
ATOM     15  C   UNL     1       2.049   8.290  19.045  0.00  0.00    +0.000 A 
ENDROOT
BRANCH   4  16
ATOM     16  C   UNL     1       4.875   4.863  17.252  0.00  0.00    +0.000 C 
ATOM     17  C   UNL     1       5.193   5.972  16.188  0.00  0.00    +0.000 C 
ATOM     18  C   UNL     1       6.738   6.003  16.170  0.00  0.00    +0.000 C 
ATOM     19  C   UNL     1       7.197   6.570  17.493  0.00  0.00    +0.000 C 
ATOM     20  C   UNL     1       6.950   5.643  18.429  0.00  0.00    +0.000 C 
ATOM     21  C   UNL     1       6.309   4.465  17.729  0.00  0.00    +0.000 C 
ATOM     22  C   UNL     1       7.079   4.531  16.405  0.00  0.00    +0.000 C 
ENDBRANCH   4  16
TORSDOF 1
ENDMDL
MODEL 6
REMARK VINA RESULT:      -7.8      2.967      5.789
REMARK  Name = 
REMARK  1 active torsions:
REMARK  status: ('A' for Active; 'I' for Inactive)
REMARK    1  A    between atoms: C_4  and  C_5
REMARK                            x       y       z     vdW  Elec       q    Type
REMARK                         _______ _______ _______ _____ _____    ______ ____
ROOT
ATOM      1  O   UNL     1       2.172   8.773  18.252  0.00  0.00    +0.000 OA
ATOM      2  C   UNL     1       2.860   7.763  18.212  0.00  0.00    +0.000 A 
ATOM      3  C   UNL     1       3.994   7.654  17.280  0.00  0.00    +0.000 A 
ATOM      4  C   UNL     1       4.715   6.524  17.238  0.00  0.00    +0.000 A 
ATOM      5  O   UNL     1       4.450   5.426  18.040  0.00  0.00    +0.000 OA
ATOM      6  C   UNL     1       3.448   5.494  18.980  0.00  0.00    +0.000 A 
ATOM      7  C   UNL     1       2.617   6.607  19.087  0.00  0.00    +0.000 A 
ATOM      8  C   UNL     1       1.577   6.627  20.016  0.00  0.00    +0.000 A 
ATOM      9  C   UNL     1       1.380   5.528  20.852  0.00  0.00    +0.000 A 
ATOM     10  C   UNL     1       2.225   4.407  20.781  0.00  0.00    +0.000 A 
ATOM     11  C   UNL     1       2.041   3.311  21.638  0.00  0.00    +0.000 A 
ATOM     12  C   UNL     1       2.891   2.204  21.582  0.00  0.00    +0.000 A 
ATOM     13  C   UNL     1       3.934   2.176  20.665  0.00  0.00    +0.000 A 
ATOM     14  C   UNL     1       4.124   3.254  19.798  0.00  0.00    +0.000 A 
ATOM     15  C   UNL     1       3.280   4.384  19.837  0.00  0.00    +0.000 A 
ENDROOT
BRANCH   4  16
ATOM     16  C   UNL     1       5.891   6.304  16.310  0.00  0.00    +0.000 C 
ATOM     17  C   UNL     1       7.049   5.369  16.809  0.00  0.00    +0.000 C 
ATOM     18  C   UNL     1       7.214   4.368  15.645  0.00  0.00    +0.000 C 
ATOM     19  C   UNL     1       5.979   3.498  15.615  0.00  0.00    +0.000 C 
ATOM     20  C   UNL     1       4.966   4.261  15.181  0.00  0.00    +0.000 C 
ATOM     21  C   UNL     1       5.526   5.647  14.939  0.00  0.00    +0.000 C 
ATOM     22  C   UNL     1       6.918   5.252  14.432  0.00  0.00    +0.000 C 
ENDBRANCH   4  16
TORSDOF 1
ENDMDL
MODEL 7
REMARK VINA RESULT:      -7.7      2.852      5.107
REMARK  Name = 
REMARK  1 active torsions:
REMARK  status: ('A' for Active; 'I' for Inactive)
REMARK    1  A    between atoms: C_4  and  C_5
REMARK                            x       y       z     vdW  Elec       q    Type
REMARK                         _______ _______ _______ _____ _____    ______ ____
ROOT
ATOM      1  O   UNL     1       2.992   2.802  20.932  0.00  0.00    +0.000 OA
ATOM      2  C   UNL     1       3.264   3.617  20.061  0.00  0.00    +0.000 A 
ATOM      3  C   UNL     1       4.172   3.271  18.955  0.00  0.00    +0.000 A 
ATOM      4  C   UNL     1       4.475   4.192  18.029  0.00  0.00    +0.000 A 
ATOM      5  O   UNL     1       3.971   5.483  18.052  0.00  0.00    +0.000 OA
ATOM      6  C   UNL     1       3.063   5.844  19.020  0.00  0.00    +0.000 A 
ATOM      7  C   UNL     1       2.704   4.976  20.049  0.00  0.00    +0.000 A 
ATOM      8  C   UNL     1       1.819   5.387  21.045  0.00  0.00    +0.000 A 
ATOM      9  C   UNL     1       1.282   6.674  21.000  0.00  0.00    +0.000 A 
ATOM     10  C   UNL     1       1.608   7.555  19.955  0.00  0.00    +0.000 A 
ATOM     11  C   UNL     1       1.050   8.841  19.897  0.00  0.00    +0.000 A 
ATOM     12  C   UNL     1       1.358   9.712  18.850  0.00  0.00    +0.000 A 
ATOM     13  C   UNL     1       2.233   9.311  17.849  0.00  0.00    +0.000 A 
ATOM     14  C   UNL     1       2.806   8.039  17.897  0.00  0.00    +0.000 A 
ATOM     15  C   UNL     1       2.509   7.140  18.944  0.00  0.00    +0.000 A 
ENDROOT
BRANCH   4  16
ATOM     16  C   UNL     1       5.405   3.945  16.860  0.00  0.00    +0.000 C 
ATOM     17  C   UNL     1       4.804   4.053  15.415  0.00  0.00    +0.000 C 
ATOM     18  C   UNL     1       5.779   5.020  14.706  0.00  0.00    +0.000 C 
ATOM     19  C   UNL     1       5.593   6.387  15.323  0.00  0.00    +0.000 C 
ATOM     20  C   UNL     1       6.105   6.336  16.561  0.00  0.00    +0.000 C 
ATOM     21  C   UNL     1       6.617   4.927  16.772  0.00  0.00    +0.000 C 
ATOM     22  C   UNL     1       7.113   4.642  15.350  0.00  0.00    +0.000 C 
ENDBRANCH   4  16
TORSDOF 1
ENDMDL
MODEL 8
REMARK VINA RESULT:      -7.5      2.109      6.751
REMARK  Name = 
REMARK  1 active torsions:
REMARK  status: ('A' for Active; 'I' for Inactive)
REMARK    1  A    between atoms: C_4  and  C_5
REMARK                            x       y       z     vdW  Elec       q    Type
REMARK                         _______ _______ _______ _____ _____    ______ ____
ROOT
ATOM      1  O   UNL     1       1.163   3.803  20.963  0.00  0.00    +0.000 OA
ATOM      2  C   UNL     1       1.679   4.726  20.346  0.00  0.00    +0.000 A 
ATOM      3  C   UNL     1       1.482   6.122  20.767  0.00  0.00    +0.000 A 
ATOM      4  C   UNL     1       2.036   7.116  20.057  0.00  0.00    +0.000 A 
ATOM      5  O   UNL     1       2.801   6.900  18.921  0.00  0.00    +0.000 OA
ATOM      6  C   UNL     1       3.078   5.614  18.520  0.00  0.00    +0.000 A 
ATOM      7  C   UNL     1       2.527   4.509  19.165  0.00  0.00    +0.000 A 
ATOM      8  C   UNL     1       2.786   3.219  18.705  0.00  0.00    +0.000 A 
ATOM      9  C   UNL     1       3.613   3.037  17.597  0.00  0.00    +0.000 A 
ATOM     10  C   UNL     1       4.202   4.136  16.948  0.00  0.00    +0.000 A 
ATOM     11  C   UNL     1       5.053   3.951  15.848  0.00  0.00    +0.000 A 
ATOM     12  C   UNL     1       5.654   5.041  15.213  0.00  0.00    +0.000 A 
ATOM     13  C   UNL     1       5.409   6.330  15.668  0.00  0.00    +0.000 A 
ATOM     14  C   UNL     1       4.557   6.532  16.755  0.00  0.00    +0.000 A 
ATOM     15  C   UNL     1       3.939   5.447  17.413  0.00  0.00    +0.000 A 
ENDROOT
BRANCH   4  16
ATOM     16  C   UNL     1       1.887   8.584  20.395  0.00  0.00    +0.000 C 
ATOM     17  C   UNL     1       1.082   9.485  19.393  0.00  0.00    +0.000 C 
ATOM     18  C   UNL     1       0.055  10.189  20.308  0.00  0.00    +0.000 C 
ATOM     19  C   UNL     1      -0.924   9.141  20.784  0.00  0.00    +0.000 C 
ATOM     20  C   UNL     1      -0.273   8.355  21.652  0.00  0.00    +0.000 C 
ATOM     21  C   UNL     1       1.147   8.872  21.741  0.00  0.00    +0.000 C 
ATOM     22  C   UNL     1       0.861  10.371  21.595  0.00  0.00    +0.000 C 
ENDBRANCH   4  16
TORSDOF 1
ENDMDL
MODEL 9
REMARK VINA RESULT:      -7.3      4.426      7.282
REMARK  Name = 
REMARK  1 active torsions:
REMARK  status: ('A' for Active; 'I' for Inactive)
REMARK    1  A    between atoms: C_4  and  C_5
REMARK                            x       y       z     vdW  Elec       q    Type
REMARK                         _______ _______ _______ _____ _____    ______ ____
ROOT
ATOM      1  O   UNL     1       6.864   5.823  19.788  0.00  0.00    +0.000 OA
ATOM      2  C   UNL     1       6.020   5.434  18.993  0.00  0.00    +0.000 A 
ATOM      3  C   UNL     1       4.614   5.274  19.399  0.00  0.00    +0.000 A 
ATOM      4  C   UNL     1       3.714   4.819  18.515  0.00  0.00    +0.000 A 
ATOM      5  O   UNL     1       4.037   4.482  17.210  0.00  0.00    +0.000 OA
ATOM      6  C   UNL     1       5.320   4.678  16.753  0.00  0.00    +0.000 A 
ATOM      7  C   UNL     1       6.340   5.113  17.595  0.00  0.00    +0.000 A 
ATOM      8  C   UNL     1       7.642   5.255  17.116  0.00  0.00    +0.000 A 
ATOM      9  C   UNL     1       7.918   4.968  15.779  0.00  0.00    +0.000 A 
ATOM     10  C   UNL     1       6.898   4.554  14.904  0.00  0.00    +0.000 A 
ATOM     11  C   UNL     1       7.171   4.288  13.554  0.00  0.00    +0.000 A 
ATOM     12  C   UNL     1       6.155   3.894  12.680  0.00  0.00    +0.000 A 
ATOM     13  C   UNL     1       4.854   3.757  13.145  0.00  0.00    +0.000 A 
ATOM     14  C   UNL     1       4.567   4.008  14.488  0.00  0.00    +0.000 A 
ATOM     15  C   UNL     1       5.576   4.408  15.390  0.00  0.00    +0.000 A 
ENDROOT
BRANCH   4  16
ATOM     16  C   UNL     1       2.249   4.606  18.830  0.00  0.00    +0.000 C 
ATOM     17  C   UNL     1       1.423   3.680  17.870  0.00  0.00    +0.000 C 
ATOM     18  C   UNL     1       0.756   2.680  18.841  0.00  0.00    +0.000 C 
ATOM     19  C   UNL     1       1.846   1.801  19.408  0.00  0.00    +0.000 C 
ATOM     20  C   UNL     1       2.570   2.558  20.245  0.00  0.00    +0.000 C 
ATOM     21  C   UNL     1       1.969   3.947  20.220  0.00  0.00    +0.000 C 
ATOM     22  C   UNL     1       0.494   3.563  20.062  0.00  0.00    +0.000 C 
ENDBRANCH   4  16
TORSDOF 1
ENDMDL
