MODEL 1
REMARK VINA RESULT:      -8.6      0.000      0.000
REMARK  Name = 
REMARK  10 active torsions:
REMARK  status: ('A' for Active; 'I' for Inactive)
REMARK    1  A    between atoms: C_1  and  N_2
REMARK    2  A    between atoms: N_4  and  C_5
REMARK    3  A    between atoms: C_5  and  C_6
REMARK    4  A    between atoms: C_6  and  C_7
REMARK    5  A    between atoms: C_7  and  C_8
REMARK    6  A    between atoms: C_8  and  C_9
REMARK    7  A    between atoms: C_9  and  C_10
REMARK    8  A    between atoms: C_10  and  N_11
REMARK    9  A    between atoms: N_11  and  C_12
REMARK   10  A    between atoms: C_27  and  C_28
REMARK                            x       y       z     vdW  Elec       q    Type
REMARK                         _______ _______ _______ _____ _____    ______ ____
ROOT
ATOM      1  C   UNL     1       0.972   3.589  19.446  0.00  0.00    +0.000 C 
ENDROOT
BRANCH   1   2
ATOM      2  C   UNL     1       1.904   3.904  20.622  0.00  0.00    +0.000 C 
BRANCH   2   3
ATOM      3  C   UNL     1       2.641   5.242  20.497  0.00  0.00    +0.000 C 
BRANCH   3   7
ATOM      4  C   UNL     1       2.458   6.982  18.010  0.00  0.00    +0.000 C 
ATOM      5  N   UNL     1       1.982   7.904  19.042  0.00  0.00    +0.000 N 
ATOM      6  C   UNL     1       1.651   7.624  20.364  0.00  0.00    +0.000 A 
ATOM      7  N   UNL     1       1.880   6.389  20.945  0.00  0.00    +0.000 N 
ATOM      8  N   UNL     1       1.074   8.535  21.150  0.00  0.00    +0.000 NA
ATOM      9  C   UNL     1       0.762   9.796  20.677  0.00  0.00    +0.000 A 
ATOM     10  C   UNL     1       1.135  10.139  19.445  0.00  0.00    +0.000 A 
ATOM     11  C   UNL     1       1.786   9.169  18.552  0.00  0.00    +0.000 A 
ATOM     12  O   UNL     1       2.043   9.527  17.397  0.00  0.00    +0.000 OA
ATOM     13  H   UNL     1       1.468   6.328  21.880  0.00  0.00    +0.000 HD
BRANCH   9  14
ATOM     14  C   UNL     1      -0.219  10.799  21.377  0.00  0.00    +0.000 A 
ATOM     15  C   UNL     1      -0.611  10.743  22.731  0.00  0.00    +0.000 A 
ATOM     16  C   UNL     1      -1.792  11.392  23.162  0.00  0.00    +0.000 A 
ATOM     17  N   UNL     1      -2.549  12.194  22.402  0.00  0.00    +0.000 NA
ATOM     18  C   UNL     1      -2.089  12.386  21.164  0.00  0.00    +0.000 A 
ATOM     19  C   UNL     1      -0.966  11.739  20.627  0.00  0.00    +0.000 A 
ENDBRANCH   9  14
ENDBRANCH   3   7
ENDBRANCH   2   3
ENDBRANCH   1   2
BRANCH   1  20
ATOM     20  C   UNL     1       1.572   2.632  18.399  0.00  0.00    +0.000 C 
BRANCH  20  21
ATOM     21  C   UNL     1       3.103   2.541  18.435  0.00  0.00    +0.000 C 
BRANCH  21  22
ATOM     22  C   UNL     1       3.718   2.479  17.047  0.00  0.00    +0.000 C 
BRANCH  22  23
ATOM     23  N   UNL     1       3.816   3.812  16.483  0.00  0.00    +0.000 N 
ATOM     24  H   UNL     1       3.269   4.508  16.989  0.00  0.00    +0.000 HD
BRANCH  23  25
ATOM     25  C   UNL     1       5.078   4.355  16.160  0.00  0.00    +0.000 A 
ATOM     26  C   UNL     1       5.660   4.300  14.862  0.00  0.00    +0.000 A 
ATOM     27  C   UNL     1       6.879   4.931  14.685  0.00  0.00    +0.000 A 
ATOM     28  N   UNL     1       7.643   5.268  15.729  0.00  0.00    +0.000 NA
ATOM     29  C   UNL     1       7.165   5.208  16.973  0.00  0.00    +0.000 A 
ATOM     30  C   UNL     1       8.045   5.521  17.996  0.00  0.00    +0.000 A 
ATOM     31  C   UNL     1       7.635   5.689  19.311  0.00  0.00    +0.000 A 
ATOM     32  C   UNL     1       6.305   5.476  19.625  0.00  0.00    +0.000 A 
ATOM     33  C   UNL     1       5.426   5.032  18.625  0.00  0.00    +0.000 A 
ATOM     34  C   UNL     1       5.848   4.866  17.266  0.00  0.00    +0.000 A 
ATOM     35  C   UNL     1       7.546   5.130  13.347  0.00  0.00    +0.000 C 
ATOM     36  C   UNL     1       6.829   4.493  12.168  0.00  0.00    +0.000 C 
ATOM     37  C   UNL     1       6.192   3.193  12.623  0.00  0.00    +0.000 C 
ATOM     38  C   UNL     1       5.139   3.485  13.699  0.00  0.00    +0.000 C 
ENDBRANCH  23  25
ENDBRANCH  22  23
ENDBRANCH  21  22
ENDBRANCH  20  21
ENDBRANCH   1  20
TORSDOF 9
ENDMDL
MODEL 2
REMARK VINA RESULT:      -8.5      3.342      5.933
REMARK  Name = 
REMARK  10 active torsions:
REMARK  status: ('A' for Active; 'I' for Inactive)
REMARK    1  A    between atoms: C_1  and  N_2
REMARK    2  A    between atoms: N_4  and  C_5
REMARK    3  A    between atoms: C_5  and  C_6
REMARK    4  A    between atoms: C_6  and  C_7
REMARK    5  A    between atoms: C_7  and  C_8
REMARK    6  A    between atoms: C_8  and  C_9
REMARK    7  A    between atoms: C_9  and  C_10
REMARK    8  A    between atoms: C_10  and  N_11
REMARK    9  A    between atoms: N_11  and  C_12
REMARK   10  A    between atoms: C_27  and  C_28
REMARK                            x       y       z     vdW  Elec       q    Type
REMARK                         _______ _______ _______ _____ _____    ______ ____
ROOT
ATOM      1  C   UNL     1       1.174   9.080  21.875  0.00  0.00    +0.000 C 
ENDROOT
BRANCH   1   2
ATOM      2  C   UNL     1      -0.254   9.217  22.414  0.00  0.00    +0.000 C 
BRANCH   2   3
ATOM      3  C   UNL     1      -0.720  10.666  22.597  0.00  0.00    +0.000 C 
BRANCH   3   7
ATOM      4  C   UNL     1      -1.838  11.602  19.929  0.00  0.00    +0.000 C 
ATOM      5  N   UNL     1      -0.503  12.199  19.906  0.00  0.00    +0.000 N 
ATOM      6  C   UNL     1       0.420  12.291  20.944  0.00  0.00    +0.000 A 
ATOM      7  N   UNL     1       0.236  11.662  22.163  0.00  0.00    +0.000 N 
ATOM      8  N   UNL     1       1.538  13.008  20.826  0.00  0.00    +0.000 NA
ATOM      9  C   UNL     1       1.821  13.710  19.670  0.00  0.00    +0.000 A 
ATOM     10  C   UNL     1       1.011  13.587  18.620  0.00  0.00    +0.000 A 
ATOM     11  C   UNL     1      -0.224  12.794  18.704  0.00  0.00    +0.000 A 
ATOM     12  O   UNL     1      -0.970  12.777  17.718  0.00  0.00    +0.000 OA
ATOM     13  H   UNL     1       0.952  11.934  22.841  0.00  0.00    +0.000 HD
BRANCH   9  14
ATOM     14  C   UNL     1       2.892  14.849  19.551  0.00  0.00    +0.000 A 
ATOM     15  C   UNL     1       3.256  15.736  20.586  0.00  0.00    +0.000 A 
ATOM     16  C   UNL     1       3.884  16.967  20.286  0.00  0.00    +0.000 A 
ATOM     17  N   UNL     1       4.299  17.342  19.069  0.00  0.00    +0.000 NA
ATOM     18  C   UNL     1       4.109  16.433  18.112  0.00  0.00    +0.000 A 
ATOM     19  C   UNL     1       3.441  15.214  18.298  0.00  0.00    +0.000 A 
ENDBRANCH   9  14
ENDBRANCH   3   7
ENDBRANCH   2   3
ENDBRANCH   1   2
BRANCH   1  20
ATOM     20  C   UNL     1       1.299   8.180  20.630  0.00  0.00    +0.000 C 
BRANCH  20  21
ATOM     21  C   UNL     1       1.459   8.950  19.313  0.00  0.00    +0.000 C 
BRANCH  21  22
ATOM     22  C   UNL     1       2.041   8.091  18.201  0.00  0.00    +0.000 C 
BRANCH  22  23
ATOM     23  N   UNL     1       2.996   7.146  18.747  0.00  0.00    +0.000 N 
ATOM     24  H   UNL     1       3.000   7.116  19.767  0.00  0.00    +0.000 HD
BRANCH  23  25
ATOM     25  C   UNL     1       3.060   5.830  18.242  0.00  0.00    +0.000 A 
ATOM     26  C   UNL     1       2.308   4.739  18.764  0.00  0.00    +0.000 A 
ATOM     27  C   UNL     1       2.430   3.518  18.123  0.00  0.00    +0.000 A 
ATOM     28  N   UNL     1       3.449   3.271  17.293  0.00  0.00    +0.000 NA
ATOM     29  C   UNL     1       4.252   4.255  16.885  0.00  0.00    +0.000 A 
ATOM     30  C   UNL     1       5.313   3.896  16.071  0.00  0.00    +0.000 A 
ATOM     31  C   UNL     1       6.106   4.831  15.420  0.00  0.00    +0.000 A 
ATOM     32  C   UNL     1       5.867   6.175  15.640  0.00  0.00    +0.000 A 
ATOM     33  C   UNL     1       4.879   6.554  16.562  0.00  0.00    +0.000 A 
ATOM     34  C   UNL     1       4.055   5.589  17.229  0.00  0.00    +0.000 A 
ATOM     35  C   UNL     1       1.576   2.313  18.423  0.00  0.00    +0.000 C 
ATOM     36  C   UNL     1       0.599   2.485  19.575  0.00  0.00    +0.000 C 
ATOM     37  C   UNL     1       1.234   3.368  20.632  0.00  0.00    +0.000 C 
ATOM     38  C   UNL     1       1.504   4.759  20.046  0.00  0.00    +0.000 C 
ENDBRANCH  23  25
ENDBRANCH  22  23
ENDBRANCH  21  22
ENDBRANCH  20  21
ENDBRANCH   1  20
TORSDOF 9
ENDMDL
MODEL 3
REMARK VINA RESULT:      -8.4      2.861      6.143
REMARK  Name = 
REMARK  10 active torsions:
REMARK  status: ('A' for Active; 'I' for Inactive)
REMARK    1  A    between atoms: C_1  and  N_2
REMARK    2  A    between atoms: N_4  and  C_5
REMARK    3  A    between atoms: C_5  and  C_6
REMARK    4  A    between atoms: C_6  and  C_7
REMARK    5  A    between atoms: C_7  and  C_8
REMARK    6  A    between atoms: C_8  and  C_9
REMARK    7  A    between atoms: C_9  and  C_10
REMARK    8  A    between atoms: C_10  and  N_11
REMARK    9  A    between atoms: N_11  and  C_12
REMARK   10  A    between atoms: C_27  and  C_28
REMARK                            x       y       z     vdW  Elec       q    Type
REMARK                         _______ _______ _______ _____ _____    ______ ____
ROOT
ATOM      1  C   UNL     1       0.857  10.555  19.933  0.00  0.00    +0.000 C 
ENDROOT
BRANCH   1   2
ATOM      2  C   UNL     1       1.239  11.525  18.809  0.00  0.00    +0.000 C 
BRANCH   2   3
ATOM      3  C   UNL     1       0.133  12.516  18.432  0.00  0.00    +0.000 C 
BRANCH   3   7
ATOM      4  C   UNL     1      -2.161  11.130  16.997  0.00  0.00    +0.000 C 
ATOM      5  N   UNL     1      -2.858  11.744  18.127  0.00  0.00    +0.000 N 
ATOM      6  C   UNL     1      -2.310  12.351  19.253  0.00  0.00    +0.000 A 
ATOM      7  N   UNL     1      -0.954  12.593  19.384  0.00  0.00    +0.000 N 
ATOM      8  N   UNL     1      -3.067  12.725  20.286  0.00  0.00    +0.000 NA
ATOM      9  C   UNL     1      -4.432  12.507  20.291  0.00  0.00    +0.000 A 
ATOM     10  C   UNL     1      -5.014  12.006  19.202  0.00  0.00    +0.000 A 
ATOM     11  C   UNL     1      -4.218  11.596  18.037  0.00  0.00    +0.000 A 
ATOM     12  O   UNL     1      -4.810  11.072  17.087  0.00  0.00    +0.000 OA
ATOM     13  H   UNL     1      -0.719  12.935  20.319  0.00  0.00    +0.000 HD
BRANCH   9  14
ATOM     14  C   UNL     1      -5.346  12.569  21.563  0.00  0.00    +0.000 A 
ATOM     15  C   UNL     1      -6.740  12.357  21.575  0.00  0.00    +0.000 A 
ATOM     16  C   UNL     1      -7.530  12.844  22.644  0.00  0.00    +0.000 A 
ATOM     17  N   UNL     1      -7.049  13.408  23.759  0.00  0.00    +0.000 NA
ATOM     18  C   UNL     1      -5.718  13.458  23.829  0.00  0.00    +0.000 A 
ATOM     19  C   UNL     1      -4.855  13.061  22.797  0.00  0.00    +0.000 A 
ENDBRANCH   9  14
ENDBRANCH   3   7
ENDBRANCH   2   3
ENDBRANCH   1   2
BRANCH   1  20
ATOM     20  C   UNL     1       1.129   9.073  19.613  0.00  0.00    +0.000 C 
BRANCH  20  21
ATOM     21  C   UNL     1       1.224   8.761  18.114  0.00  0.00    +0.000 C 
BRANCH  21  22
ATOM     22  C   UNL     1       2.649   8.482  17.665  0.00  0.00    +0.000 C 
BRANCH  22  23
ATOM     23  N   UNL     1       3.264   7.498  18.534  0.00  0.00    +0.000 N 
ATOM     24  H   UNL     1       3.019   7.615  19.517  0.00  0.00    +0.000 HD
BRANCH  23  25
ATOM     25  C   UNL     1       3.214   6.127  18.201  0.00  0.00    +0.000 A 
ATOM     26  C   UNL     1       2.461   5.159  18.924  0.00  0.00    +0.000 A 
ATOM     27  C   UNL     1       2.462   3.862  18.440  0.00  0.00    +0.000 A 
ATOM     28  N   UNL     1       3.384   3.451  17.564  0.00  0.00    +0.000 NA
ATOM     29  C   UNL     1       4.194   4.324  16.963  0.00  0.00    +0.000 A 
ATOM     30  C   UNL     1       5.155   3.802  16.113  0.00  0.00    +0.000 A 
ATOM     31  C   UNL     1       5.928   4.597  15.280  0.00  0.00    +0.000 A 
ATOM     32  C   UNL     1       5.778   5.970  15.343  0.00  0.00    +0.000 A 
ATOM     33  C   UNL     1       4.901   6.522  16.290  0.00  0.00    +0.000 A 
ATOM     34  C   UNL     1       4.097   5.700  17.146  0.00  0.00    +0.000 A 
ATOM     35  C   UNL     1       1.580   2.758  18.967  0.00  0.00    +0.000 C 
ATOM     36  C   UNL     1       0.726   3.133  20.167  0.00  0.00    +0.000 C 
ATOM     37  C   UNL     1       1.501   4.101  21.041  0.00  0.00    +0.000 C 
ATOM     38  C   UNL     1       1.784   5.389  20.257  0.00  0.00    +0.000 C 
ENDBRANCH  23  25
ENDBRANCH  22  23
ENDBRANCH  21  22
ENDBRANCH  20  21
ENDBRANCH   1  20
TORSDOF 9
ENDMDL
MODEL 4
REMARK VINA RESULT:      -8.3      4.814      7.080
REMARK  Name = 
REMARK  10 active torsions:
REMARK  status: ('A' for Active; 'I' for Inactive)
REMARK    1  A    between atoms: C_1  and  N_2
REMARK    2  A    between atoms: N_4  and  C_5
REMARK    3  A    between atoms: C_5  and  C_6
REMARK    4  A    between atoms: C_6  and  C_7
REMARK    5  A    between atoms: C_7  and  C_8
REMARK    6  A    between atoms: C_8  and  C_9
REMARK    7  A    between atoms: C_9  and  C_10
REMARK    8  A    between atoms: C_10  and  N_11
REMARK    9  A    between atoms: N_11  and  C_12
REMARK   10  A    between atoms: C_27  and  C_28
REMARK                            x       y       z     vdW  Elec       q    Type
REMARK                         _______ _______ _______ _____ _____    ______ ____
ROOT
ATOM      1  C   UNL     1      -0.314  10.698  18.910  0.00  0.00    +0.000 C 
ENDROOT
BRANCH   1   2
ATOM      2  C   UNL     1      -0.227  12.171  19.328  0.00  0.00    +0.000 C 
BRANCH   2   3
ATOM      3  C   UNL     1       0.265  13.110  18.221  0.00  0.00    +0.000 C 
BRANCH   3   7
ATOM      4  C   UNL     1       0.714  15.956  19.193  0.00  0.00    +0.000 C 
ATOM      5  N   UNL     1       2.035  15.622  18.659  0.00  0.00    +0.000 N 
ATOM      6  C   UNL     1       2.513  14.381  18.251  0.00  0.00    +0.000 A 
ATOM      7  N   UNL     1       1.702  13.263  18.158  0.00  0.00    +0.000 N 
ATOM      8  N   UNL     1       3.795  14.193  17.936  0.00  0.00    +0.000 NA
ATOM      9  C   UNL     1       4.713  15.223  18.021  0.00  0.00    +0.000 A 
ATOM     10  C   UNL     1       4.288  16.448  18.326  0.00  0.00    +0.000 A 
ATOM     11  C   UNL     1       2.880  16.701  18.664  0.00  0.00    +0.000 A 
ATOM     12  O   UNL     1       2.563  17.845  19.008  0.00  0.00    +0.000 OA
ATOM     13  H   UNL     1       2.244  12.418  17.958  0.00  0.00    +0.000 HD
BRANCH   9  14
ATOM     14  C   UNL     1       6.270  15.039  18.029  0.00  0.00    +0.000 A 
ATOM     15  C   UNL     1       6.956  13.886  17.595  0.00  0.00    +0.000 A 
ATOM     16  C   UNL     1       8.280  13.635  18.026  0.00  0.00    +0.000 A 
ATOM     17  N   UNL     1       9.028  14.483  18.743  0.00  0.00    +0.000 NA
ATOM     18  C   UNL     1       8.442  15.651  19.013  0.00  0.00    +0.000 A 
ATOM     19  C   UNL     1       7.115  15.966  18.685  0.00  0.00    +0.000 A 
ENDBRANCH   9  14
ENDBRANCH   3   7
ENDBRANCH   2   3
ENDBRANCH   1   2
BRANCH   1  20
ATOM     20  C   UNL     1       0.951   9.875  19.216  0.00  0.00    +0.000 C 
BRANCH  20  21
ATOM     21  C   UNL     1       1.376   8.931  18.084  0.00  0.00    +0.000 C 
BRANCH  21  22
ATOM     22  C   UNL     1       2.605   8.110  18.439  0.00  0.00    +0.000 C 
BRANCH  22  23
ATOM     23  N   UNL     1       2.402   6.721  18.073  0.00  0.00    +0.000 N 
ATOM     24  H   UNL     1       2.088   6.596  17.111  0.00  0.00    +0.000 HD
BRANCH  23  25
ATOM     25  C   UNL     1       3.390   5.757  18.370  0.00  0.00    +0.000 A 
ATOM     26  C   UNL     1       4.592   5.594  17.625  0.00  0.00    +0.000 A 
ATOM     27  C   UNL     1       5.495   4.646  18.075  0.00  0.00    +0.000 A 
ATOM     28  N   UNL     1       5.125   3.692  18.936  0.00  0.00    +0.000 NA
ATOM     29  C   UNL     1       3.946   3.750  19.556  0.00  0.00    +0.000 A 
ATOM     30  C   UNL     1       3.624   2.689  20.387  0.00  0.00    +0.000 A 
ATOM     31  C   UNL     1       2.529   2.711  21.237  0.00  0.00    +0.000 A 
ATOM     32  C   UNL     1       1.688   3.808  21.211  0.00  0.00    +0.000 A 
ATOM     33  C   UNL     1       1.926   4.834  20.283  0.00  0.00    +0.000 A 
ATOM     34  C   UNL     1       3.062   4.815  19.410  0.00  0.00    +0.000 A 
ATOM     35  C   UNL     1       6.887   4.469  17.523  0.00  0.00    +0.000 C 
ATOM     36  C   UNL     1       7.228   5.357  16.337  0.00  0.00    +0.000 C 
ATOM     37  C   UNL     1       5.986   5.540  15.486  0.00  0.00    +0.000 C 
ATOM     38  C   UNL     1       4.903   6.258  16.302  0.00  0.00    +0.000 C 
ENDBRANCH  23  25
ENDBRANCH  22  23
ENDBRANCH  21  22
ENDBRANCH  20  21
ENDBRANCH   1  20
TORSDOF 9
ENDMDL
MODEL 5
REMARK VINA RESULT:      -8.3      4.710      7.032
REMARK  Name = 
REMARK  10 active torsions:
REMARK  status: ('A' for Active; 'I' for Inactive)
REMARK    1  A    between atoms: C_1  and  N_2
REMARK    2  A    between atoms: N_4  and  C_5
REMARK    3  A    between atoms: C_5  and  C_6
REMARK    4  A    between atoms: C_6  and  C_7
REMARK    5  A    between atoms: C_7  and  C_8
REMARK    6  A    between atoms: C_8  and  C_9
REMARK    7  A    between atoms: C_9  and  C_10
REMARK    8  A    between atoms: C_10  and  N_11
REMARK    9  A    between atoms: N_11  and  C_12
REMARK   10  A    between atoms: C_27  and  C_28
REMARK                            x       y       z     vdW  Elec       q    Type
REMARK                         _______ _______ _______ _____ _____    ______ ____
ROOT
ATOM      1  C   UNL     1       0.067  10.745  19.035  0.00  0.00    +0.000 C 
ENDROOT
BRANCH   1   2
ATOM      2  C   UNL     1      -0.902  11.831  18.552  0.00  0.00    +0.000 C 
BRANCH   2   3
ATOM      3  C   UNL     1      -0.390  13.262  18.752  0.00  0.00    +0.000 C 
BRANCH   3   7
ATOM      4  C   UNL     1       0.086  16.264  18.690  0.00  0.00    +0.000 C 
ATOM      5  N   UNL     1       1.446  15.754  18.518  0.00  0.00    +0.000 N 
ATOM      6  C   UNL     1       1.903  14.447  18.661  0.00  0.00    +0.000 A 
ATOM      7  N   UNL     1       1.048  13.376  18.856  0.00  0.00    +0.000 N 
ATOM      8  N   UNL     1       3.203  14.152  18.633  0.00  0.00    +0.000 NA
ATOM      9  C   UNL     1       4.159  15.138  18.479  0.00  0.00    +0.000 A 
ATOM     10  C   UNL     1       3.769  16.392  18.254  0.00  0.00    +0.000 A 
ATOM     11  C   UNL     1       2.345  16.756  18.262  0.00  0.00    +0.000 A 
ATOM     12  O   UNL     1       2.051  17.948  18.119  0.00  0.00    +0.000 OA
ATOM     13  H   UNL     1       1.562  12.514  19.057  0.00  0.00    +0.000 HD
BRANCH   9  14
ATOM     14  C   UNL     1       5.686  14.963  18.787  0.00  0.00    +0.000 A 
ATOM     15  C   UNL     1       6.294  15.182  20.042  0.00  0.00    +0.000 A 
ATOM     16  C   UNL     1       7.685  15.422  20.132  0.00  0.00    +0.000 A 
ATOM     17  N   UNL     1       8.547  15.339  19.111  0.00  0.00    +0.000 NA
ATOM     18  C   UNL     1       8.002  14.966  17.951  0.00  0.00    +0.000 A 
ATOM     19  C   UNL     1       6.628  14.768  17.748  0.00  0.00    +0.000 A 
ENDBRANCH   9  14
ENDBRANCH   3   7
ENDBRANCH   2   3
ENDBRANCH   1   2
BRANCH   1  20
ATOM     20  C   UNL     1       0.291   9.601  18.029  0.00  0.00    +0.000 C 
BRANCH  20  21
ATOM     21  C   UNL     1       1.755   9.158  17.897  0.00  0.00    +0.000 C 
BRANCH  21  22
ATOM     22  C   UNL     1       2.135   8.091  18.910  0.00  0.00    +0.000 C 
BRANCH  22  23
ATOM     23  N   UNL     1       2.221   6.795  18.264  0.00  0.00    +0.000 N 
ATOM     24  H   UNL     1       2.171   6.845  17.246  0.00  0.00    +0.000 HD
BRANCH  23  25
ATOM     25  C   UNL     1       3.229   5.881  18.637  0.00  0.00    +0.000 A 
ATOM     26  C   UNL     1       4.539   5.868  18.078  0.00  0.00    +0.000 A 
ATOM     27  C   UNL     1       5.440   4.951  18.589  0.00  0.00    +0.000 A 
ATOM     28  N   UNL     1       5.026   3.902  19.308  0.00  0.00    +0.000 NA
ATOM     29  C   UNL     1       3.767   3.822  19.740  0.00  0.00    +0.000 A 
ATOM     30  C   UNL     1       3.414   2.674  20.429  0.00  0.00    +0.000 A 
ATOM     31  C   UNL     1       2.206   2.544  21.098  0.00  0.00    +0.000 A 
ATOM     32  C   UNL     1       1.291   3.577  21.024  0.00  0.00    +0.000 A 
ATOM     33  C   UNL     1       1.579   4.694  20.224  0.00  0.00    +0.000 A 
ATOM     34  C   UNL     1       2.830   4.831  19.539  0.00  0.00    +0.000 A 
ATOM     35  C   UNL     1       6.908   4.921  18.248  0.00  0.00    +0.000 C 
ATOM     36  C   UNL     1       7.347   5.930  17.200  0.00  0.00    +0.000 C 
ATOM     37  C   UNL     1       6.235   6.099  16.183  0.00  0.00    +0.000 C 
ATOM     38  C   UNL     1       4.987   6.665  16.873  0.00  0.00    +0.000 C 
ENDBRANCH  23  25
ENDBRANCH  22  23
ENDBRANCH  21  22
ENDBRANCH  20  21
ENDBRANCH   1  20
TORSDOF 9
ENDMDL
MODEL 6
REMARK VINA RESULT:      -8.3      3.432      6.569
REMARK  Name = 
REMARK  10 active torsions:
REMARK  status: ('A' for Active; 'I' for Inactive)
REMARK    1  A    between atoms: C_1  and  N_2
REMARK    2  A    between atoms: N_4  and  C_5
REMARK    3  A    between atoms: C_5  and  C_6
REMARK    4  A    between atoms: C_6  and  C_7
REMARK    5  A    between atoms: C_7  and  C_8
REMARK    6  A    between atoms: C_8  and  C_9
REMARK    7  A    between atoms: C_9  and  C_10
REMARK    8  A    between atoms: C_10  and  N_11
REMARK    9  A    between atoms: N_11  and  C_12
REMARK   10  A    between atoms: C_27  and  C_28
REMARK                            x       y       z     vdW  Elec       q    Type
REMARK                         _______ _______ _______ _____ _____    ______ ____
ROOT
ATOM      1  C   UNL     1       0.977  10.655  18.484  0.00  0.00    +0.000 C 
ENDROOT
BRANCH   1   2
ATOM      2  C   UNL     1      -0.467  10.150  18.385  0.00  0.00    +0.000 C 
BRANCH   2   3
ATOM      3  C   UNL     1      -1.479  11.221  17.960  0.00  0.00    +0.000 C 
BRANCH   3   7
ATOM      4  C   UNL     1      -4.204  11.162  16.613  0.00  0.00    +0.000 C 
ATOM      5  N   UNL     1      -4.512  11.872  17.855  0.00  0.00    +0.000 N 
ATOM      6  C   UNL     1      -3.708  12.035  18.979  0.00  0.00    +0.000 A 
ATOM      7  N   UNL     1      -2.381  11.643  19.009  0.00  0.00    +0.000 N 
ATOM      8  N   UNL     1      -4.180  12.568  20.107  0.00  0.00    +0.000 NA
ATOM      9  C   UNL     1      -5.499  12.968  20.214  0.00  0.00    +0.000 A 
ATOM     10  C   UNL     1      -6.285  12.910  19.140  0.00  0.00    +0.000 A 
ATOM     11  C   UNL     1      -5.799  12.342  17.874  0.00  0.00    +0.000 A 
ATOM     12  O   UNL     1      -6.599  12.251  16.936  0.00  0.00    +0.000 OA
ATOM     13  H   UNL     1      -1.982  11.730  19.948  0.00  0.00    +0.000 HD
BRANCH   9  14
ATOM     14  C   UNL     1      -6.240  13.262  21.564  0.00  0.00    +0.000 A 
ATOM     15  C   UNL     1      -7.499  13.886  21.682  0.00  0.00    +0.000 A 
ATOM     16  C   UNL     1      -7.888  14.491  22.900  0.00  0.00    +0.000 A 
ATOM     17  N   UNL     1      -7.198  14.423  24.046  0.00  0.00    +0.000 NA
ATOM     18  C   UNL     1      -6.085  13.690  23.984  0.00  0.00    +0.000 A 
ATOM     19  C   UNL     1      -5.586  13.106  22.810  0.00  0.00    +0.000 A 
ENDBRANCH   9  14
ENDBRANCH   3   7
ENDBRANCH   2   3
ENDBRANCH   1   2
BRANCH   1  20
ATOM     20  C   UNL     1       2.022   9.716  17.853  0.00  0.00    +0.000 C 
BRANCH  20  21
ATOM     21  C   UNL     1       1.775   8.226  18.126  0.00  0.00    +0.000 C 
BRANCH  21  22
ATOM     22  C   UNL     1       2.091   7.835  19.560  0.00  0.00    +0.000 C 
BRANCH  22  23
ATOM     23  N   UNL     1       3.194   6.892  19.590  0.00  0.00    +0.000 N 
ATOM     24  H   UNL     1       3.519   6.678  20.533  0.00  0.00    +0.000 HD
BRANCH  23  25
ATOM     25  C   UNL     1       3.128   5.700  18.837  0.00  0.00    +0.000 A 
ATOM     26  C   UNL     1       2.324   4.579  19.190  0.00  0.00    +0.000 A 
ATOM     27  C   UNL     1       2.317   3.503  18.319  0.00  0.00    +0.000 A 
ATOM     28  N   UNL     1       3.266   3.359  17.389  0.00  0.00    +0.000 NA
ATOM     29  C   UNL     1       4.119   4.349  17.123  0.00  0.00    +0.000 A 
ATOM     30  C   UNL     1       5.104   4.090  16.184  0.00  0.00    +0.000 A 
ATOM     31  C   UNL     1       5.929   5.081  15.673  0.00  0.00    +0.000 A 
ATOM     32  C   UNL     1       5.806   6.368  16.164  0.00  0.00    +0.000 A 
ATOM     33  C   UNL     1       4.903   6.622  17.208  0.00  0.00    +0.000 A 
ATOM     34  C   UNL     1       4.045   5.599  17.731  0.00  0.00    +0.000 A 
ATOM     35  C   UNL     1       1.390   2.320  18.439  0.00  0.00    +0.000 C 
ATOM     36  C   UNL     1       0.494   2.324  19.666  0.00  0.00    +0.000 C 
ATOM     37  C   UNL     1       1.252   2.939  20.827  0.00  0.00    +0.000 C 
ATOM     38  C   UNL     1       1.596   4.398  20.503  0.00  0.00    +0.000 C 
ENDBRANCH  23  25
ENDBRANCH  22  23
ENDBRANCH  21  22
ENDBRANCH  20  21
ENDBRANCH   1  20
TORSDOF 9
ENDMDL
MODEL 7
REMARK VINA RESULT:      -8.2      5.438      7.968
REMARK  Name = 
REMARK  10 active torsions:
REMARK  status: ('A' for Active; 'I' for Inactive)
REMARK    1  A    between atoms: C_1  and  N_2
REMARK    2  A    between atoms: N_4  and  C_5
REMARK    3  A    between atoms: C_5  and  C_6
REMARK    4  A    between atoms: C_6  and  C_7
REMARK    5  A    between atoms: C_7  and  C_8
REMARK    6  A    between atoms: C_8  and  C_9
REMARK    7  A    between atoms: C_9  and  C_10
REMARK    8  A    between atoms: C_10  and  N_11
REMARK    9  A    between atoms: N_11  and  C_12
REMARK   10  A    between atoms: C_27  and  C_28
REMARK                            x       y       z     vdW  Elec       q    Type
REMARK                         _______ _______ _______ _____ _____    ______ ____
ROOT
ATOM      1  C   UNL     1       2.262  11.556  18.090  0.00  0.00    +0.000 C 
ENDROOT
BRANCH   1   2
ATOM      2  C   UNL     1       1.440  12.848  18.172  0.00  0.00    +0.000 C 
BRANCH   2   3
ATOM      3  C   UNL     1       2.282  14.129  18.173  0.00  0.00    +0.000 C 
BRANCH   3   7
ATOM      4  C   UNL     1       3.460  16.626  19.447  0.00  0.00    +0.000 C 
ATOM      5  N   UNL     1       4.648  16.025  18.842  0.00  0.00    +0.000 N 
ATOM      6  C   UNL     1       4.785  14.758  18.282  0.00  0.00    +0.000 A 
ATOM      7  N   UNL     1       3.710  13.908  18.087  0.00  0.00    +0.000 N 
ATOM      8  N   UNL     1       5.974  14.280  17.912  0.00  0.00    +0.000 NA
ATOM      9  C   UNL     1       7.129  15.018  18.086  0.00  0.00    +0.000 A 
ATOM     10  C   UNL     1       7.040  16.268  18.540  0.00  0.00    +0.000 A 
ATOM     11  C   UNL     1       5.747  16.837  18.945  0.00  0.00    +0.000 A 
ATOM     12  O   UNL     1       5.740  17.976  19.424  0.00  0.00    +0.000 OA
ATOM     13  H   UNL     1       4.011  12.981  17.777  0.00  0.00    +0.000 HD
BRANCH   9  14
ATOM     14  C   UNL     1       8.584  14.435  18.030  0.00  0.00    +0.000 A 
ATOM     15  C   UNL     1       9.765  15.201  17.939  0.00  0.00    +0.000 A 
ATOM     16  C   UNL     1      10.963  14.617  17.467  0.00  0.00    +0.000 A 
ATOM     17  N   UNL     1      11.130  13.315  17.198  0.00  0.00    +0.000 NA
ATOM     18  C   UNL     1      10.061  12.555  17.443  0.00  0.00    +0.000 A 
ATOM     19  C   UNL     1       8.813  13.050  17.850  0.00  0.00    +0.000 A 
ENDBRANCH   9  14
ENDBRANCH   3   7
ENDBRANCH   2   3
ENDBRANCH   1   2
BRANCH   1  20
ATOM     20  C   UNL     1       1.554  10.316  18.665  0.00  0.00    +0.000 C 
BRANCH  20  21
ATOM     21  C   UNL     1       1.562   9.098  17.732  0.00  0.00    +0.000 C 
BRANCH  21  22
ATOM     22  C   UNL     1       2.816   8.253  17.886  0.00  0.00    +0.000 C 
BRANCH  22  23
ATOM     23  N   UNL     1       2.547   7.108  18.736  0.00  0.00    +0.000 N 
ATOM     24  H   UNL     1       1.583   6.779  18.680  0.00  0.00    +0.000 HD
BRANCH  23  25
ATOM     25  C   UNL     1       3.420   5.999  18.730  0.00  0.00    +0.000 A 
ATOM     26  C   UNL     1       4.467   5.816  17.783  0.00  0.00    +0.000 A 
ATOM     27  C   UNL     1       5.281   4.708  17.942  0.00  0.00    +0.000 A 
ATOM     28  N   UNL     1       4.907   3.679  18.710  0.00  0.00    +0.000 NA
ATOM     29  C   UNL     1       3.849   3.777  19.516  0.00  0.00    +0.000 A 
ATOM     30  C   UNL     1       3.503   2.642  20.232  0.00  0.00    +0.000 A 
ATOM     31  C   UNL     1       2.555   2.657  21.245  0.00  0.00    +0.000 A 
ATOM     32  C   UNL     1       1.883   3.837  21.510  0.00  0.00    +0.000 A 
ATOM     33  C   UNL     1       2.129   4.962  20.708  0.00  0.00    +0.000 A 
ATOM     34  C   UNL     1       3.114   4.949  19.667  0.00  0.00    +0.000 A 
ATOM     35  C   UNL     1       6.540   4.458  17.151  0.00  0.00    +0.000 C 
ATOM     36  C   UNL     1       6.830   5.478  16.062  0.00  0.00    +0.000 C 
ATOM     37  C   UNL     1       5.518   5.941  15.459  0.00  0.00    +0.000 C 
ATOM     38  C   UNL     1       4.677   6.642  16.533  0.00  0.00    +0.000 C 
ENDBRANCH  23  25
ENDBRANCH  22  23
ENDBRANCH  21  22
ENDBRANCH  20  21
ENDBRANCH   1  20
TORSDOF 9
ENDMDL
MODEL 8
REMARK VINA RESULT:      -8.2      3.508      6.543
REMARK  Name = 
REMARK  10 active torsions:
REMARK  status: ('A' for Active; 'I' for Inactive)
REMARK    1  A    between atoms: C_1  and  N_2
REMARK    2  A    between atoms: N_4  and  C_5
REMARK    3  A    between atoms: C_5  and  C_6
REMARK    4  A    between atoms: C_6  and  C_7
REMARK    5  A    between atoms: C_7  and  C_8
REMARK    6  A    between atoms: C_8  and  C_9
REMARK    7  A    between atoms: C_9  and  C_10
REMARK    8  A    between atoms: C_10  and  N_11
REMARK    9  A    between atoms: N_11  and  C_12
REMARK   10  A    between atoms: C_27  and  C_28
REMARK                            x       y       z     vdW  Elec       q    Type
REMARK                         _______ _______ _______ _____ _____    ______ ____
ROOT
ATOM      1  C   UNL     1      -0.718   9.999  17.531  0.00  0.00    +0.000 C 
ENDROOT
BRANCH   1   2
ATOM      2  C   UNL     1      -2.049  10.112  18.283  0.00  0.00    +0.000 C 
BRANCH   2   3
ATOM      3  C   UNL     1      -2.791  11.433  18.051  0.00  0.00    +0.000 C 
BRANCH   3   7
ATOM      4  C   UNL     1      -5.740  11.019  18.665  0.00  0.00    +0.000 C 
ATOM      5  N   UNL     1      -5.410  12.122  19.568  0.00  0.00    +0.000 N 
ATOM      6  C   UNL     1      -4.155  12.629  19.890  0.00  0.00    +0.000 A 
ATOM      7  N   UNL     1      -2.999  12.222  19.245  0.00  0.00    +0.000 N 
ATOM      8  N   UNL     1      -3.991  13.533  20.856  0.00  0.00    +0.000 NA
ATOM      9  C   UNL     1      -5.063  13.994  21.596  0.00  0.00    +0.000 A 
ATOM     10  C   UNL     1      -6.294  13.602  21.271  0.00  0.00    +0.000 A 
ATOM     11  C   UNL     1      -6.519  12.618  20.202  0.00  0.00    +0.000 A 
ATOM     12  O   UNL     1      -7.678  12.241  19.997  0.00  0.00    +0.000 OA
ATOM     13  H   UNL     1      -2.162  12.609  19.689  0.00  0.00    +0.000 HD
BRANCH   9  14
ATOM     14  C   UNL     1      -4.949  14.759  22.960  0.00  0.00    +0.000 A 
ATOM     15  C   UNL     1      -5.883  15.697  23.448  0.00  0.00    +0.000 A 
ATOM     16  C   UNL     1      -5.506  16.635  24.438  0.00  0.00    +0.000 A 
ATOM     17  N   UNL     1      -4.330  16.645  25.078  0.00  0.00    +0.000 NA
ATOM     18  C   UNL     1      -3.503  15.655  24.740  0.00  0.00    +0.000 A 
ATOM     19  C   UNL     1      -3.760  14.718  23.728  0.00  0.00    +0.000 A 
ENDBRANCH   9  14
ENDBRANCH   3   7
ENDBRANCH   2   3
ENDBRANCH   1   2
BRANCH   1  20
ATOM     20  C   UNL     1       0.511   9.813  18.440  0.00  0.00    +0.000 C 
BRANCH  20  21
ATOM     21  C   UNL     1       1.684   9.085  17.770  0.00  0.00    +0.000 C 
BRANCH  21  22
ATOM     22  C   UNL     1       2.194   7.914  18.595  0.00  0.00    +0.000 C 
BRANCH  22  23
ATOM     23  N   UNL     1       2.707   6.874  17.724  0.00  0.00    +0.000 N 
ATOM     24  H   UNL     1       3.050   7.225  16.830  0.00  0.00    +0.000 HD
BRANCH  23  25
ATOM     25  C   UNL     1       3.610   5.912  18.225  0.00  0.00    +0.000 A 
ATOM     26  C   UNL     1       5.023   6.086  18.254  0.00  0.00    +0.000 A 
ATOM     27  C   UNL     1       5.776   5.078  18.832  0.00  0.00    +0.000 A 
ATOM     28  N   UNL     1       5.263   3.859  19.032  0.00  0.00    +0.000 NA
ATOM     29  C   UNL     1       3.957   3.635  18.888  0.00  0.00    +0.000 A 
ATOM     30  C   UNL     1       3.525   2.330  19.061  0.00  0.00    +0.000 A 
ATOM     31  C   UNL     1       2.181   1.991  19.133  0.00  0.00    +0.000 A 
ATOM     32  C   UNL     1       1.234   2.984  18.964  0.00  0.00    +0.000 A 
ATOM     33  C   UNL     1       1.653   4.288  18.659  0.00  0.00    +0.000 A 
ATOM     34  C   UNL     1       3.041   4.640  18.592  0.00  0.00    +0.000 A 
ATOM     35  C   UNL     1       7.254   5.177  19.113  0.00  0.00    +0.000 C 
ATOM     36  C   UNL     1       7.920   6.452  18.623  0.00  0.00    +0.000 C 
ATOM     37  C   UNL     1       7.264   6.883  17.324  0.00  0.00    +0.000 C 
ATOM     38  C   UNL     1       5.785   7.203  17.576  0.00  0.00    +0.000 C 
ENDBRANCH  23  25
ENDBRANCH  22  23
ENDBRANCH  21  22
ENDBRANCH  20  21
ENDBRANCH   1  20
TORSDOF 9
ENDMDL
MODEL 9
REMARK VINA RESULT:      -8.2      4.807      7.111
REMARK  Name = 
REMARK  10 active torsions:
REMARK  status: ('A' for Active; 'I' for Inactive)
REMARK    1  A    between atoms: C_1  and  N_2
REMARK    2  A    between atoms: N_4  and  C_5
REMARK    3  A    between atoms: C_5  and  C_6
REMARK    4  A    between atoms: C_6  and  C_7
REMARK    5  A    between atoms: C_7  and  C_8
REMARK    6  A    between atoms: C_8  and  C_9
REMARK    7  A    between atoms: C_9  and  C_10
REMARK    8  A    between atoms: C_10  and  N_11
REMARK    9  A    between atoms: N_11  and  C_12
REMARK   10  A    between atoms: C_27  and  C_28
REMARK                            x       y       z     vdW  Elec       q    Type
REMARK                         _______ _______ _______ _____ _____    ______ ____
ROOT
ATOM      1  C   UNL     1      -0.159  10.009  19.868  0.00  0.00    +0.000 C 
ENDROOT
BRANCH   1   2
ATOM      2  C   UNL     1       0.083  11.426  20.402  0.00  0.00    +0.000 C 
BRANCH   2   3
ATOM      3  C   UNL     1       0.307  12.478  19.310  0.00  0.00    +0.000 C 
BRANCH   3   7
ATOM      4  C   UNL     1      -0.069  15.481  19.015  0.00  0.00    +0.000 C 
ATOM      5  N   UNL     1       1.354  15.338  18.707  0.00  0.00    +0.000 N 
ATOM      6  C   UNL     1       2.165  14.218  18.869  0.00  0.00    +0.000 A 
ATOM      7  N   UNL     1       1.662  12.980  19.230  0.00  0.00    +0.000 N 
ATOM      8  N   UNL     1       3.486  14.279  18.698  0.00  0.00    +0.000 NA
ATOM      9  C   UNL     1       4.113  15.465  18.369  0.00  0.00    +0.000 A 
ATOM     10  C   UNL     1       3.373  16.545  18.122  0.00  0.00    +0.000 A 
ATOM     11  C   UNL     1       1.912  16.516  18.284  0.00  0.00    +0.000 A 
ATOM     12  O   UNL     1       1.289  17.569  18.108  0.00  0.00    +0.000 OA
ATOM     13  H   UNL     1       2.410  12.307  19.416  0.00  0.00    +0.000 HD
BRANCH   9  14
ATOM     14  C   UNL     1       5.653  15.732  18.498  0.00  0.00    +0.000 A 
ATOM     15  C   UNL     1       6.237  16.949  18.906  0.00  0.00    +0.000 A 
ATOM     16  C   UNL     1       7.584  17.240  18.587  0.00  0.00    +0.000 A 
ATOM     17  N   UNL     1       8.440  16.384  18.012  0.00  0.00    +0.000 NA
ATOM     18  C   UNL     1       7.939  15.171  17.776  0.00  0.00    +0.000 A 
ATOM     19  C   UNL     1       6.602  14.808  17.999  0.00  0.00    +0.000 A 
ENDBRANCH   9  14
ENDBRANCH   3   7
ENDBRANCH   2   3
ENDBRANCH   1   2
BRANCH   1  20
ATOM     20  C   UNL     1       0.087   8.892  20.900  0.00  0.00    +0.000 C 
BRANCH  20  21
ATOM     21  C   UNL     1       1.539   8.401  20.961  0.00  0.00    +0.000 C 
BRANCH  21  22
ATOM     22  C   UNL     1       1.985   7.735  19.670  0.00  0.00    +0.000 C 
BRANCH  22  23
ATOM     23  N   UNL     1       2.994   6.730  19.947  0.00  0.00    +0.000 N 
ATOM     24  H   UNL     1       2.969   6.385  20.906  0.00  0.00    +0.000 HD
BRANCH  23  25
ATOM     25  C   UNL     1       3.175   5.644  19.064  0.00  0.00    +0.000 A 
ATOM     26  C   UNL     1       4.001   5.690  17.905  0.00  0.00    +0.000 A 
ATOM     27  C   UNL     1       4.128   4.525  17.169  0.00  0.00    +0.000 A 
ATOM     28  N   UNL     1       3.262   3.516  17.315  0.00  0.00    +0.000 NA
ATOM     29  C   UNL     1       2.387   3.506  18.322  0.00  0.00    +0.000 A 
ATOM     30  C   UNL     1       1.493   2.449  18.362  0.00  0.00    +0.000 A 
ATOM     31  C   UNL     1       0.665   2.210  19.449  0.00  0.00    +0.000 A 
ATOM     32  C   UNL     1       0.688   3.097  20.510  0.00  0.00    +0.000 A 
ATOM     33  C   UNL     1       1.493   4.244  20.429  0.00  0.00    +0.000 A 
ATOM     34  C   UNL     1       2.354   4.486  19.309  0.00  0.00    +0.000 A 
ATOM     35  C   UNL     1       5.097   4.341  16.029  0.00  0.00    +0.000 C 
ATOM     36  C   UNL     1       5.892   5.581  15.653  0.00  0.00    +0.000 C 
ATOM     37  C   UNL     1       5.016   6.805  15.844  0.00  0.00    +0.000 C 
ATOM     38  C   UNL     1       4.631   6.936  17.323  0.00  0.00    +0.000 C 
ENDBRANCH  23  25
ENDBRANCH  22  23
ENDBRANCH  21  22
ENDBRANCH  20  21
ENDBRANCH   1  20
TORSDOF 9
ENDMDL
