MODEL 1
REMARK VINA RESULT:      -7.7      0.000      0.000
REMARK  Name = 
REMARK  6 active torsions:
REMARK  status: ('A' for Active; 'I' for Inactive)
REMARK    1  A    between atoms: C_1  and  C_2
REMARK    2  A    between atoms: C_6  and  C_7
REMARK    3  A    between atoms: C_15  and  C_16
REMARK    4  A    between atoms: C_16  and  O_17
REMARK    5  A    between atoms: O_17  and  C_18
REMARK    6  A    between atoms: C_18  and  C_19
REMARK                            x       y       z     vdW  Elec       q    Type
REMARK                         _______ _______ _______ _____ _____    ______ ____
ROOT
ATOM      1  C   UNL     1       5.316   4.463  17.084  0.00  0.00    +0.000 C 
ATOM      2  O   UNL     1       5.564   3.815  16.071  0.00  0.00    +0.000 OA
ATOM      3  N   UNL     1       4.007   4.573  17.547  0.00  0.00    +0.000 N 
ATOM      4  C   UNL     1       2.940   3.736  17.156  0.00  0.00    +0.000 C 
ATOM      5  C   UNL     1       1.916   4.049  18.256  0.00  0.00    +0.000 C 
ATOM      6  C   UNL     1       1.272   2.741  18.697  0.00  0.00    +0.000 C 
ATOM      7  C   UNL     1       0.762   3.068  20.059  0.00  0.00    +0.000 C 
ATOM      8  C   UNL     1       1.181   4.516  20.249  0.00  0.00    +0.000 C 
ATOM      9  C   UNL     1       2.652   4.770  19.582  0.00  0.00    +0.000 C 
ATOM     10  C   UNL     1       3.473   5.553  18.447  0.00  0.00    +0.000 C 
ENDROOT
BRANCH   1  16
ATOM     11  C   UNL     1       6.781   7.436  16.761  0.00  0.00    +0.000 C 
ATOM     12  C   UNL     1       6.990   6.350  17.739  0.00  0.00    +0.000 A 
ATOM     13  N   UNL     1       7.909   6.505  18.758  0.00  0.00    +0.000 NA
ATOM     14  C   UNL     1       7.823   5.380  19.425  0.00  0.00    +0.000 A 
ATOM     15  O   UNL     1       6.927   4.484  18.934  0.00  0.00    +0.000 OA
ATOM     16  C   UNL     1       6.352   5.127  17.857  0.00  0.00    +0.000 A 
ENDBRANCH   1  16
BRANCH   9  17
ATOM     17  C   UNL     1       2.708   6.131  20.492  0.00  0.00    +0.000 C 
BRANCH  17  18
ATOM     18  O   UNL     1       1.502   6.894  20.364  0.00  0.00    +0.000 OA
BRANCH  18  19
ATOM     19  C   UNL     1       1.605   8.266  20.061  0.00  0.00    +0.000 C 
BRANCH  19  20
ATOM     20  C   UNL     1       0.582   9.030  20.884  0.00  0.00    +0.000 C 
ATOM     21  C   UNL     1       0.523  10.496  20.475  0.00  0.00    +0.000 C 
ATOM     22  C   UNL     1      -0.478  11.219  21.358  0.00  0.00    +0.000 C 
ATOM     23  O   UNL     1      -0.128  11.093  22.738  0.00  0.00    +0.000 OA
ATOM     24  C   UNL     1      -0.140   9.736  23.176  0.00  0.00    +0.000 C 
ATOM     25  C   UNL     1       0.866   8.917  22.391  0.00  0.00    +0.000 C 
ENDBRANCH  19  20
ENDBRANCH  18  19
ENDBRANCH  17  18
ENDBRANCH   9  17
TORSDOF 5
ENDMDL
MODEL 2
REMARK VINA RESULT:      -7.6      2.296      4.588
REMARK  Name = 
REMARK  6 active torsions:
REMARK  status: ('A' for Active; 'I' for Inactive)
REMARK    1  A    between atoms: C_1  and  C_2
REMARK    2  A    between atoms: C_6  and  C_7
REMARK    3  A    between atoms: C_15  and  C_16
REMARK    4  A    between atoms: C_16  and  O_17
REMARK    5  A    between atoms: O_17  and  C_18
REMARK    6  A    between atoms: C_18  and  C_19
REMARK                            x       y       z     vdW  Elec       q    Type
REMARK                         _______ _______ _______ _____ _____    ______ ____
ROOT
ATOM      1  C   UNL     1       4.322   2.960  19.941  0.00  0.00    +0.000 C 
ATOM      2  O   UNL     1       5.101   2.015  20.030  0.00  0.00    +0.000 OA
ATOM      3  N   UNL     1       4.724   4.150  19.336  0.00  0.00    +0.000 N 
ATOM      4  C   UNL     1       5.853   4.288  18.502  0.00  0.00    +0.000 C 
ATOM      5  C   UNL     1       5.548   5.637  17.834  0.00  0.00    +0.000 C 
ATOM      6  C   UNL     1       5.893   5.527  16.355  0.00  0.00    +0.000 C 
ATOM      7  C   UNL     1       5.076   6.616  15.745  0.00  0.00    +0.000 C 
ATOM      8  C   UNL     1       4.350   7.214  16.938  0.00  0.00    +0.000 C 
ATOM      9  C   UNL     1       3.925   6.037  17.989  0.00  0.00    +0.000 C 
ATOM     10  C   UNL     1       4.127   5.447  19.468  0.00  0.00    +0.000 C 
ENDROOT
BRANCH   1  16
ATOM     11  C   UNL     1       1.377   3.200  18.405  0.00  0.00    +0.000 C 
ATOM     12  C   UNL     1       1.719   3.006  19.828  0.00  0.00    +0.000 A 
ATOM     13  N   UNL     1       0.716   2.855  20.766  0.00  0.00    +0.000 NA
ATOM     14  C   UNL     1       1.368   2.695  21.892  0.00  0.00    +0.000 A 
ATOM     15  O   UNL     1       2.722   2.732  21.786  0.00  0.00    +0.000 OA
ATOM     16  C   UNL     1       2.958   2.895  20.436  0.00  0.00    +0.000 A 
ENDBRANCH   1  16
BRANCH   9  17
ATOM     17  C   UNL     1       2.881   7.130  18.622  0.00  0.00    +0.000 C 
BRANCH  17  18
ATOM     18  O   UNL     1       2.613   8.190  17.697  0.00  0.00    +0.000 OA
BRANCH  18  19
ATOM     19  C   UNL     1       1.400   8.897  17.821  0.00  0.00    +0.000 C 
BRANCH  19  20
ATOM     20  C   UNL     1       1.510   9.861  18.989  0.00  0.00    +0.000 C 
ATOM     21  C   UNL     1       0.358   9.680  19.969  0.00  0.00    +0.000 C 
ATOM     22  C   UNL     1       0.491  10.698  21.087  0.00  0.00    +0.000 C 
ATOM     23  O   UNL     1       0.507  12.030  20.568  0.00  0.00    +0.000 OA
ATOM     24  C   UNL     1       1.621  12.258  19.707  0.00  0.00    +0.000 C 
ATOM     25  C   UNL     1       1.569  11.324  18.515  0.00  0.00    +0.000 C 
ENDBRANCH  19  20
ENDBRANCH  18  19
ENDBRANCH  17  18
ENDBRANCH   9  17
TORSDOF 5
ENDMDL
MODEL 3
REMARK VINA RESULT:      -7.6      0.938      1.320
REMARK  Name = 
REMARK  6 active torsions:
REMARK  status: ('A' for Active; 'I' for Inactive)
REMARK    1  A    between atoms: C_1  and  C_2
REMARK    2  A    between atoms: C_6  and  C_7
REMARK    3  A    between atoms: C_15  and  C_16
REMARK    4  A    between atoms: C_16  and  O_17
REMARK    5  A    between atoms: O_17  and  C_18
REMARK    6  A    between atoms: C_18  and  C_19
REMARK                            x       y       z     vdW  Elec       q    Type
REMARK                         _______ _______ _______ _____ _____    ______ ____
ROOT
ATOM      1  C   UNL     1       4.947   4.837  16.626  0.00  0.00    +0.000 C 
ATOM      2  O   UNL     1       5.113   4.050  15.698  0.00  0.00    +0.000 OA
ATOM      3  N   UNL     1       3.725   4.892  17.293  0.00  0.00    +0.000 N 
ATOM      4  C   UNL     1       2.730   3.893  17.235  0.00  0.00    +0.000 C 
ATOM      5  C   UNL     1       1.862   4.288  18.439  0.00  0.00    +0.000 C 
ATOM      6  C   UNL     1       1.476   3.019  19.187  0.00  0.00    +0.000 C 
ATOM      7  C   UNL     1       1.150   3.528  20.551  0.00  0.00    +0.000 C 
ATOM      8  C   UNL     1       1.399   5.022  20.433  0.00  0.00    +0.000 C 
ATOM      9  C   UNL     1       2.698   5.304  19.482  0.00  0.00    +0.000 C 
ATOM     10  C   UNL     1       3.217   5.955  18.109  0.00  0.00    +0.000 C 
ENDROOT
BRANCH   1  16
ATOM     11  C   UNL     1       6.594   5.045  19.512  0.00  0.00    +0.000 C 
ATOM     12  C   UNL     1       6.686   5.853  18.279  0.00  0.00    +0.000 A 
ATOM     13  N   UNL     1       7.606   6.880  18.192  0.00  0.00    +0.000 NA
ATOM     14  C   UNL     1       7.421   7.357  16.985  0.00  0.00    +0.000 A 
ATOM     15  O   UNL     1       6.452   6.739  16.262  0.00  0.00    +0.000 OA
ATOM     16  C   UNL     1       5.995   5.731  17.086  0.00  0.00    +0.000 A 
ENDBRANCH   1  16
BRANCH   9  17
ATOM     17  C   UNL     1       2.718   6.804  20.142  0.00  0.00    +0.000 C 
BRANCH  17  18
ATOM     18  O   UNL     1       1.412   7.390  20.143  0.00  0.00    +0.000 OA
BRANCH  18  19
ATOM     19  C   UNL     1       1.294   8.767  19.867  0.00  0.00    +0.000 C 
BRANCH  19  20
ATOM     20  C   UNL     1       0.307   9.382  20.844  0.00  0.00    +0.000 C 
ATOM     21  C   UNL     1       0.227  10.894  20.674  0.00  0.00    +0.000 C 
ATOM     22  C   UNL     1      -0.734  11.460  21.704  0.00  0.00    +0.000 C 
ATOM     23  O   UNL     1      -0.322  11.122  23.030  0.00  0.00    +0.000 OA
ATOM     24  C   UNL     1      -0.312   9.712  23.248  0.00  0.00    +0.000 C 
ATOM     25  C   UNL     1       0.659   9.036  22.301  0.00  0.00    +0.000 C 
ENDBRANCH  19  20
ENDBRANCH  18  19
ENDBRANCH  17  18
ENDBRANCH   9  17
TORSDOF 5
ENDMDL
MODEL 4
REMARK VINA RESULT:      -7.6      2.413      4.572
REMARK  Name = 
REMARK  6 active torsions:
REMARK  status: ('A' for Active; 'I' for Inactive)
REMARK    1  A    between atoms: C_1  and  C_2
REMARK    2  A    between atoms: C_6  and  C_7
REMARK    3  A    between atoms: C_15  and  C_16
REMARK    4  A    between atoms: C_16  and  O_17
REMARK    5  A    between atoms: O_17  and  C_18
REMARK    6  A    between atoms: C_18  and  C_19
REMARK                            x       y       z     vdW  Elec       q    Type
REMARK                         _______ _______ _______ _____ _____    ______ ____
ROOT
ATOM      1  C   UNL     1       4.335   2.953  19.961  0.00  0.00    +0.000 C 
ATOM      2  O   UNL     1       5.122   2.012  20.011  0.00  0.00    +0.000 OA
ATOM      3  N   UNL     1       4.714   4.158  19.374  0.00  0.00    +0.000 N 
ATOM      4  C   UNL     1       5.823   4.324  18.518  0.00  0.00    +0.000 C 
ATOM      5  C   UNL     1       5.493   5.685  17.887  0.00  0.00    +0.000 C 
ATOM      6  C   UNL     1       5.804   5.610  16.398  0.00  0.00    +0.000 C 
ATOM      7  C   UNL     1       4.966   6.706  15.832  0.00  0.00    +0.000 C 
ATOM      8  C   UNL     1       4.263   7.272  17.054  0.00  0.00    +0.000 C 
ATOM      9  C   UNL     1       3.871   6.068  18.088  0.00  0.00    +0.000 C 
ATOM     10  C   UNL     1       4.111   5.447  19.548  0.00  0.00    +0.000 C 
ENDROOT
BRANCH   1  16
ATOM     11  C   UNL     1       1.354   3.135  18.488  0.00  0.00    +0.000 C 
ATOM     12  C   UNL     1       1.730   2.953  19.904  0.00  0.00    +0.000 A 
ATOM     13  N   UNL     1       0.750   2.789  20.865  0.00  0.00    +0.000 NA
ATOM     14  C   UNL     1       1.429   2.645  21.977  0.00  0.00    +0.000 A 
ATOM     15  O   UNL     1       2.779   2.705  21.841  0.00  0.00    +0.000 OA
ATOM     16  C   UNL     1       2.983   2.866  20.486  0.00  0.00    +0.000 A 
ENDBRANCH   1  16
BRANCH   9  17
ATOM     17  C   UNL     1       2.834   7.139  18.769  0.00  0.00    +0.000 C 
BRANCH  17  18
ATOM     18  O   UNL     1       2.167   7.924  17.774  0.00  0.00    +0.000 OA
BRANCH  18  19
ATOM     19  C   UNL     1       2.045   9.312  17.985  0.00  0.00    +0.000 C 
BRANCH  19  20
ATOM     20  C   UNL     1       0.750   9.583  18.731  0.00  0.00    +0.000 C 
ATOM     21  C   UNL     1      -0.389   9.897  17.769  0.00  0.00    +0.000 C 
ATOM     22  C   UNL     1      -1.643  10.207  18.567  0.00  0.00    +0.000 C 
ATOM     23  O   UNL     1      -1.423  11.299  19.463  0.00  0.00    +0.000 OA
ATOM     24  C   UNL     1      -0.415  11.008  20.430  0.00  0.00    +0.000 C 
ATOM     25  C   UNL     1       0.908  10.728  19.746  0.00  0.00    +0.000 C 
ENDBRANCH  19  20
ENDBRANCH  18  19
ENDBRANCH  17  18
ENDBRANCH   9  17
TORSDOF 5
ENDMDL
MODEL 5
REMARK VINA RESULT:      -7.5      2.071      4.412
REMARK  Name = 
REMARK  6 active torsions:
REMARK  status: ('A' for Active; 'I' for Inactive)
REMARK    1  A    between atoms: C_1  and  C_2
REMARK    2  A    between atoms: C_6  and  C_7
REMARK    3  A    between atoms: C_15  and  C_16
REMARK    4  A    between atoms: C_16  and  O_17
REMARK    5  A    between atoms: O_17  and  C_18
REMARK    6  A    between atoms: C_18  and  C_19
REMARK                            x       y       z     vdW  Elec       q    Type
REMARK                         _______ _______ _______ _____ _____    ______ ____
ROOT
ATOM      1  C   UNL     1       4.329   2.861  19.929  0.00  0.00    +0.000 C 
ATOM      2  O   UNL     1       5.091   1.901  20.002  0.00  0.00    +0.000 OA
ATOM      3  N   UNL     1       4.742   4.043  19.319  0.00  0.00    +0.000 N 
ATOM      4  C   UNL     1       5.857   4.161  18.463  0.00  0.00    +0.000 C 
ATOM      5  C   UNL     1       5.566   5.516  17.802  0.00  0.00    +0.000 C 
ATOM      6  C   UNL     1       5.880   5.402  16.316  0.00  0.00    +0.000 C 
ATOM      7  C   UNL     1       5.073   6.508  15.724  0.00  0.00    +0.000 C 
ATOM      8  C   UNL     1       4.381   7.118  16.931  0.00  0.00    +0.000 C 
ATOM      9  C   UNL     1       3.954   5.947  17.989  0.00  0.00    +0.000 C 
ATOM     10  C   UNL     1       4.173   5.351  19.463  0.00  0.00    +0.000 C 
ENDROOT
BRANCH   1  16
ATOM     11  C   UNL     1       1.364   3.259  18.467  0.00  0.00    +0.000 C 
ATOM     12  C   UNL     1       1.727   2.997  19.874  0.00  0.00    +0.000 A 
ATOM     13  N   UNL     1       0.738   2.843  20.827  0.00  0.00    +0.000 NA
ATOM     14  C   UNL     1       1.407   2.617  21.932  0.00  0.00    +0.000 A 
ATOM     15  O   UNL     1       2.759   2.613  21.798  0.00  0.00    +0.000 OA
ATOM     16  C   UNL     1       2.973   2.821  20.451  0.00  0.00    +0.000 A 
ENDBRANCH   1  16
BRANCH   9  17
ATOM     17  C   UNL     1       2.944   7.059  18.643  0.00  0.00    +0.000 C 
BRANCH  17  18
ATOM     18  O   UNL     1       2.613   6.730  19.997  0.00  0.00    +0.000 OA
BRANCH  18  19
ATOM     19  C   UNL     1       1.304   6.989  20.449  0.00  0.00    +0.000 C 
BRANCH  19  20
ATOM     20  C   UNL     1       1.218   8.435  20.906  0.00  0.00    +0.000 C 
ATOM     21  C   UNL     1       0.162   8.613  21.990  0.00  0.00    +0.000 C 
ATOM     22  C   UNL     1       0.086  10.079  22.373  0.00  0.00    +0.000 C 
ATOM     23  O   UNL     1      -0.216  10.892  21.236  0.00  0.00    +0.000 OA
ATOM     24  C   UNL     1       0.795  10.810  20.233  0.00  0.00    +0.000 C 
ATOM     25  C   UNL     1       0.929   9.385  19.732  0.00  0.00    +0.000 C 
ENDBRANCH  19  20
ENDBRANCH  18  19
ENDBRANCH  17  18
ENDBRANCH   9  17
TORSDOF 5
ENDMDL
MODEL 6
REMARK VINA RESULT:      -7.5      1.438      2.240
REMARK  Name = 
REMARK  6 active torsions:
REMARK  status: ('A' for Active; 'I' for Inactive)
REMARK    1  A    between atoms: C_1  and  C_2
REMARK    2  A    between atoms: C_6  and  C_7
REMARK    3  A    between atoms: C_15  and  C_16
REMARK    4  A    between atoms: C_16  and  O_17
REMARK    5  A    between atoms: O_17  and  C_18
REMARK    6  A    between atoms: C_18  and  C_19
REMARK                            x       y       z     vdW  Elec       q    Type
REMARK                         _______ _______ _______ _____ _____    ______ ____
ROOT
ATOM      1  C   UNL     1       6.872   5.072  16.657  0.00  0.00    +0.000 C 
ATOM      2  O   UNL     1       7.614   4.293  16.065  0.00  0.00    +0.000 OA
ATOM      3  N   UNL     1       5.498   4.847  16.694  0.00  0.00    +0.000 N 
ATOM      4  C   UNL     1       4.875   3.617  16.393  0.00  0.00    +0.000 C 
ATOM      5  C   UNL     1       3.481   3.852  16.992  0.00  0.00    +0.000 C 
ATOM      6  C   UNL     1       3.052   2.584  17.718  0.00  0.00    +0.000 C 
ATOM      7  C   UNL     1       2.023   3.085  18.675  0.00  0.00    +0.000 C 
ATOM      8  C   UNL     1       1.990   4.578  18.399  0.00  0.00    +0.000 C 
ATOM      9  C   UNL     1       3.497   5.127  18.083  0.00  0.00    +0.000 C 
ATOM     10  C   UNL     1       4.460   5.792  16.985  0.00  0.00    +0.000 C 
ENDROOT
BRANCH   1  16
ATOM     11  C   UNL     1       8.027   5.507  19.750  0.00  0.00    +0.000 C 
ATOM     12  C   UNL     1       7.842   6.460  18.638  0.00  0.00    +0.000 A 
ATOM     13  N   UNL     1       8.208   7.783  18.793  0.00  0.00    +0.000 NA
ATOM     14  C   UNL     1       7.922   8.321  17.632  0.00  0.00    +0.000 A 
ATOM     15  O   UNL     1       7.390   7.469  16.717  0.00  0.00    +0.000 OA
ATOM     16  C   UNL     1       7.371   6.245  17.354  0.00  0.00    +0.000 A 
ENDBRANCH   1  16
BRANCH   9  17
ATOM     17  C   UNL     1       2.897   6.622  18.388  0.00  0.00    +0.000 C 
BRANCH  17  18
ATOM     18  O   UNL     1       2.836   6.881  19.795  0.00  0.00    +0.000 OA
BRANCH  18  19
ATOM     19  C   UNL     1       1.573   7.086  20.386  0.00  0.00    +0.000 C 
BRANCH  19  20
ATOM     20  C   UNL     1       1.393   8.568  20.664  0.00  0.00    +0.000 C 
ATOM     21  C   UNL     1       0.338   8.808  21.736  0.00  0.00    +0.000 C 
ATOM     22  C   UNL     1       0.166  10.302  21.939  0.00  0.00    +0.000 C 
ATOM     23  O   UNL     1      -0.201  10.946  20.717  0.00  0.00    +0.000 OA
ATOM     24  C   UNL     1       0.804  10.809  19.713  0.00  0.00    +0.000 C 
ATOM     25  C   UNL     1       1.029   9.345  19.387  0.00  0.00    +0.000 C 
ENDBRANCH  19  20
ENDBRANCH  18  19
ENDBRANCH  17  18
ENDBRANCH   9  17
TORSDOF 5
ENDMDL
MODEL 7
REMARK VINA RESULT:      -7.5      2.428      4.600
REMARK  Name = 
REMARK  6 active torsions:
REMARK  status: ('A' for Active; 'I' for Inactive)
REMARK    1  A    between atoms: C_1  and  C_2
REMARK    2  A    between atoms: C_6  and  C_7
REMARK    3  A    between atoms: C_15  and  C_16
REMARK    4  A    between atoms: C_16  and  O_17
REMARK    5  A    between atoms: O_17  and  C_18
REMARK    6  A    between atoms: C_18  and  C_19
REMARK                            x       y       z     vdW  Elec       q    Type
REMARK                         _______ _______ _______ _____ _____    ______ ____
ROOT
ATOM      1  C   UNL     1       4.349   2.889  19.930  0.00  0.00    +0.000 C 
ATOM      2  O   UNL     1       5.119   1.933  19.965  0.00  0.00    +0.000 OA
ATOM      3  N   UNL     1       4.744   4.091  19.347  0.00  0.00    +0.000 N 
ATOM      4  C   UNL     1       5.847   4.242  18.480  0.00  0.00    +0.000 C 
ATOM      5  C   UNL     1       5.535   5.612  17.861  0.00  0.00    +0.000 C 
ATOM      6  C   UNL     1       5.830   5.542  16.369  0.00  0.00    +0.000 C 
ATOM      7  C   UNL     1       5.006   6.657  15.818  0.00  0.00    +0.000 C 
ATOM      8  C   UNL     1       4.326   7.228  17.051  0.00  0.00    +0.000 C 
ATOM      9  C   UNL     1       3.923   6.025  18.082  0.00  0.00    +0.000 C 
ATOM     10  C   UNL     1       4.167   5.390  19.535  0.00  0.00    +0.000 C 
ENDROOT
BRANCH   1  16
ATOM     11  C   UNL     1       1.357   3.143  18.491  0.00  0.00    +0.000 C 
ATOM     12  C   UNL     1       1.743   2.940  19.901  0.00  0.00    +0.000 A 
ATOM     13  N   UNL     1       0.771   2.787  20.870  0.00  0.00    +0.000 NA
ATOM     14  C   UNL     1       1.459   2.619  21.974  0.00  0.00    +0.000 A 
ATOM     15  O   UNL     1       2.808   2.654  21.824  0.00  0.00    +0.000 OA
ATOM     16  C   UNL     1       3.001   2.823  20.468  0.00  0.00    +0.000 A 
ENDBRANCH   1  16
BRANCH   9  17
ATOM     17  C   UNL     1       2.914   7.110  18.780  0.00  0.00    +0.000 C 
BRANCH  17  18
ATOM     18  O   UNL     1       2.550   8.149  17.864  0.00  0.00    +0.000 OA
BRANCH  18  19
ATOM     19  C   UNL     1       1.185   8.464  17.714  0.00  0.00    +0.000 C 
BRANCH  19  20
ATOM     20  C   UNL     1       0.948   9.878  18.215  0.00  0.00    +0.000 C 
ATOM     21  C   UNL     1       2.203  10.731  18.083  0.00  0.00    +0.000 C 
ATOM     22  C   UNL     1       1.925  12.115  18.641  0.00  0.00    +0.000 C 
ATOM     23  O   UNL     1       1.504  12.043  20.005  0.00  0.00    +0.000 OA
ATOM     24  C   UNL     1       0.285  11.317  20.155  0.00  0.00    +0.000 C 
ATOM     25  C   UNL     1       0.457   9.890  19.673  0.00  0.00    +0.000 C 
ENDBRANCH  19  20
ENDBRANCH  18  19
ENDBRANCH  17  18
ENDBRANCH   9  17
TORSDOF 5
ENDMDL
MODEL 8
REMARK VINA RESULT:      -7.5      1.181      1.616
REMARK  Name = 
REMARK  6 active torsions:
REMARK  status: ('A' for Active; 'I' for Inactive)
REMARK    1  A    between atoms: C_1  and  C_2
REMARK    2  A    between atoms: C_6  and  C_7
REMARK    3  A    between atoms: C_15  and  C_16
REMARK    4  A    between atoms: C_16  and  O_17
REMARK    5  A    between atoms: O_17  and  C_18
REMARK    6  A    between atoms: C_18  and  C_19
REMARK                            x       y       z     vdW  Elec       q    Type
REMARK                         _______ _______ _______ _____ _____    ______ ____
ROOT
ATOM      1  C   UNL     1       5.214   4.543  17.098  0.00  0.00    +0.000 C 
ATOM      2  O   UNL     1       5.484   4.052  16.005  0.00  0.00    +0.000 OA
ATOM      3  N   UNL     1       3.905   4.527  17.574  0.00  0.00    +0.000 N 
ATOM      4  C   UNL     1       2.876   3.702  17.074  0.00  0.00    +0.000 C 
ATOM      5  C   UNL     1       1.847   3.813  18.208  0.00  0.00    +0.000 C 
ATOM      6  C   UNL     1       1.269   2.428  18.467  0.00  0.00    +0.000 C 
ATOM      7  C   UNL     1       0.754   2.543  19.863  0.00  0.00    +0.000 C 
ATOM      8  C   UNL     1       1.107   3.970  20.247  0.00  0.00    +0.000 C 
ATOM      9  C   UNL     1       2.558   4.381  19.618  0.00  0.00    +0.000 C 
ATOM     10  C   UNL     1       3.333   5.350  18.600  0.00  0.00    +0.000 C 
ENDROOT
BRANCH   1  16
ATOM     11  C   UNL     1       6.937   7.383  16.856  0.00  0.00    +0.000 C 
ATOM     12  C   UNL     1       6.966   6.311  17.871  0.00  0.00    +0.000 A 
ATOM     13  N   UNL     1       7.797   6.421  18.970  0.00  0.00    +0.000 NA
ATOM     14  C   UNL     1       7.558   5.324  19.647  0.00  0.00    +0.000 A 
ATOM     15  O   UNL     1       6.643   4.489  19.090  0.00  0.00    +0.000 OA
ATOM     16  C   UNL     1       6.224   5.145  17.952  0.00  0.00    +0.000 A 
ENDBRANCH   1  16
BRANCH   9  17
ATOM     17  C   UNL     1       2.558   5.608  20.705  0.00  0.00    +0.000 C 
BRANCH  17  18
ATOM     18  O   UNL     1       2.094   6.827  20.115  0.00  0.00    +0.000 OA
BRANCH  18  19
ATOM     19  C   UNL     1       1.209   7.637  20.854  0.00  0.00    +0.000 C 
BRANCH  19  20
ATOM     20  C   UNL     1       1.266   9.053  20.310  0.00  0.00    +0.000 C 
ATOM     21  C   UNL     1      -0.017   9.817  20.614  0.00  0.00    +0.000 C 
ATOM     22  C   UNL     1       0.075  11.205  20.007  0.00  0.00    +0.000 C 
ATOM     23  O   UNL     1       0.298  11.134  18.597  0.00  0.00    +0.000 OA
ATOM     24  C   UNL     1       1.533  10.494  18.278  0.00  0.00    +0.000 C 
ATOM     25  C   UNL     1       1.539   9.069  18.796  0.00  0.00    +0.000 C 
ENDBRANCH  19  20
ENDBRANCH  18  19
ENDBRANCH  17  18
ENDBRANCH   9  17
TORSDOF 5
ENDMDL
MODEL 9
REMARK VINA RESULT:      -7.4      1.612      2.085
REMARK  Name = 
REMARK  6 active torsions:
REMARK  status: ('A' for Active; 'I' for Inactive)
REMARK    1  A    between atoms: C_1  and  C_2
REMARK    2  A    between atoms: C_6  and  C_7
REMARK    3  A    between atoms: C_15  and  C_16
REMARK    4  A    between atoms: C_16  and  O_17
REMARK    5  A    between atoms: O_17  and  C_18
REMARK    6  A    between atoms: C_18  and  C_19
REMARK                            x       y       z     vdW  Elec       q    Type
REMARK                         _______ _______ _______ _____ _____    ______ ____
ROOT
ATOM      1  C   UNL     1       6.341   5.125  16.665  0.00  0.00    +0.000 C 
ATOM      2  O   UNL     1       6.894   4.331  15.910  0.00  0.00    +0.000 OA
ATOM      3  N   UNL     1       4.984   4.997  16.952  0.00  0.00    +0.000 N 
ATOM      4  C   UNL     1       4.218   3.834  16.721  0.00  0.00    +0.000 C 
ATOM      5  C   UNL     1       2.983   4.132  17.583  0.00  0.00    +0.000 C 
ATOM      6  C   UNL     1       2.595   2.858  18.321  0.00  0.00    +0.000 C 
ATOM      7  C   UNL     1       1.806   3.375  19.477  0.00  0.00    +0.000 C 
ATOM      8  C   UNL     1       1.843   4.880  19.277  0.00  0.00    +0.000 C 
ATOM      9  C   UNL     1       3.304   5.338  18.706  0.00  0.00    +0.000 C 
ATOM     10  C   UNL     1       4.098   5.995  17.475  0.00  0.00    +0.000 C 
ENDROOT
BRANCH   1  16
ATOM     11  C   UNL     1       7.927   5.347  19.585  0.00  0.00    +0.000 C 
ATOM     12  C   UNL     1       7.707   6.345  18.519  0.00  0.00    +0.000 A 
ATOM     13  N   UNL     1       8.236   7.615  18.641  0.00  0.00    +0.000 NA
ATOM     14  C   UNL     1       7.865   8.212  17.535  0.00  0.00    +0.000 A 
ATOM     15  O   UNL     1       7.126   7.449  16.687  0.00  0.00    +0.000 OA
ATOM     16  C   UNL     1       7.054   6.217  17.305  0.00  0.00    +0.000 A 
ENDBRANCH   1  16
BRANCH   9  17
ATOM     17  C   UNL     1       2.895   6.851  19.184  0.00  0.00    +0.000 C 
BRANCH  17  18
ATOM     18  O   UNL     1       2.051   7.492  18.220  0.00  0.00    +0.000 OA
BRANCH  18  19
ATOM     19  C   UNL     1       2.273   8.854  17.934  0.00  0.00    +0.000 C 
BRANCH  19  20
ATOM     20  C   UNL     1       1.144   9.673  18.535  0.00  0.00    +0.000 C 
ATOM     21  C   UNL     1       1.458  11.163  18.498  0.00  0.00    +0.000 C 
ATOM     22  C   UNL     1       0.322  11.927  19.152  0.00  0.00    +0.000 C 
ATOM     23  O   UNL     1       0.115  11.487  20.497  0.00  0.00    +0.000 OA
ATOM     24  C   UNL     1      -0.260  10.112  20.562  0.00  0.00    +0.000 C 
ATOM     25  C   UNL     1       0.832   9.238  19.977  0.00  0.00    +0.000 C 
ENDBRANCH  19  20
ENDBRANCH  18  19
ENDBRANCH  17  18
ENDBRANCH   9  17
TORSDOF 5
ENDMDL
