MODEL 1
REMARK VINA RESULT:      -8.8      0.000      0.000
REMARK  Name = 
REMARK  7 active torsions:
REMARK  status: ('A' for Active; 'I' for Inactive)
REMARK    1  A    between atoms: C_1  and  O_2
REMARK    2  A    between atoms: O_2  and  C_3
REMARK    3  A    between atoms: C_6  and  C_7
REMARK    4  A    between atoms: C_7  and  N_8
REMARK    5  A    between atoms: N_8  and  C_9
REMARK    6  A    between atoms: C_12  and  N_13
REMARK    7  A    between atoms: C_19  and  C_20
REMARK                            x       y       z     vdW  Elec       q    Type
REMARK                         _______ _______ _______ _____ _____    ______ ____
ROOT
ATOM      1  C   UNL     1       2.211   7.995  17.779  0.00  0.00    +0.000 A 
ATOM      2  C   UNL     1       3.494   8.255  17.324  0.00  0.00    +0.000 A 
ATOM      3  C   UNL     1       4.427   7.214  17.224  0.00  0.00    +0.000 A 
ATOM      4  C   UNL     1       4.128   5.863  17.502  0.00  0.00    +0.000 A 
ATOM      5  C   UNL     1       2.770   5.599  17.782  0.00  0.00    +0.000 A 
ATOM      6  C   UNL     1       1.861   6.666  17.990  0.00  0.00    +0.000 A 
ENDROOT
BRANCH   5   7
ATOM      7  C   UNL     1       2.159   4.253  17.986  0.00  0.00    +0.000 C 
ATOM      8  O   UNL     1       1.445   3.781  17.107  0.00  0.00    +0.000 OA
ATOM      9  N   UNL     1       2.492   3.531  19.146  0.00  0.00    +0.000 N 
ATOM     10  C   UNL     1       2.020   2.155  19.283  0.00  0.00    +0.000 C 
ATOM     11  C   UNL     1       1.029   2.045  20.439  0.00  0.00    +0.000 C 
ATOM     12  C   UNL     1       1.638   2.587  21.734  0.00  0.00    +0.000 C 
ATOM     13  C   UNL     1       2.161   4.008  21.538  0.00  0.00    +0.000 C 
ATOM     14  C   UNL     1       3.120   4.082  20.355  0.00  0.00    +0.000 C 
ENDBRANCH   5   7
BRANCH   4  15
ATOM     15  N   UNL     1       5.189   4.975  17.471  0.00  0.00    +0.000 N 
ATOM     16  C   UNL     1       6.206   4.783  18.518  0.00  0.00    +0.000 C 
ATOM     17  C   UNL     1       7.625   5.089  17.999  0.00  0.00    +0.000 C 
ATOM     18  O   UNL     1       7.920   4.373  16.785  0.00  0.00    +0.000 OA
ATOM     19  C   UNL     1       6.978   4.753  15.770  0.00  0.00    +0.000 C 
ATOM     20  C   UNL     1       5.553   4.351  16.176  0.00  0.00    +0.000 C 
ENDBRANCH   4  15
BRANCH   1  21
ATOM     21  N   UNL     1       1.321   9.064  17.897  0.00  0.00    +0.000 N 
ATOM     22  H   UNL     1       0.425   8.748  18.266  0.00  0.00    +0.000 HD
BRANCH  21  23
ATOM     23  C   UNL     1       1.787  10.263  18.580  0.00  0.00    +0.000 C 
BRANCH  23  27
ATOM     24  C   UNL     1      -0.482  10.932  22.205  0.00  0.00    +0.000 A 
ATOM     25  C   UNL     1       0.016  12.011  21.469  0.00  0.00    +0.000 A 
ATOM     26  C   UNL     1       0.727  11.795  20.286  0.00  0.00    +0.000 A 
ATOM     27  C   UNL     1       0.949  10.494  19.811  0.00  0.00    +0.000 A 
ATOM     28  C   UNL     1       0.433   9.418  20.538  0.00  0.00    +0.000 A 
ATOM     29  C   UNL     1      -0.274   9.641  21.719  0.00  0.00    +0.000 A 
ATOM     30  F   UNL     1      -0.735   8.561  22.367  0.00  0.00    +0.000 F 
BRANCH  24  32
ATOM     31  C   UNL     1      -2.381  11.952  23.202  0.00  0.00    +0.000 C 
ATOM     32  O   UNL     1      -1.134  11.288  23.356  0.00  0.00    +0.000 OA
ENDBRANCH  24  32
ENDBRANCH  23  27
ENDBRANCH  21  23
ENDBRANCH   1  21
TORSDOF 6
ENDMDL
MODEL 2
REMARK VINA RESULT:      -8.7      2.299      2.526
REMARK  Name = 
REMARK  7 active torsions:
REMARK  status: ('A' for Active; 'I' for Inactive)
REMARK    1  A    between atoms: C_1  and  O_2
REMARK    2  A    between atoms: O_2  and  C_3
REMARK    3  A    between atoms: C_6  and  C_7
REMARK    4  A    between atoms: C_7  and  N_8
REMARK    5  A    between atoms: N_8  and  C_9
REMARK    6  A    between atoms: C_12  and  N_13
REMARK    7  A    between atoms: C_19  and  C_20
REMARK                            x       y       z     vdW  Elec       q    Type
REMARK                         _______ _______ _______ _____ _____    ______ ____
ROOT
ATOM      1  C   UNL     1       2.573   8.211  17.842  0.00  0.00    +0.000 A 
ATOM      2  C   UNL     1       3.836   8.344  17.285  0.00  0.00    +0.000 A 
ATOM      3  C   UNL     1       4.641   7.213  17.092  0.00  0.00    +0.000 A 
ATOM      4  C   UNL     1       4.222   5.895  17.374  0.00  0.00    +0.000 A 
ATOM      5  C   UNL     1       2.871   5.771  17.763  0.00  0.00    +0.000 A 
ATOM      6  C   UNL     1       2.101   6.922  18.061  0.00  0.00    +0.000 A 
ENDROOT
BRANCH   5   7
ATOM      7  C   UNL     1       2.137   4.492  17.998  0.00  0.00    +0.000 C 
ATOM      8  O   UNL     1       1.327   4.106  17.161  0.00  0.00    +0.000 OA
ATOM      9  N   UNL     1       2.463   3.727  19.131  0.00  0.00    +0.000 N 
ATOM     10  C   UNL     1       1.861   2.405  19.290  0.00  0.00    +0.000 C 
ATOM     11  C   UNL     1       0.935   2.385  20.504  0.00  0.00    +0.000 C 
ATOM     12  C   UNL     1       1.673   2.847  21.762  0.00  0.00    +0.000 C 
ATOM     13  C   UNL     1       2.328   4.209  21.541  0.00  0.00    +0.000 C 
ATOM     14  C   UNL     1       3.216   4.197  20.302  0.00  0.00    +0.000 C 
ENDBRANCH   5   7
BRANCH   4  15
ATOM     15  N   UNL     1       5.175   4.901  17.241  0.00  0.00    +0.000 N 
ATOM     16  C   UNL     1       6.143   4.470  18.262  0.00  0.00    +0.000 C 
ATOM     17  C   UNL     1       7.598   4.670  17.791  0.00  0.00    +0.000 C 
ATOM     18  O   UNL     1       7.832   4.075  16.501  0.00  0.00    +0.000 OA
ATOM     19  C   UNL     1       6.958   4.679  15.534  0.00  0.00    +0.000 C 
ATOM     20  C   UNL     1       5.490   4.399  15.882  0.00  0.00    +0.000 C 
ENDBRANCH   4  15
BRANCH   1  21
ATOM     21  N   UNL     1       1.816   9.365  18.049  0.00  0.00    +0.000 N 
ATOM     22  H   UNL     1       1.266   9.589  17.221  0.00  0.00    +0.000 HD
BRANCH  21  23
ATOM     23  C   UNL     1       1.011   9.440  19.262  0.00  0.00    +0.000 C 
BRANCH  23  27
ATOM     24  C   UNL     1      -2.749  11.318  18.225  0.00  0.00    +0.000 A 
ATOM     25  C   UNL     1      -2.242  10.268  17.454  0.00  0.00    +0.000 A 
ATOM     26  C   UNL     1      -1.041   9.645  17.804  0.00  0.00    +0.000 A 
ATOM     27  C   UNL     1      -0.324  10.058  18.937  0.00  0.00    +0.000 A 
ATOM     28  C   UNL     1      -0.842  11.094  19.717  0.00  0.00    +0.000 A 
ATOM     29  C   UNL     1      -2.041  11.712  19.361  0.00  0.00    +0.000 A 
ATOM     30  F   UNL     1      -2.475  12.704  20.153  0.00  0.00    +0.000 F 
BRANCH  24  32
ATOM     31  C   UNL     1      -4.397  11.339  16.516  0.00  0.00    +0.000 C 
ATOM     32  O   UNL     1      -3.917  11.852  17.752  0.00  0.00    +0.000 OA
ENDBRANCH  24  32
ENDBRANCH  23  27
ENDBRANCH  21  23
ENDBRANCH   1  21
TORSDOF 6
ENDMDL
MODEL 3
REMARK VINA RESULT:      -8.7      2.386      2.476
REMARK  Name = 
REMARK  7 active torsions:
REMARK  status: ('A' for Active; 'I' for Inactive)
REMARK    1  A    between atoms: C_1  and  O_2
REMARK    2  A    between atoms: O_2  and  C_3
REMARK    3  A    between atoms: C_6  and  C_7
REMARK    4  A    between atoms: C_7  and  N_8
REMARK    5  A    between atoms: N_8  and  C_9
REMARK    6  A    between atoms: C_12  and  N_13
REMARK    7  A    between atoms: C_19  and  C_20
REMARK                            x       y       z     vdW  Elec       q    Type
REMARK                         _______ _______ _______ _____ _____    ______ ____
ROOT
ATOM      1  C   UNL     1       2.515   8.246  17.836  0.00  0.00    +0.000 A 
ATOM      2  C   UNL     1       3.803   8.385  17.343  0.00  0.00    +0.000 A 
ATOM      3  C   UNL     1       4.623   7.259  17.192  0.00  0.00    +0.000 A 
ATOM      4  C   UNL     1       4.198   5.939  17.455  0.00  0.00    +0.000 A 
ATOM      5  C   UNL     1       2.830   5.807  17.776  0.00  0.00    +0.000 A 
ATOM      6  C   UNL     1       2.040   6.954  18.033  0.00  0.00    +0.000 A 
ENDROOT
BRANCH   5   7
ATOM      7  C   UNL     1       2.093   4.524  17.975  0.00  0.00    +0.000 C 
ATOM      8  O   UNL     1       1.283   4.162  17.127  0.00  0.00    +0.000 OA
ATOM      9  N   UNL     1       2.414   3.729  19.090  0.00  0.00    +0.000 N 
ATOM     10  C   UNL     1       1.808   2.405  19.212  0.00  0.00    +0.000 C 
ATOM     11  C   UNL     1       0.880   2.355  20.423  0.00  0.00    +0.000 C 
ATOM     12  C   UNL     1       1.616   2.783  21.694  0.00  0.00    +0.000 C 
ATOM     13  C   UNL     1       2.274   4.149  21.510  0.00  0.00    +0.000 C 
ATOM     14  C   UNL     1       3.165   4.167  20.274  0.00  0.00    +0.000 C 
ENDBRANCH   5   7
BRANCH   4  15
ATOM     15  N   UNL     1       5.162   4.950  17.371  0.00  0.00    +0.000 N 
ATOM     16  C   UNL     1       6.188   4.635  18.378  0.00  0.00    +0.000 C 
ATOM     17  C   UNL     1       7.613   4.809  17.816  0.00  0.00    +0.000 C 
ATOM     18  O   UNL     1       7.794   4.092  16.580  0.00  0.00    +0.000 OA
ATOM     19  C   UNL     1       6.862   4.585  15.605  0.00  0.00    +0.000 C 
ATOM     20  C   UNL     1       5.418   4.320  16.053  0.00  0.00    +0.000 C 
ENDBRANCH   4  15
BRANCH   1  21
ATOM     21  N   UNL     1       1.742   9.396  18.004  0.00  0.00    +0.000 N 
ATOM     22  H   UNL     1       1.267   9.641  17.136  0.00  0.00    +0.000 HD
BRANCH  21  23
ATOM     23  C   UNL     1       0.832   9.442  19.141  0.00  0.00    +0.000 C 
BRANCH  23  27
ATOM     24  C   UNL     1      -2.951  11.236  18.041  0.00  0.00    +0.000 A 
ATOM     25  C   UNL     1      -2.243  11.696  19.155  0.00  0.00    +0.000 A 
ATOM     26  C   UNL     1      -1.010  11.133  19.495  0.00  0.00    +0.000 A 
ATOM     27  C   UNL     1      -0.457  10.101  18.722  0.00  0.00    +0.000 A 
ATOM     28  C   UNL     1      -1.156   9.656  17.598  0.00  0.00    +0.000 A 
ATOM     29  C   UNL     1      -2.387  10.221  17.266  0.00  0.00    +0.000 A 
ATOM     30  F   UNL     1      -3.005   9.740  16.177  0.00  0.00    +0.000 F 
BRANCH  24  32
ATOM     31  C   UNL     1      -4.949  12.091  18.998  0.00  0.00    +0.000 C 
ATOM     32  O   UNL     1      -4.155  11.856  17.842  0.00  0.00    +0.000 OA
ENDBRANCH  24  32
ENDBRANCH  23  27
ENDBRANCH  21  23
ENDBRANCH   1  21
TORSDOF 6
ENDMDL
MODEL 4
REMARK VINA RESULT:      -8.5      1.742      1.856
REMARK  Name = 
REMARK  7 active torsions:
REMARK  status: ('A' for Active; 'I' for Inactive)
REMARK    1  A    between atoms: C_1  and  O_2
REMARK    2  A    between atoms: O_2  and  C_3
REMARK    3  A    between atoms: C_6  and  C_7
REMARK    4  A    between atoms: C_7  and  N_8
REMARK    5  A    between atoms: N_8  and  C_9
REMARK    6  A    between atoms: C_12  and  N_13
REMARK    7  A    between atoms: C_19  and  C_20
REMARK                            x       y       z     vdW  Elec       q    Type
REMARK                         _______ _______ _______ _____ _____    ______ ____
ROOT
ATOM      1  C   UNL     1       2.323   8.065  17.997  0.00  0.00    +0.000 A 
ATOM      2  C   UNL     1       3.559   8.309  17.418  0.00  0.00    +0.000 A 
ATOM      3  C   UNL     1       4.432   7.246  17.152  0.00  0.00    +0.000 A 
ATOM      4  C   UNL     1       4.110   5.891  17.381  0.00  0.00    +0.000 A 
ATOM      5  C   UNL     1       2.781   5.656  17.794  0.00  0.00    +0.000 A 
ATOM      6  C   UNL     1       1.944   6.737  18.165  0.00  0.00    +0.000 A 
ENDROOT
BRANCH   5   7
ATOM      7  C   UNL     1       2.141   4.321  17.984  0.00  0.00    +0.000 C 
ATOM      8  O   UNL     1       1.400   3.884  17.109  0.00  0.00    +0.000 OA
ATOM      9  N   UNL     1       2.478   3.569  19.123  0.00  0.00    +0.000 N 
ATOM     10  C   UNL     1       1.975   2.202  19.242  0.00  0.00    +0.000 C 
ATOM     11  C   UNL     1       1.004   2.092  20.415  0.00  0.00    +0.000 C 
ATOM     12  C   UNL     1       1.650   2.594  21.708  0.00  0.00    +0.000 C 
ATOM     13  C   UNL     1       2.204   4.006  21.529  0.00  0.00    +0.000 C 
ATOM     14  C   UNL     1       3.142   4.080  20.330  0.00  0.00    +0.000 C 
ENDBRANCH   5   7
BRANCH   4  15
ATOM     15  N   UNL     1       5.124   4.971  17.178  0.00  0.00    +0.000 N 
ATOM     16  C   UNL     1       6.109   4.516  18.172  0.00  0.00    +0.000 C 
ATOM     17  C   UNL     1       7.552   4.843  17.737  0.00  0.00    +0.000 C 
ATOM     18  O   UNL     1       7.832   4.373  16.405  0.00  0.00    +0.000 OA
ATOM     19  C   UNL     1       6.930   5.000  15.481  0.00  0.00    +0.000 C 
ATOM     20  C   UNL     1       5.479   4.604  15.786  0.00  0.00    +0.000 C 
ENDBRANCH   4  15
BRANCH   1  21
ATOM     21  N   UNL     1       1.496   9.154  18.278  0.00  0.00    +0.000 N 
ATOM     22  H   UNL     1       0.698   9.172  17.645  0.00  0.00    +0.000 HD
BRANCH  21  23
ATOM     23  C   UNL     1       1.086   9.356  19.661  0.00  0.00    +0.000 C 
BRANCH  23  27
ATOM     24  C   UNL     1      -2.224  12.139  19.845  0.00  0.00    +0.000 A 
ATOM     25  C   UNL     1      -1.454  11.875  20.981  0.00  0.00    +0.000 A 
ATOM     26  C   UNL     1      -0.370  10.995  20.915  0.00  0.00    +0.000 A 
ATOM     27  C   UNL     1      -0.031  10.366  19.708  0.00  0.00    +0.000 A 
ATOM     28  C   UNL     1      -0.790  10.647  18.569  0.00  0.00    +0.000 A 
ATOM     29  C   UNL     1      -1.871  11.524  18.643  0.00  0.00    +0.000 A 
ATOM     30  F   UNL     1      -2.559  11.742  17.512  0.00  0.00    +0.000 F 
BRANCH  24  32
ATOM     31  C   UNL     1      -3.067  14.018  21.028  0.00  0.00    +0.000 C 
ATOM     32  O   UNL     1      -3.270  12.996  20.060  0.00  0.00    +0.000 OA
ENDBRANCH  24  32
ENDBRANCH  23  27
ENDBRANCH  21  23
ENDBRANCH   1  21
TORSDOF 6
ENDMDL
MODEL 5
REMARK VINA RESULT:      -8.4      1.565      1.705
REMARK  Name = 
REMARK  7 active torsions:
REMARK  status: ('A' for Active; 'I' for Inactive)
REMARK    1  A    between atoms: C_1  and  O_2
REMARK    2  A    between atoms: O_2  and  C_3
REMARK    3  A    between atoms: C_6  and  C_7
REMARK    4  A    between atoms: C_7  and  N_8
REMARK    5  A    between atoms: N_8  and  C_9
REMARK    6  A    between atoms: C_12  and  N_13
REMARK    7  A    between atoms: C_19  and  C_20
REMARK                            x       y       z     vdW  Elec       q    Type
REMARK                         _______ _______ _______ _____ _____    ______ ____
ROOT
ATOM      1  C   UNL     1       2.328   8.053  18.054  0.00  0.00    +0.000 A 
ATOM      2  C   UNL     1       3.551   8.307  17.451  0.00  0.00    +0.000 A 
ATOM      3  C   UNL     1       4.418   7.247  17.150  0.00  0.00    +0.000 A 
ATOM      4  C   UNL     1       4.101   5.889  17.365  0.00  0.00    +0.000 A 
ATOM      5  C   UNL     1       2.781   5.648  17.805  0.00  0.00    +0.000 A 
ATOM      6  C   UNL     1       1.953   6.724  18.211  0.00  0.00    +0.000 A 
ENDROOT
BRANCH   5   7
ATOM      7  C   UNL     1       2.145   4.310  17.989  0.00  0.00    +0.000 C 
ATOM      8  O   UNL     1       1.410   3.872  17.110  0.00  0.00    +0.000 OA
ATOM      9  N   UNL     1       2.479   3.558  19.129  0.00  0.00    +0.000 N 
ATOM     10  C   UNL     1       1.981   2.189  19.243  0.00  0.00    +0.000 C 
ATOM     11  C   UNL     1       1.004   2.074  20.411  0.00  0.00    +0.000 C 
ATOM     12  C   UNL     1       1.640   2.576  21.708  0.00  0.00    +0.000 C 
ATOM     13  C   UNL     1       2.190   3.991  21.534  0.00  0.00    +0.000 C 
ATOM     14  C   UNL     1       3.134   4.070  20.340  0.00  0.00    +0.000 C 
ENDBRANCH   5   7
BRANCH   4  15
ATOM     15  N   UNL     1       5.109   4.973  17.126  0.00  0.00    +0.000 N 
ATOM     16  C   UNL     1       6.099   4.481  18.098  0.00  0.00    +0.000 C 
ATOM     17  C   UNL     1       7.540   4.816  17.666  0.00  0.00    +0.000 C 
ATOM     18  O   UNL     1       7.810   4.389  16.317  0.00  0.00    +0.000 OA
ATOM     19  C   UNL     1       6.905   5.051  15.420  0.00  0.00    +0.000 C 
ATOM     20  C   UNL     1       5.454   4.650  15.720  0.00  0.00    +0.000 C 
ENDBRANCH   4  15
BRANCH   1  21
ATOM     21  N   UNL     1       1.508   9.138  18.369  0.00  0.00    +0.000 N 
ATOM     22  H   UNL     1       0.694   9.164  17.757  0.00  0.00    +0.000 HD
BRANCH  21  23
ATOM     23  C   UNL     1       1.134   9.323  19.765  0.00  0.00    +0.000 C 
BRANCH  23  27
ATOM     24  C   UNL     1      -2.172  12.112  19.940  0.00  0.00    +0.000 A 
ATOM     25  C   UNL     1      -1.882  11.426  18.757  0.00  0.00    +0.000 A 
ATOM     26  C   UNL     1      -0.830  10.508  18.708  0.00  0.00    +0.000 A 
ATOM     27  C   UNL     1      -0.050  10.252  19.845  0.00  0.00    +0.000 A 
ATOM     28  C   UNL     1      -0.354  10.923  21.032  0.00  0.00    +0.000 A 
ATOM     29  C   UNL     1      -1.404  11.840  21.073  0.00  0.00    +0.000 A 
ATOM     30  F   UNL     1      -1.634  12.452  22.244  0.00  0.00    +0.000 F 
BRANCH  24  32
ATOM     31  C   UNL     1      -4.419  12.646  20.493  0.00  0.00    +0.000 C 
ATOM     32  O   UNL     1      -3.208  13.001  19.837  0.00  0.00    +0.000 OA
ENDBRANCH  24  32
ENDBRANCH  23  27
ENDBRANCH  21  23
ENDBRANCH   1  21
TORSDOF 6
ENDMDL
MODEL 6
REMARK VINA RESULT:      -8.2      2.670      3.019
REMARK  Name = 
REMARK  7 active torsions:
REMARK  status: ('A' for Active; 'I' for Inactive)
REMARK    1  A    between atoms: C_1  and  O_2
REMARK    2  A    between atoms: O_2  and  C_3
REMARK    3  A    between atoms: C_6  and  C_7
REMARK    4  A    between atoms: C_7  and  N_8
REMARK    5  A    between atoms: N_8  and  C_9
REMARK    6  A    between atoms: C_12  and  N_13
REMARK    7  A    between atoms: C_19  and  C_20
REMARK                            x       y       z     vdW  Elec       q    Type
REMARK                         _______ _______ _______ _____ _____    ______ ____
ROOT
ATOM      1  C   UNL     1       2.322   8.619  17.952  0.00  0.00    +0.000 A 
ATOM      2  C   UNL     1       3.396   8.480  17.086  0.00  0.00    +0.000 A 
ATOM      3  C   UNL     1       4.263   7.387  17.213  0.00  0.00    +0.000 A 
ATOM      4  C   UNL     1       4.082   6.347  18.151  0.00  0.00    +0.000 A 
ATOM      5  C   UNL     1       2.883   6.416  18.892  0.00  0.00    +0.000 A 
ATOM      6  C   UNL     1       2.071   7.576  18.836  0.00  0.00    +0.000 A 
ENDROOT
BRANCH   5   7
ATOM      7  C   UNL     1       2.382   5.390  19.853  0.00  0.00    +0.000 C 
ATOM      8  O   UNL     1       2.563   5.558  21.055  0.00  0.00    +0.000 OA
ATOM      9  N   UNL     1       1.643   4.303  19.353  0.00  0.00    +0.000 N 
ATOM     10  C   UNL     1       1.022   3.377  20.298  0.00  0.00    +0.000 C 
ATOM     11  C   UNL     1       1.658   1.994  20.181  0.00  0.00    +0.000 C 
ATOM     12  C   UNL     1       1.602   1.486  18.739  0.00  0.00    +0.000 C 
ATOM     13  C   UNL     1       2.218   2.502  17.779  0.00  0.00    +0.000 C 
ATOM     14  C   UNL     1       1.579   3.876  17.950  0.00  0.00    +0.000 C 
ENDBRANCH   5   7
BRANCH   4  15
ATOM     15  N   UNL     1       5.090   5.403  18.230  0.00  0.00    +0.000 N 
ATOM     16  C   UNL     1       6.167   5.348  19.232  0.00  0.00    +0.000 C 
ATOM     17  C   UNL     1       7.560   5.457  18.581  0.00  0.00    +0.000 C 
ATOM     18  O   UNL     1       7.730   4.505  17.514  0.00  0.00    +0.000 OA
ATOM     19  C   UNL     1       6.740   4.744  16.502  0.00  0.00    +0.000 C 
ATOM     20  C   UNL     1       5.328   4.521  17.062  0.00  0.00    +0.000 C 
ENDBRANCH   4  15
BRANCH   1  21
ATOM     21  N   UNL     1       1.501   9.740  17.814  0.00  0.00    +0.000 N 
ATOM     22  H   UNL     1       0.826   9.602  17.064  0.00  0.00    +0.000 HD
BRANCH  21  23
ATOM     23  C   UNL     1       0.866  10.267  19.015  0.00  0.00    +0.000 C 
BRANCH  23  27
ATOM     24  C   UNL     1      -3.200  11.376  18.024  0.00  0.00    +0.000 A 
ATOM     25  C   UNL     1      -2.530  10.396  17.286  0.00  0.00    +0.000 A 
ATOM     26  C   UNL     1      -1.227  10.021  17.622  0.00  0.00    +0.000 A 
ATOM     27  C   UNL     1      -0.568  10.615  18.708  0.00  0.00    +0.000 A 
ATOM     28  C   UNL     1      -1.246  11.580  19.457  0.00  0.00    +0.000 A 
ATOM     29  C   UNL     1      -2.546  11.951  19.115  0.00  0.00    +0.000 A 
ATOM     30  F   UNL     1      -3.133  12.888  19.874  0.00  0.00    +0.000 F 
BRANCH  24  32
ATOM     31  C   UNL     1      -5.528  10.923  18.139  0.00  0.00    +0.000 C 
ATOM     32  O   UNL     1      -4.458  11.665  17.567  0.00  0.00    +0.000 OA
ENDBRANCH  24  32
ENDBRANCH  23  27
ENDBRANCH  21  23
ENDBRANCH   1  21
TORSDOF 6
ENDMDL
MODEL 7
REMARK VINA RESULT:      -8.2      2.786      3.267
REMARK  Name = 
REMARK  7 active torsions:
REMARK  status: ('A' for Active; 'I' for Inactive)
REMARK    1  A    between atoms: C_1  and  O_2
REMARK    2  A    between atoms: O_2  and  C_3
REMARK    3  A    between atoms: C_6  and  C_7
REMARK    4  A    between atoms: C_7  and  N_8
REMARK    5  A    between atoms: N_8  and  C_9
REMARK    6  A    between atoms: C_12  and  N_13
REMARK    7  A    between atoms: C_19  and  C_20
REMARK                            x       y       z     vdW  Elec       q    Type
REMARK                         _______ _______ _______ _____ _____    ______ ____
ROOT
ATOM      1  C   UNL     1       1.923   8.219  19.047  0.00  0.00    +0.000 A 
ATOM      2  C   UNL     1       2.264   8.670  17.781  0.00  0.00    +0.000 A 
ATOM      3  C   UNL     1       3.321   8.070  17.083  0.00  0.00    +0.000 A 
ATOM      4  C   UNL     1       4.049   6.961  17.564  0.00  0.00    +0.000 A 
ATOM      5  C   UNL     1       3.562   6.406  18.767  0.00  0.00    +0.000 A 
ATOM      6  C   UNL     1       2.569   7.081  19.519  0.00  0.00    +0.000 A 
ENDROOT
BRANCH   5   7
ATOM      7  C   UNL     1       4.061   5.163  19.428  0.00  0.00    +0.000 C 
ATOM      8  O   UNL     1       5.102   5.207  20.075  0.00  0.00    +0.000 OA
ATOM      9  N   UNL     1       3.272   4.001  19.357  0.00  0.00    +0.000 N 
ATOM     10  C   UNL     1       3.677   2.825  20.124  0.00  0.00    +0.000 C 
ATOM     11  C   UNL     1       4.061   1.683  19.186  0.00  0.00    +0.000 C 
ATOM     12  C   UNL     1       2.929   1.381  18.202  0.00  0.00    +0.000 C 
ATOM     13  C   UNL     1       2.503   2.643  17.455  0.00  0.00    +0.000 C 
ATOM     14  C   UNL     1       2.161   3.767  18.426  0.00  0.00    +0.000 C 
ENDBRANCH   5   7
BRANCH   4  15
ATOM     15  N   UNL     1       5.138   6.562  16.811  0.00  0.00    +0.000 N 
ATOM     16  C   UNL     1       5.199   5.412  15.894  0.00  0.00    +0.000 C 
ATOM     17  C   UNL     1       6.272   4.392  16.327  0.00  0.00    +0.000 C 
ATOM     18  O   UNL     1       7.553   5.016  16.538  0.00  0.00    +0.000 OA
ATOM     19  C   UNL     1       7.432   6.009  17.569  0.00  0.00    +0.000 C 
ATOM     20  C   UNL     1       6.471   7.125  17.138  0.00  0.00    +0.000 C 
ENDBRANCH   4  15
BRANCH   1  21
ATOM     21  N   UNL     1       0.887   8.864  19.724  0.00  0.00    +0.000 N 
ATOM     22  H   UNL     1       0.864   8.580  20.703  0.00  0.00    +0.000 HD
BRANCH  21  23
ATOM     23  C   UNL     1       0.783  10.311  19.584  0.00  0.00    +0.000 C 
BRANCH  23  27
ATOM     24  C   UNL     1      -3.121  11.201  17.939  0.00  0.00    +0.000 A 
ATOM     25  C   UNL     1      -2.660  11.868  19.077  0.00  0.00    +0.000 A 
ATOM     26  C   UNL     1      -1.390  11.599  19.593  0.00  0.00    +0.000 A 
ATOM     27  C   UNL     1      -0.552  10.658  18.976  0.00  0.00    +0.000 A 
ATOM     28  C   UNL     1      -1.006  10.006  17.828  0.00  0.00    +0.000 A 
ATOM     29  C   UNL     1      -2.276  10.279  17.320  0.00  0.00    +0.000 A 
ATOM     30  F   UNL     1      -2.648   9.611  16.218  0.00  0.00    +0.000 F 
BRANCH  24  32
ATOM     31  C   UNL     1      -5.172  12.248  18.517  0.00  0.00    +0.000 C 
ATOM     32  O   UNL     1      -4.392  11.542  17.561  0.00  0.00    +0.000 OA
ENDBRANCH  24  32
ENDBRANCH  23  27
ENDBRANCH  21  23
ENDBRANCH   1  21
TORSDOF 6
ENDMDL
MODEL 8
REMARK VINA RESULT:      -8.2      2.712      3.284
REMARK  Name = 
REMARK  7 active torsions:
REMARK  status: ('A' for Active; 'I' for Inactive)
REMARK    1  A    between atoms: C_1  and  O_2
REMARK    2  A    between atoms: O_2  and  C_3
REMARK    3  A    between atoms: C_6  and  C_7
REMARK    4  A    between atoms: C_7  and  N_8
REMARK    5  A    between atoms: N_8  and  C_9
REMARK    6  A    between atoms: C_12  and  N_13
REMARK    7  A    between atoms: C_19  and  C_20
REMARK                            x       y       z     vdW  Elec       q    Type
REMARK                         _______ _______ _______ _____ _____    ______ ____
ROOT
ATOM      1  C   UNL     1       1.938   8.255  19.133  0.00  0.00    +0.000 A 
ATOM      2  C   UNL     1       2.251   8.711  17.861  0.00  0.00    +0.000 A 
ATOM      3  C   UNL     1       3.282   8.103  17.133  0.00  0.00    +0.000 A 
ATOM      4  C   UNL     1       4.010   6.983  17.588  0.00  0.00    +0.000 A 
ATOM      5  C   UNL     1       3.548   6.426  18.800  0.00  0.00    +0.000 A 
ATOM      6  C   UNL     1       2.583   7.108  19.581  0.00  0.00    +0.000 A 
ENDROOT
BRANCH   5   7
ATOM      7  C   UNL     1       4.049   5.173  19.439  0.00  0.00    +0.000 C 
ATOM      8  O   UNL     1       5.115   5.198  20.047  0.00  0.00    +0.000 OA
ATOM      9  N   UNL     1       3.239   4.025  19.397  0.00  0.00    +0.000 N 
ATOM     10  C   UNL     1       3.652   2.841  20.148  0.00  0.00    +0.000 C 
ATOM     11  C   UNL     1       3.979   1.694  19.194  0.00  0.00    +0.000 C 
ATOM     12  C   UNL     1       2.806   1.413  18.253  0.00  0.00    +0.000 C 
ATOM     13  C   UNL     1       2.375   2.684  17.524  0.00  0.00    +0.000 C 
ATOM     14  C   UNL     1       2.089   3.812  18.508  0.00  0.00    +0.000 C 
ENDBRANCH   5   7
BRANCH   4  15
ATOM     15  N   UNL     1       5.074   6.576  16.803  0.00  0.00    +0.000 N 
ATOM     16  C   UNL     1       5.099   5.429  15.882  0.00  0.00    +0.000 C 
ATOM     17  C   UNL     1       6.173   4.397  16.281  0.00  0.00    +0.000 C 
ATOM     18  O   UNL     1       7.465   5.008  16.460  0.00  0.00    +0.000 OA
ATOM     19  C   UNL     1       7.382   5.998  17.498  0.00  0.00    +0.000 C 
ATOM     20  C   UNL     1       6.421   7.125  17.096  0.00  0.00    +0.000 C 
ENDBRANCH   4  15
BRANCH   1  21
ATOM     21  N   UNL     1       0.927   8.908  19.841  0.00  0.00    +0.000 N 
ATOM     22  H   UNL     1       0.927   8.620  20.818  0.00  0.00    +0.000 HD
BRANCH  21  23
ATOM     23  C   UNL     1       0.835  10.356  19.711  0.00  0.00    +0.000 C 
BRANCH  23  27
ATOM     24  C   UNL     1      -3.153  11.540  18.515  0.00  0.00    +0.000 A 
ATOM     25  C   UNL     1      -2.507  10.476  17.880  0.00  0.00    +0.000 A 
ATOM     26  C   UNL     1      -1.230  10.078  18.283  0.00  0.00    +0.000 A 
ATOM     27  C   UNL     1      -0.575  10.735  19.335  0.00  0.00    +0.000 A 
ATOM     28  C   UNL     1      -1.230  11.785  19.982  0.00  0.00    +0.000 A 
ATOM     29  C   UNL     1      -2.504  12.178  19.573  0.00  0.00    +0.000 A 
ATOM     30  F   UNL     1      -3.070  13.198  20.234  0.00  0.00    +0.000 F 
BRANCH  24  32
ATOM     31  C   UNL     1      -4.598  11.522  16.630  0.00  0.00    +0.000 C 
ATOM     32  O   UNL     1      -4.386  11.840  18.000  0.00  0.00    +0.000 OA
ENDBRANCH  24  32
ENDBRANCH  23  27
ENDBRANCH  21  23
ENDBRANCH   1  21
TORSDOF 6
ENDMDL
MODEL 9
REMARK VINA RESULT:      -8.1      3.143      3.507
REMARK  Name = 
REMARK  7 active torsions:
REMARK  status: ('A' for Active; 'I' for Inactive)
REMARK    1  A    between atoms: C_1  and  O_2
REMARK    2  A    between atoms: O_2  and  C_3
REMARK    3  A    between atoms: C_6  and  C_7
REMARK    4  A    between atoms: C_7  and  N_8
REMARK    5  A    between atoms: N_8  and  C_9
REMARK    6  A    between atoms: C_12  and  N_13
REMARK    7  A    between atoms: C_19  and  C_20
REMARK                            x       y       z     vdW  Elec       q    Type
REMARK                         _______ _______ _______ _____ _____    ______ ____
ROOT
ATOM      1  C   UNL     1       1.335   8.929  19.328  0.00  0.00    +0.000 A 
ATOM      2  C   UNL     1       2.151   9.192  18.238  0.00  0.00    +0.000 A 
ATOM      3  C   UNL     1       3.101   8.247  17.828  0.00  0.00    +0.000 A 
ATOM      4  C   UNL     1       3.251   6.976  18.424  0.00  0.00    +0.000 A 
ATOM      5  C   UNL     1       2.287   6.662  19.406  0.00  0.00    +0.000 A 
ATOM      6  C   UNL     1       1.405   7.659  19.890  0.00  0.00    +0.000 A 
ENDROOT
BRANCH   5   7
ATOM      7  C   UNL     1       2.136   5.350  20.102  0.00  0.00    +0.000 C 
ATOM      8  O   UNL     1       2.397   5.274  21.298  0.00  0.00    +0.000 OA
ATOM      9  N   UNL     1       1.615   4.261  19.380  0.00  0.00    +0.000 N 
ATOM     10  C   UNL     1       1.323   3.017  20.089  0.00  0.00    +0.000 C 
ATOM     11  C   UNL     1       2.241   1.899  19.602  0.00  0.00    +0.000 C 
ATOM     12  C   UNL     1       2.154   1.742  18.083  0.00  0.00    +0.000 C 
ATOM     13  C   UNL     1       2.419   3.073  17.380  0.00  0.00    +0.000 C 
ATOM     14  C   UNL     1       1.506   4.169  17.918  0.00  0.00    +0.000 C 
ENDBRANCH   5   7
BRANCH   4  15
ATOM     15  N   UNL     1       4.313   6.207  17.982  0.00  0.00    +0.000 N 
ATOM     16  C   UNL     1       5.052   5.200  18.760  0.00  0.00    +0.000 C 
ATOM     17  C   UNL     1       6.545   5.562  18.890  0.00  0.00    +0.000 C 
ATOM     18  O   UNL     1       7.145   5.841  17.611  0.00  0.00    +0.000 OA
ATOM     19  C   UNL     1       6.465   6.949  17.001  0.00  0.00    +0.000 C 
ATOM     20  C   UNL     1       4.996   6.598  16.725  0.00  0.00    +0.000 C 
ENDBRANCH   4  15
BRANCH   1  21
ATOM     21  N   UNL     1       0.424   9.909  19.726  0.00  0.00    +0.000 N 
ATOM     22  H   UNL     1       0.619  10.217  20.678  0.00  0.00    +0.000 HD
BRANCH  21  23
ATOM     23  C   UNL     1       0.211  11.040  18.832  0.00  0.00    +0.000 C 
BRANCH  23  27
ATOM     24  C   UNL     1      -3.937  10.932  17.597  0.00  0.00    +0.000 A 
ATOM     25  C   UNL     1      -3.521  11.790  18.619  0.00  0.00    +0.000 A 
ATOM     26  C   UNL     1      -2.178  11.843  19.001  0.00  0.00    +0.000 A 
ATOM     27  C   UNL     1      -1.221  11.041  18.362  0.00  0.00    +0.000 A 
ATOM     28  C   UNL     1      -1.634  10.198  17.327  0.00  0.00    +0.000 A 
ATOM     29  C   UNL     1      -2.976  10.150  16.953  0.00  0.00    +0.000 A 
ATOM     30  F   UNL     1      -3.302   9.314  15.956  0.00  0.00    +0.000 F 
BRANCH  24  32
ATOM     31  C   UNL     1      -6.142  10.856  18.475  0.00  0.00    +0.000 C 
ATOM     32  O   UNL     1      -5.282  10.962  17.347  0.00  0.00    +0.000 OA
ENDBRANCH  24  32
ENDBRANCH  23  27
ENDBRANCH  21  23
ENDBRANCH   1  21
TORSDOF 6
ENDMDL
