MODEL 1
REMARK VINA RESULT:      -8.4      0.000      0.000
REMARK  Name = 
REMARK  4 active torsions:
REMARK  status: ('A' for Active; 'I' for Inactive)
REMARK    1  A    between atoms: C_4  and  C_5
REMARK    2  A    between atoms: C_5  and  N_6
REMARK    3  A    between atoms: C_10  and  N_11
REMARK    4  A    between atoms: N_11  and  C_12
REMARK                            x       y       z     vdW  Elec       q    Type
REMARK                         _______ _______ _______ _____ _____    ______ ____
ROOT
ATOM      1  N   UNL     1       2.258   3.780  20.297  0.00  0.00    +0.000 NA
ATOM      2  C   UNL     1       1.032   3.447  19.568  0.00  0.00    +0.000 C 
ATOM      3  C   UNL     1       1.182   2.202  18.700  0.00  0.00    +0.000 C 
ATOM      4  C   UNL     1       2.326   2.388  17.711  0.00  0.00    +0.000 C 
ATOM      5  C   UNL     1       3.639   2.601  18.475  0.00  0.00    +0.000 C 
ATOM      6  C   UNL     1       3.462   3.807  19.447  0.00  0.00    +0.000 C 
ENDROOT
BRANCH   5   7
ATOM      7  N   UNL     1       4.743   2.904  17.544  0.00  0.00    +0.000 N 
ATOM      8  H   UNL     1       4.592   2.503  16.620  0.00  0.00    +0.000 HD
BRANCH   7   9
ATOM      9  C   UNL     1       5.286   4.190  17.451  0.00  0.00    +0.000 A 
ATOM     10  C   UNL     1       4.858   5.022  16.400  0.00  0.00    +0.000 A 
ATOM     11  C   UNL     1       5.396   6.299  16.172  0.00  0.00    +0.000 A 
ATOM     12  C   UNL     1       6.429   6.703  17.019  0.00  0.00    +0.000 A 
ATOM     13  N   UNL     1       7.181   7.847  17.070  0.00  0.00    +0.000 N 
ATOM     14  N   UNL     1       8.117   7.848  18.038  0.00  0.00    +0.000 NA
ATOM     15  C   UNL     1       7.953   6.658  18.627  0.00  0.00    +0.000 A 
ATOM     16  C   UNL     1       6.909   5.906  18.044  0.00  0.00    +0.000 A 
ATOM     17  C   UNL     1       6.333   4.642  18.263  0.00  0.00    +0.000 A 
ATOM     18  H   UNL     1       7.112   8.659  16.470  0.00  0.00    +0.000 HD
ENDBRANCH   7   9
ENDBRANCH   5   7
BRANCH   1  19
ATOM     19  C   UNL     1       2.123   5.046  21.067  0.00  0.00    +0.000 C 
BRANCH  19  23
ATOM     20  C   UNL     1       1.862   8.733  18.901  0.00  0.00    +0.000 A 
ATOM     21  C   UNL     1       2.499   7.651  18.306  0.00  0.00    +0.000 A 
ATOM     22  C   UNL     1       2.570   6.440  18.994  0.00  0.00    +0.000 A 
ATOM     23  C   UNL     1       2.010   6.345  20.268  0.00  0.00    +0.000 A 
ATOM     24  N   UNL     1       1.379   7.394  20.855  0.00  0.00    +0.000 NA
ATOM     25  C   UNL     1       1.323   8.556  20.163  0.00  0.00    +0.000 A 
ENDBRANCH  19  23
ENDBRANCH   1  19
TORSDOF 4
ENDMDL
MODEL 2
REMARK VINA RESULT:      -8.3      2.648      6.805
REMARK  Name = 
REMARK  4 active torsions:
REMARK  status: ('A' for Active; 'I' for Inactive)
REMARK    1  A    between atoms: C_4  and  C_5
REMARK    2  A    between atoms: C_5  and  N_6
REMARK    3  A    between atoms: C_10  and  N_11
REMARK    4  A    between atoms: N_11  and  C_12
REMARK                            x       y       z     vdW  Elec       q    Type
REMARK                         _______ _______ _______ _____ _____    ______ ____
ROOT
ATOM      1  N   UNL     1       4.700   4.493  16.500  0.00  0.00    +0.000 NA
ATOM      2  C   UNL     1       4.060   3.245  16.924  0.00  0.00    +0.000 C 
ATOM      3  C   UNL     1       2.611   3.443  17.353  0.00  0.00    +0.000 C 
ATOM      4  C   UNL     1       2.533   4.462  18.483  0.00  0.00    +0.000 C 
ATOM      5  C   UNL     1       3.076   5.811  17.997  0.00  0.00    +0.000 C 
ATOM      6  C   UNL     1       4.523   5.602  17.455  0.00  0.00    +0.000 C 
ENDROOT
BRANCH   5   7
ATOM      7  N   UNL     1       3.125   6.785  19.106  0.00  0.00    +0.000 N 
ATOM      8  H   UNL     1       4.063   7.148  19.261  0.00  0.00    +0.000 HD
BRANCH   7   9
ATOM      9  C   UNL     1       2.166   7.796  19.230  0.00  0.00    +0.000 A 
ATOM     10  C   UNL     1       1.855   8.565  18.094  0.00  0.00    +0.000 A 
ATOM     11  C   UNL     1       0.966   9.652  18.130  0.00  0.00    +0.000 A 
ATOM     12  C   UNL     1       0.426   9.978  19.375  0.00  0.00    +0.000 A 
ATOM     13  N   UNL     1      -0.435  10.966  19.773  0.00  0.00    +0.000 N 
ATOM     14  N   UNL     1      -0.703  10.965  21.092  0.00  0.00    +0.000 NA
ATOM     15  C   UNL     1       0.016   9.936  21.552  0.00  0.00    +0.000 A 
ATOM     16  C   UNL     1       0.730   9.275  20.528  0.00  0.00    +0.000 A 
ATOM     17  C   UNL     1       1.604   8.176  20.456  0.00  0.00    +0.000 A 
ATOM     18  H   UNL     1      -0.869  11.676  19.197  0.00  0.00    +0.000 HD
ENDBRANCH   7   9
ENDBRANCH   5   7
BRANCH   1  19
ATOM     19  C   UNL     1       6.137   4.299  16.171  0.00  0.00    +0.000 C 
BRANCH  19  23
ATOM     20  C   UNL     1       7.361   4.540  12.072  0.00  0.00    +0.000 A 
ATOM     21  C   UNL     1       6.343   3.661  12.416  0.00  0.00    +0.000 A 
ATOM     22  C   UNL     1       5.922   3.590  13.743  0.00  0.00    +0.000 A 
ATOM     23  C   UNL     1       6.540   4.397  14.699  0.00  0.00    +0.000 A 
ATOM     24  N   UNL     1       7.532   5.266  14.372  0.00  0.00    +0.000 NA
ATOM     25  C   UNL     1       7.918   5.314  13.076  0.00  0.00    +0.000 A 
ENDBRANCH  19  23
ENDBRANCH   1  19
TORSDOF 4
ENDMDL
MODEL 3
REMARK VINA RESULT:      -8.2      1.971      5.688
REMARK  Name = 
REMARK  4 active torsions:
REMARK  status: ('A' for Active; 'I' for Inactive)
REMARK    1  A    between atoms: C_4  and  C_5
REMARK    2  A    between atoms: C_5  and  N_6
REMARK    3  A    between atoms: C_10  and  N_11
REMARK    4  A    between atoms: N_11  and  C_12
REMARK                            x       y       z     vdW  Elec       q    Type
REMARK                         _______ _______ _______ _____ _____    ______ ____
ROOT
ATOM      1  N   UNL     1       2.904   3.376  18.506  0.00  0.00    +0.000 NA
ATOM      2  C   UNL     1       2.427   2.479  19.560  0.00  0.00    +0.000 C 
ATOM      3  C   UNL     1       1.201   3.022  20.287  0.00  0.00    +0.000 C 
ATOM      4  C   UNL     1       1.510   4.389  20.885  0.00  0.00    +0.000 C 
ATOM      5  C   UNL     1       1.877   5.371  19.765  0.00  0.00    +0.000 C 
ATOM      6  C   UNL     1       3.062   4.774  18.946  0.00  0.00    +0.000 C 
ENDROOT
BRANCH   5   7
ATOM      7  N   UNL     1       2.298   6.670  20.325  0.00  0.00    +0.000 N 
ATOM      8  H   UNL     1       3.300   6.710  20.499  0.00  0.00    +0.000 HD
BRANCH   7   9
ATOM      9  C   UNL     1       1.829   7.877  19.797  0.00  0.00    +0.000 A 
ATOM     10  C   UNL     1       2.179   8.209  18.475  0.00  0.00    +0.000 A 
ATOM     11  C   UNL     1       1.826   9.429  17.877  0.00  0.00    +0.000 A 
ATOM     12  C   UNL     1       1.139  10.343  18.678  0.00  0.00    +0.000 A 
ATOM     13  N   UNL     1       0.670  11.607  18.435  0.00  0.00    +0.000 N 
ATOM     14  N   UNL     1       0.070  12.185  19.492  0.00  0.00    +0.000 NA
ATOM     15  C   UNL     1       0.160  11.251  20.446  0.00  0.00    +0.000 A 
ATOM     16  C   UNL     1       0.804  10.079  19.994  0.00  0.00    +0.000 A 
ATOM     17  C   UNL     1       1.149   8.837  20.558  0.00  0.00    +0.000 A 
ATOM     18  H   UNL     1       0.734  12.135  17.574  0.00  0.00    +0.000 HD
ENDBRANCH   7   9
ENDBRANCH   5   7
BRANCH   1  19
ATOM     19  C   UNL     1       4.151   2.876  17.869  0.00  0.00    +0.000 C 
BRANCH  19  23
ATOM     20  C   UNL     1       7.060   5.724  16.533  0.00  0.00    +0.000 A 
ATOM     21  C   UNL     1       5.997   5.410  15.696  0.00  0.00    +0.000 A 
ATOM     22  C   UNL     1       5.033   4.501  16.130  0.00  0.00    +0.000 A 
ATOM     23  C   UNL     1       5.163   3.918  17.391  0.00  0.00    +0.000 A 
ATOM     24  N   UNL     1       6.195   4.223  18.220  0.00  0.00    +0.000 NA
ATOM     25  C   UNL     1       7.114   5.111  17.774  0.00  0.00    +0.000 A 
ENDBRANCH  19  23
ENDBRANCH   1  19
TORSDOF 4
ENDMDL
MODEL 4
REMARK VINA RESULT:      -8.2      2.074      5.838
REMARK  Name = 
REMARK  4 active torsions:
REMARK  status: ('A' for Active; 'I' for Inactive)
REMARK    1  A    between atoms: C_4  and  C_5
REMARK    2  A    between atoms: C_5  and  N_6
REMARK    3  A    between atoms: C_10  and  N_11
REMARK    4  A    between atoms: N_11  and  C_12
REMARK                            x       y       z     vdW  Elec       q    Type
REMARK                         _______ _______ _______ _____ _____    ______ ____
ROOT
ATOM      1  N   UNL     1       3.473   3.973  18.687  0.00  0.00    +0.000 NA
ATOM      2  C   UNL     1       3.382   2.981  19.761  0.00  0.00    +0.000 C 
ATOM      3  C   UNL     1       2.153   3.177  20.641  0.00  0.00    +0.000 C 
ATOM      4  C   UNL     1       2.156   4.577  21.242  0.00  0.00    +0.000 C 
ATOM      5  C   UNL     1       2.112   5.620  20.119  0.00  0.00    +0.000 C 
ATOM      6  C   UNL     1       3.306   5.362  19.150  0.00  0.00    +0.000 C 
ENDROOT
BRANCH   5   7
ATOM      7  N   UNL     1       2.236   6.984  20.668  0.00  0.00    +0.000 N 
ATOM      8  H   UNL     1       3.182   7.191  20.981  0.00  0.00    +0.000 HD
BRANCH   7   9
ATOM      9  C   UNL     1       1.669   8.086  20.017  0.00  0.00    +0.000 A 
ATOM     10  C   UNL     1       1.962   8.281  18.655  0.00  0.00    +0.000 A 
ATOM     11  C   UNL     1       1.507   9.394  17.930  0.00  0.00    +0.000 A 
ATOM     12  C   UNL     1       0.776  10.348  18.640  0.00  0.00    +0.000 A 
ATOM     13  N   UNL     1       0.212  11.539  18.267  0.00  0.00    +0.000 N 
ATOM     14  N   UNL     1      -0.403  12.195  19.268  0.00  0.00    +0.000 NA
ATOM     15  C   UNL     1      -0.222  11.390  20.321  0.00  0.00    +0.000 A 
ATOM     16  C   UNL     1       0.494  10.219  19.989  0.00  0.00    +0.000 A 
ATOM     17  C   UNL     1       0.940   9.080  20.682  0.00  0.00    +0.000 A 
ATOM     18  H   UNL     1       0.216  11.963  17.348  0.00  0.00    +0.000 HD
ENDBRANCH   7   9
ENDBRANCH   5   7
BRANCH   1  19
ATOM     19  C   UNL     1       4.722   3.824  17.894  0.00  0.00    +0.000 C 
BRANCH  19  23
ATOM     20  C   UNL     1       7.799   6.767  18.368  0.00  0.00    +0.000 A 
ATOM     21  C   UNL     1       6.986   6.825  17.244  0.00  0.00    +0.000 A 
ATOM     22  C   UNL     1       5.967   5.884  17.091  0.00  0.00    +0.000 A 
ATOM     23  C   UNL     1       5.794   4.901  18.065  0.00  0.00    +0.000 A 
ATOM     24  N   UNL     1       6.580   4.840  19.172  0.00  0.00    +0.000 NA
ATOM     25  C   UNL     1       7.558   5.767  19.295  0.00  0.00    +0.000 A 
ENDBRANCH  19  23
ENDBRANCH   1  19
TORSDOF 4
ENDMDL
MODEL 5
REMARK VINA RESULT:      -8.2      2.374      6.797
REMARK  Name = 
REMARK  4 active torsions:
REMARK  status: ('A' for Active; 'I' for Inactive)
REMARK    1  A    between atoms: C_4  and  C_5
REMARK    2  A    between atoms: C_5  and  N_6
REMARK    3  A    between atoms: C_10  and  N_11
REMARK    4  A    between atoms: N_11  and  C_12
REMARK                            x       y       z     vdW  Elec       q    Type
REMARK                         _______ _______ _______ _____ _____    ______ ____
ROOT
ATOM      1  N   UNL     1       3.383   4.298  18.957  0.00  0.00    +0.000 NA
ATOM      2  C   UNL     1       2.560   3.388  19.757  0.00  0.00    +0.000 C 
ATOM      3  C   UNL     1       1.183   3.961  20.070  0.00  0.00    +0.000 C 
ATOM      4  C   UNL     1       1.323   5.292  20.799  0.00  0.00    +0.000 C 
ATOM      5  C   UNL     1       2.066   6.293  19.905  0.00  0.00    +0.000 C 
ATOM      6  C   UNL     1       3.434   5.671  19.489  0.00  0.00    +0.000 C 
ENDROOT
BRANCH   5   7
ATOM      7  N   UNL     1       2.322   7.552  20.631  0.00  0.00    +0.000 N 
ATOM      8  H   UNL     1       3.219   7.965  20.386  0.00  0.00    +0.000 HD
BRANCH   7   9
ATOM      9  C   UNL     1       1.334   8.535  20.757  0.00  0.00    +0.000 A 
ATOM     10  C   UNL     1       1.017   9.313  19.629  0.00  0.00    +0.000 A 
ATOM     11  C   UNL     1       0.098  10.373  19.667  0.00  0.00    +0.000 A 
ATOM     12  C   UNL     1      -0.468  10.665  20.910  0.00  0.00    +0.000 A 
ATOM     13  N   UNL     1      -1.362  11.623  21.310  0.00  0.00    +0.000 N 
ATOM     14  N   UNL     1      -1.649  11.594  22.625  0.00  0.00    +0.000 NA
ATOM     15  C   UNL     1      -0.908  10.577  23.080  0.00  0.00    +0.000 A 
ATOM     16  C   UNL     1      -0.161   9.953  22.056  0.00  0.00    +0.000 A 
ATOM     17  C   UNL     1       0.744   8.879  21.980  0.00  0.00    +0.000 A 
ATOM     18  H   UNL     1      -1.808  12.329  20.739  0.00  0.00    +0.000 HD
ENDBRANCH   7   9
ENDBRANCH   5   7
BRANCH   1  19
ATOM     19  C   UNL     1       4.754   3.763  18.737  0.00  0.00    +0.000 C 
BRANCH  19  23
ATOM     20  C   UNL     1       6.791   4.765  15.104  0.00  0.00    +0.000 A 
ATOM     21  C   UNL     1       5.449   4.415  15.043  0.00  0.00    +0.000 A 
ATOM     22  C   UNL     1       4.770   4.108  16.222  0.00  0.00    +0.000 A 
ATOM     23  C   UNL     1       5.458   4.149  17.435  0.00  0.00    +0.000 A 
ATOM     24  N   UNL     1       6.769   4.497  17.506  0.00  0.00    +0.000 NA
ATOM     25  C   UNL     1       7.401   4.793  16.346  0.00  0.00    +0.000 A 
ENDBRANCH  19  23
ENDBRANCH   1  19
TORSDOF 4
ENDMDL
MODEL 6
REMARK VINA RESULT:      -8.1      2.202      6.194
REMARK  Name = 
REMARK  4 active torsions:
REMARK  status: ('A' for Active; 'I' for Inactive)
REMARK    1  A    between atoms: C_4  and  C_5
REMARK    2  A    between atoms: C_5  and  N_6
REMARK    3  A    between atoms: C_10  and  N_11
REMARK    4  A    between atoms: N_11  and  C_12
REMARK                            x       y       z     vdW  Elec       q    Type
REMARK                         _______ _______ _______ _____ _____    ______ ____
ROOT
ATOM      1  N   UNL     1       3.963   4.139  19.014  0.00  0.00    +0.000 NA
ATOM      2  C   UNL     1       3.510   3.110  19.953  0.00  0.00    +0.000 C 
ATOM      3  C   UNL     1       2.064   3.311  20.394  0.00  0.00    +0.000 C 
ATOM      4  C   UNL     1       1.895   4.686  21.027  0.00  0.00    +0.000 C 
ATOM      5  C   UNL     1       2.237   5.772  19.999  0.00  0.00    +0.000 C 
ATOM      6  C   UNL     1       3.678   5.514  19.461  0.00  0.00    +0.000 C 
ENDROOT
BRANCH   5   7
ATOM      7  N   UNL     1       2.199   7.111  20.620  0.00  0.00    +0.000 N 
ATOM      8  H   UNL     1       3.096   7.379  21.017  0.00  0.00    +0.000 HD
BRANCH   7   9
ATOM      9  C   UNL     1       1.587   8.194  19.979  0.00  0.00    +0.000 A 
ATOM     10  C   UNL     1       1.938   8.466  18.644  0.00  0.00    +0.000 A 
ATOM     11  C   UNL     1       1.442   9.572  17.936  0.00  0.00    +0.000 A 
ATOM     12  C   UNL     1       0.605  10.440  18.638  0.00  0.00    +0.000 A 
ATOM     13  N   UNL     1      -0.026  11.601  18.278  0.00  0.00    +0.000 N 
ATOM     14  N   UNL     1      -0.742  12.170  19.266  0.00  0.00    +0.000 NA
ATOM     15  C   UNL     1      -0.559  11.337  20.297  0.00  0.00    +0.000 A 
ATOM     16  C   UNL     1       0.259  10.236  19.963  0.00  0.00    +0.000 A 
ATOM     17  C   UNL     1       0.752   9.105  20.638  0.00  0.00    +0.000 A 
ATOM     18  H   UNL     1      -0.003  12.062  17.377  0.00  0.00    +0.000 HD
ENDBRANCH   7   9
ENDBRANCH   5   7
BRANCH   1  19
ATOM     19  C   UNL     1       5.401   3.981  18.665  0.00  0.00    +0.000 C 
BRANCH  19  23
ATOM     20  C   UNL     1       6.465   4.815  14.600  0.00  0.00    +0.000 A 
ATOM     21  C   UNL     1       7.438   4.933  15.584  0.00  0.00    +0.000 A 
ATOM     22  C   UNL     1       7.107   4.643  16.907  0.00  0.00    +0.000 A 
ATOM     23  C   UNL     1       5.805   4.251  17.215  0.00  0.00    +0.000 A 
ATOM     24  N   UNL     1       4.847   4.126  16.259  0.00  0.00    +0.000 NA
ATOM     25  C   UNL     1       5.197   4.411  14.983  0.00  0.00    +0.000 A 
ENDBRANCH  19  23
ENDBRANCH   1  19
TORSDOF 4
ENDMDL
MODEL 7
REMARK VINA RESULT:      -8.1      2.112      6.159
REMARK  Name = 
REMARK  4 active torsions:
REMARK  status: ('A' for Active; 'I' for Inactive)
REMARK    1  A    between atoms: C_4  and  C_5
REMARK    2  A    between atoms: C_5  and  N_6
REMARK    3  A    between atoms: C_10  and  N_11
REMARK    4  A    between atoms: N_11  and  C_12
REMARK                            x       y       z     vdW  Elec       q    Type
REMARK                         _______ _______ _______ _____ _____    ______ ____
ROOT
ATOM      1  N   UNL     1       3.696   4.233  18.954  0.00  0.00    +0.000 NA
ATOM      2  C   UNL     1       2.956   3.059  19.421  0.00  0.00    +0.000 C 
ATOM      3  C   UNL     1       1.471   3.341  19.624  0.00  0.00    +0.000 C 
ATOM      4  C   UNL     1       1.285   4.485  20.612  0.00  0.00    +0.000 C 
ATOM      5  C   UNL     1       1.943   5.756  20.059  0.00  0.00    +0.000 C 
ATOM      6  C   UNL     1       3.439   5.448  19.747  0.00  0.00    +0.000 C 
ENDROOT
BRANCH   5   7
ATOM      7  N   UNL     1       1.883   6.849  21.049  0.00  0.00    +0.000 N 
ATOM      8  H   UNL     1       2.756   6.956  21.561  0.00  0.00    +0.000 HD
BRANCH   7   9
ATOM      9  C   UNL     1       1.333   8.094  20.727  0.00  0.00    +0.000 A 
ATOM     10  C   UNL     1       1.551   8.608  19.436  0.00  0.00    +0.000 A 
ATOM     11  C   UNL     1       1.110   9.879  19.037  0.00  0.00    +0.000 A 
ATOM     12  C   UNL     1       0.472  10.653  20.007  0.00  0.00    +0.000 A 
ATOM     13  N   UNL     1      -0.054  11.918  19.975  0.00  0.00    +0.000 N 
ATOM     14  N   UNL     1      -0.573  12.329  21.147  0.00  0.00    +0.000 NA
ATOM     15  C   UNL     1      -0.369  11.285  21.958  0.00  0.00    +0.000 A 
ATOM     16  C   UNL     1       0.266  10.207  21.301  0.00  0.00    +0.000 A 
ATOM     17  C   UNL     1       0.697   8.919  21.664  0.00  0.00    +0.000 A 
ATOM     18  H   UNL     1      -0.085  12.554  19.189  0.00  0.00    +0.000 HD
ENDBRANCH   7   9
ENDBRANCH   5   7
BRANCH   1  19
ATOM     19  C   UNL     1       5.156   3.966  18.849  0.00  0.00    +0.000 C 
BRANCH  19  23
ATOM     20  C   UNL     1       7.573   7.251  17.535  0.00  0.00    +0.000 A 
ATOM     21  C   UNL     1       7.938   6.571  18.690  0.00  0.00    +0.000 A 
ATOM     22  C   UNL     1       7.170   5.487  19.115  0.00  0.00    +0.000 A 
ATOM     23  C   UNL     1       6.047   5.115  18.375  0.00  0.00    +0.000 A 
ATOM     24  N   UNL     1       5.686   5.768  17.241  0.00  0.00    +0.000 NA
ATOM     25  C   UNL     1       6.451   6.815  16.851  0.00  0.00    +0.000 A 
ENDBRANCH  19  23
ENDBRANCH   1  19
TORSDOF 4
ENDMDL
MODEL 8
REMARK VINA RESULT:      -8.1      2.039      6.195
REMARK  Name = 
REMARK  4 active torsions:
REMARK  status: ('A' for Active; 'I' for Inactive)
REMARK    1  A    between atoms: C_4  and  C_5
REMARK    2  A    between atoms: C_5  and  N_6
REMARK    3  A    between atoms: C_10  and  N_11
REMARK    4  A    between atoms: N_11  and  C_12
REMARK                            x       y       z     vdW  Elec       q    Type
REMARK                         _______ _______ _______ _____ _____    ______ ____
ROOT
ATOM      1  N   UNL     1       3.680   4.555  17.463  0.00  0.00    +0.000 NA
ATOM      2  C   UNL     1       3.051   3.296  17.867  0.00  0.00    +0.000 C 
ATOM      3  C   UNL     1       1.642   3.492  18.418  0.00  0.00    +0.000 C 
ATOM      4  C   UNL     1       1.671   4.449  19.604  0.00  0.00    +0.000 C 
ATOM      5  C   UNL     1       2.202   5.814  19.151  0.00  0.00    +0.000 C 
ATOM      6  C   UNL     1       3.599   5.612  18.487  0.00  0.00    +0.000 C 
ENDROOT
BRANCH   5   7
ATOM      7  N   UNL     1       2.355   6.724  20.303  0.00  0.00    +0.000 N 
ATOM      8  H   UNL     1       3.331   6.880  20.547  0.00  0.00    +0.000 HD
BRANCH   7   9
ATOM      9  C   UNL     1       1.618   7.909  20.399  0.00  0.00    +0.000 A 
ATOM     10  C   UNL     1       0.835   8.118  21.549  0.00  0.00    +0.000 A 
ATOM     11  C   UNL     1      -0.001   9.234  21.710  0.00  0.00    +0.000 A 
ATOM     12  C   UNL     1      -0.065  10.127  20.639  0.00  0.00    +0.000 A 
ATOM     13  N   UNL     1      -0.775  11.282  20.446  0.00  0.00    +0.000 N 
ATOM     14  N   UNL     1      -0.579  11.856  19.244  0.00  0.00    +0.000 NA
ATOM     15  C   UNL     1       0.291  11.034  18.648  0.00  0.00    +0.000 A 
ATOM     16  C   UNL     1       0.658   9.947  19.472  0.00  0.00    +0.000 A 
ATOM     17  C   UNL     1       1.506   8.832  19.351  0.00  0.00    +0.000 A 
ATOM     18  H   UNL     1      -1.416  11.728  21.090  0.00  0.00    +0.000 HD
ENDBRANCH   7   9
ENDBRANCH   5   7
BRANCH   1  19
ATOM     19  C   UNL     1       5.084   4.358  17.014  0.00  0.00    +0.000 C 
BRANCH  19  23
ATOM     20  C   UNL     1       8.132   6.891  18.641  0.00  0.00    +0.000 A 
ATOM     21  C   UNL     1       7.460   7.303  17.498  0.00  0.00    +0.000 A 
ATOM     22  C   UNL     1       6.452   6.496  16.972  0.00  0.00    +0.000 A 
ATOM     23  C   UNL     1       6.147   5.288  17.601  0.00  0.00    +0.000 A 
ATOM     24  N   UNL     1       6.793   4.880  18.724  0.00  0.00    +0.000 NA
ATOM     25  C   UNL     1       7.765   5.685  19.213  0.00  0.00    +0.000 A 
ENDBRANCH  19  23
ENDBRANCH   1  19
TORSDOF 4
ENDMDL
MODEL 9
REMARK VINA RESULT:      -8.0      2.328      6.679
REMARK  Name = 
REMARK  4 active torsions:
REMARK  status: ('A' for Active; 'I' for Inactive)
REMARK    1  A    between atoms: C_4  and  C_5
REMARK    2  A    between atoms: C_5  and  N_6
REMARK    3  A    between atoms: C_10  and  N_11
REMARK    4  A    between atoms: N_11  and  C_12
REMARK                            x       y       z     vdW  Elec       q    Type
REMARK                         _______ _______ _______ _____ _____    ______ ____
ROOT
ATOM      1  N   UNL     1       3.539   4.484  18.797  0.00  0.00    +0.000 NA
ATOM      2  C   UNL     1       2.715   3.391  19.318  0.00  0.00    +0.000 C 
ATOM      3  C   UNL     1       1.278   3.817  19.596  0.00  0.00    +0.000 C 
ATOM      4  C   UNL     1       1.256   4.981  20.577  0.00  0.00    +0.000 C 
ATOM      5  C   UNL     1       2.002   6.177  19.975  0.00  0.00    +0.000 C 
ATOM      6  C   UNL     1       3.443   5.725  19.587  0.00  0.00    +0.000 C 
ENDROOT
BRANCH   5   7
ATOM      7  N   UNL     1       2.101   7.279  20.952  0.00  0.00    +0.000 N 
ATOM      8  H   UNL     1       3.066   7.527  21.159  0.00  0.00    +0.000 HD
BRANCH   7   9
ATOM      9  C   UNL     1       1.299   8.420  20.848  0.00  0.00    +0.000 A 
ATOM     10  C   UNL     1       0.593   8.848  21.987  0.00  0.00    +0.000 A 
ATOM     11  C   UNL     1      -0.297   9.934  21.969  0.00  0.00    +0.000 A 
ATOM     12  C   UNL     1      -0.497  10.558  20.737  0.00  0.00    +0.000 A 
ATOM     13  N   UNL     1      -1.292  11.607  20.356  0.00  0.00    +0.000 N 
ATOM     14  N   UNL     1      -1.223  11.903  19.045  0.00  0.00    +0.000 NA
ATOM     15  C   UNL     1      -0.350  11.007  18.572  0.00  0.00    +0.000 A 
ATOM     16  C   UNL     1       0.145  10.152  19.581  0.00  0.00    +0.000 A 
ATOM     17  C   UNL     1       1.051   9.077  19.635  0.00  0.00    +0.000 A 
ATOM     18  H   UNL     1      -1.909  12.157  20.939  0.00  0.00    +0.000 HD
ENDBRANCH   7   9
ENDBRANCH   5   7
BRANCH   1  19
ATOM     19  C   UNL     1       4.958   4.076  18.619  0.00  0.00    +0.000 C 
BRANCH  19  23
ATOM     20  C   UNL     1       6.790   4.665  14.791  0.00  0.00    +0.000 A 
ATOM     21  C   UNL     1       5.436   4.360  14.844  0.00  0.00    +0.000 A 
ATOM     22  C   UNL     1       4.825   4.188  16.086  0.00  0.00    +0.000 A 
ATOM     23  C   UNL     1       5.590   4.316  17.246  0.00  0.00    +0.000 A 
ATOM     24  N   UNL     1       6.913   4.621  17.205  0.00  0.00    +0.000 NA
ATOM     25  C   UNL     1       7.478   4.785  15.986  0.00  0.00    +0.000 A 
ENDBRANCH  19  23
ENDBRANCH   1  19
TORSDOF 4
ENDMDL
