MODEL 1
REMARK VINA RESULT:      -7.6      0.000      0.000
REMARK  Name = 
REMARK  6 active torsions:
REMARK  status: ('A' for Active; 'I' for Inactive)
REMARK    1  A    between atoms: C_1  and  C_2
REMARK    2  A    between atoms: C_2  and  C_3
REMARK    3  A    between atoms: C_2  and  C_4
REMARK    4  A    between atoms: C_4  and  N_5
REMARK    5  A    between atoms: C_9  and  C_10
REMARK    6  A    between atoms: C_15  and  C_16
REMARK                            x       y       z     vdW  Elec       q    Type
REMARK                         _______ _______ _______ _____ _____    ______ ____
ROOT
ATOM      1  C   UNL     1       2.934   4.567  18.386  0.00  0.00    +0.000 A 
ATOM      2  C   UNL     1       1.895   3.624  18.233  0.00  0.00    +0.000 A 
ATOM      3  C   UNL     1       2.171   2.359  17.751  0.00  0.00    +0.000 A 
ATOM      4  N   UNL     1       3.405   1.961  17.425  0.00  0.00    +0.000 NA
ATOM      5  C   UNL     1       4.399   2.873  17.571  0.00  0.00    +0.000 A 
ATOM      6  C   UNL     1       4.258   4.197  18.017  0.00  0.00    +0.000 A 
ENDROOT
BRANCH   1  11
ATOM      7  N   UNL     1       1.405   8.535  21.357  0.00  0.00    +0.000 N 
ATOM      8  C   UNL     1       1.863   7.765  20.342  0.00  0.00    +0.000 A 
ATOM      9  N   UNL     1       2.133   8.195  19.133  0.00  0.00    +0.000 NA
ATOM     10  C   UNL     1       2.518   7.141  18.324  0.00  0.00    +0.000 A 
ATOM     11  C   UNL     1       2.562   5.895  18.921  0.00  0.00    +0.000 A 
ATOM     12  S   UNL     1       2.113   6.082  20.580  0.00  0.00    +0.000 S 
ATOM     13  H   UNL     1       0.958   8.040  22.121  0.00  0.00    +0.000 HD
BRANCH   7  14
ATOM     14  C   UNL     1       0.825   9.825  21.020  0.00  0.00    +0.000 C 
BRANCH  14  16
ATOM     15  C   UNL     1      -0.175   9.547  23.340  0.00  0.00    +0.000 C 
ATOM     16  C   UNL     1      -0.357  10.154  21.947  0.00  0.00    +0.000 C 
ATOM     17  C   UNL     1      -0.523  11.671  22.059  0.00  0.00    +0.000 C 
ENDBRANCH  14  16
ENDBRANCH   7  14
ENDBRANCH   1  11
BRANCH   6  18
ATOM     18  C   UNL     1       5.471   5.070  18.119  0.00  0.00    +0.000 A 
ATOM     19  C   UNL     1       6.292   5.000  19.266  0.00  0.00    +0.000 A 
ATOM     20  C   UNL     1       7.400   5.835  19.447  0.00  0.00    +0.000 A 
ATOM     21  C   UNL     1       7.789   6.703  18.439  0.00  0.00    +0.000 A 
ATOM     22  C   UNL     1       7.048   6.759  17.265  0.00  0.00    +0.000 A 
ATOM     23  C   UNL     1       5.886   5.984  17.116  0.00  0.00    +0.000 A 
ATOM     24 CL   UNL     1       4.989   6.281  15.660  0.00  0.00    +0.000 Cl
ENDBRANCH   6  18
TORSDOF 4
ENDMDL
MODEL 2
REMARK VINA RESULT:      -7.4      1.055      1.329
REMARK  Name = 
REMARK  6 active torsions:
REMARK  status: ('A' for Active; 'I' for Inactive)
REMARK    1  A    between atoms: C_1  and  C_2
REMARK    2  A    between atoms: C_2  and  C_3
REMARK    3  A    between atoms: C_2  and  C_4
REMARK    4  A    between atoms: C_4  and  N_5
REMARK    5  A    between atoms: C_9  and  C_10
REMARK    6  A    between atoms: C_15  and  C_16
REMARK                            x       y       z     vdW  Elec       q    Type
REMARK                         _______ _______ _______ _____ _____    ______ ____
ROOT
ATOM      1  C   UNL     1       2.728   4.580  18.417  0.00  0.00    +0.000 A 
ATOM      2  C   UNL     1       1.636   3.684  18.391  0.00  0.00    +0.000 A 
ATOM      3  C   UNL     1       1.840   2.349  18.104  0.00  0.00    +0.000 A 
ATOM      4  N   UNL     1       3.050   1.838  17.855  0.00  0.00    +0.000 NA
ATOM      5  C   UNL     1       4.095   2.704  17.878  0.00  0.00    +0.000 A 
ATOM      6  C   UNL     1       4.029   4.085  18.123  0.00  0.00    +0.000 A 
ENDROOT
BRANCH   1  11
ATOM      7  N   UNL     1       1.196   8.995  20.669  0.00  0.00    +0.000 N 
ATOM      8  C   UNL     1       1.726   8.072  19.833  0.00  0.00    +0.000 A 
ATOM      9  N   UNL     1       2.250   8.331  18.659  0.00  0.00    +0.000 NA
ATOM     10  C   UNL     1       2.640   7.159  18.038  0.00  0.00    +0.000 A 
ATOM     11  C   UNL     1       2.430   5.991  18.747  0.00  0.00    +0.000 A 
ATOM     12  S   UNL     1       1.728   6.410  20.270  0.00  0.00    +0.000 S 
ATOM     13  H   UNL     1       0.568   8.639  21.381  0.00  0.00    +0.000 HD
BRANCH   7  14
ATOM     14  C   UNL     1       0.841  10.290  20.111  0.00  0.00    +0.000 C 
BRANCH  14  16
ATOM     15  C   UNL     1      -1.313  11.609  20.391  0.00  0.00    +0.000 C 
ATOM     16  C   UNL     1      -0.662  10.359  19.796  0.00  0.00    +0.000 C 
ATOM     17  C   UNL     1      -0.877  10.332  18.281  0.00  0.00    +0.000 C 
ENDBRANCH  14  16
ENDBRANCH   7  14
ENDBRANCH   1  11
BRANCH   6  18
ATOM     18  C   UNL     1       5.290   4.893  18.111  0.00  0.00    +0.000 A 
ATOM     19  C   UNL     1       6.037   5.048  19.300  0.00  0.00    +0.000 A 
ATOM     20  C   UNL     1       7.187   5.843  19.365  0.00  0.00    +0.000 A 
ATOM     21  C   UNL     1       7.691   6.433  18.217  0.00  0.00    +0.000 A 
ATOM     22  C   UNL     1       7.024   6.255  17.011  0.00  0.00    +0.000 A 
ATOM     23  C   UNL     1       5.823   5.528  16.959  0.00  0.00    +0.000 A 
ATOM     24 CL   UNL     1       5.033   5.528  15.414  0.00  0.00    +0.000 Cl
ENDBRANCH   6  18
TORSDOF 4
ENDMDL
MODEL 3
REMARK VINA RESULT:      -7.2      2.229      2.765
REMARK  Name = 
REMARK  6 active torsions:
REMARK  status: ('A' for Active; 'I' for Inactive)
REMARK    1  A    between atoms: C_1  and  C_2
REMARK    2  A    between atoms: C_2  and  C_3
REMARK    3  A    between atoms: C_2  and  C_4
REMARK    4  A    between atoms: C_4  and  N_5
REMARK    5  A    between atoms: C_9  and  C_10
REMARK    6  A    between atoms: C_15  and  C_16
REMARK                            x       y       z     vdW  Elec       q    Type
REMARK                         _______ _______ _______ _____ _____    ______ ____
ROOT
ATOM      1  C   UNL     1       3.064   4.782  19.689  0.00  0.00    +0.000 A 
ATOM      2  C   UNL     1       2.360   4.228  20.780  0.00  0.00    +0.000 A 
ATOM      3  C   UNL     1       2.677   2.966  21.242  0.00  0.00    +0.000 A 
ATOM      4  N   UNL     1       3.651   2.222  20.708  0.00  0.00    +0.000 NA
ATOM      5  C   UNL     1       4.322   2.759  19.658  0.00  0.00    +0.000 A 
ATOM      6  C   UNL     1       4.086   4.011  19.067  0.00  0.00    +0.000 A 
ENDROOT
BRANCH   1  11
ATOM      7  N   UNL     1       1.221   9.623  19.410  0.00  0.00    +0.000 N 
ATOM      8  C   UNL     1       1.824   8.440  19.151  0.00  0.00    +0.000 A 
ATOM      9  N   UNL     1       2.359   8.102  18.002  0.00  0.00    +0.000 NA
ATOM     10  C   UNL     1       2.832   6.804  18.057  0.00  0.00    +0.000 A 
ATOM     11  C   UNL     1       2.676   6.144  19.262  0.00  0.00    +0.000 A 
ATOM     12  S   UNL     1       1.914   7.231  20.369  0.00  0.00    +0.000 S 
ATOM     13  H   UNL     1       0.598   9.637  20.210  0.00  0.00    +0.000 HD
BRANCH   7  14
ATOM     14  C   UNL     1       0.803  10.433  18.276  0.00  0.00    +0.000 C 
BRANCH  14  16
ATOM     15  C   UNL     1      -1.666  10.157  17.740  0.00  0.00    +0.000 C 
ATOM     16  C   UNL     1      -0.617  10.983  18.488  0.00  0.00    +0.000 C 
ATOM     17  C   UNL     1      -0.946  11.010  19.982  0.00  0.00    +0.000 C 
ENDBRANCH  14  16
ENDBRANCH   7  14
ENDBRANCH   1  11
BRANCH   6  18
ATOM     18  C   UNL     1       4.928   4.447  17.908  0.00  0.00    +0.000 A 
ATOM     19  C   UNL     1       4.514   4.158  16.590  0.00  0.00    +0.000 A 
ATOM     20  C   UNL     1       5.289   4.482  15.471  0.00  0.00    +0.000 A 
ATOM     21  C   UNL     1       6.465   5.201  15.625  0.00  0.00    +0.000 A 
ATOM     22  C   UNL     1       6.879   5.564  16.900  0.00  0.00    +0.000 A 
ATOM     23  C   UNL     1       6.146   5.164  18.030  0.00  0.00    +0.000 A 
ATOM     24 CL   UNL     1       6.876   5.561  19.555  0.00  0.00    +0.000 Cl
ENDBRANCH   6  18
TORSDOF 4
ENDMDL
MODEL 4
REMARK VINA RESULT:      -7.1      2.267      2.635
REMARK  Name = 
REMARK  6 active torsions:
REMARK  status: ('A' for Active; 'I' for Inactive)
REMARK    1  A    between atoms: C_1  and  C_2
REMARK    2  A    between atoms: C_2  and  C_3
REMARK    3  A    between atoms: C_2  and  C_4
REMARK    4  A    between atoms: C_4  and  N_5
REMARK    5  A    between atoms: C_9  and  C_10
REMARK    6  A    between atoms: C_15  and  C_16
REMARK                            x       y       z     vdW  Elec       q    Type
REMARK                         _______ _______ _______ _____ _____    ______ ____
ROOT
ATOM      1  C   UNL     1       2.774   4.854  20.064  0.00  0.00    +0.000 A 
ATOM      2  C   UNL     1       1.873   4.237  20.959  0.00  0.00    +0.000 A 
ATOM      3  C   UNL     1       2.146   2.982  21.464  0.00  0.00    +0.000 A 
ATOM      4  N   UNL     1       3.255   2.301  21.156  0.00  0.00    +0.000 NA
ATOM      5  C   UNL     1       4.116   2.897  20.293  0.00  0.00    +0.000 A 
ATOM      6  C   UNL     1       3.951   4.151  19.680  0.00  0.00    +0.000 A 
ENDROOT
BRANCH   1  11
ATOM      7  N   UNL     1       1.117   9.747  19.597  0.00  0.00    +0.000 N 
ATOM      8  C   UNL     1       1.657   8.526  19.377  0.00  0.00    +0.000 A 
ATOM      9  N   UNL     1       2.112   8.100  18.223  0.00  0.00    +0.000 NA
ATOM     10  C   UNL     1       2.535   6.787  18.330  0.00  0.00    +0.000 A 
ATOM     11  C   UNL     1       2.419   6.205  19.578  0.00  0.00    +0.000 A 
ATOM     12  S   UNL     1       1.765   7.386  20.658  0.00  0.00    +0.000 S 
ATOM     13  H   UNL     1       0.541   9.834  20.427  0.00  0.00    +0.000 HD
BRANCH   7  14
ATOM     14  C   UNL     1       0.670  10.508  18.441  0.00  0.00    +0.000 C 
BRANCH  14  16
ATOM     15  C   UNL     1      -1.184  12.246  18.395  0.00  0.00    +0.000 C 
ATOM     16  C   UNL     1      -0.846  10.757  18.501  0.00  0.00    +0.000 C 
ATOM     17  C   UNL     1      -1.544   9.985  17.379  0.00  0.00    +0.000 C 
ENDBRANCH  14  16
ENDBRANCH   7  14
ENDBRANCH   1  11
BRANCH   6  18
ATOM     18  C   UNL     1       5.008   4.658  18.749  0.00  0.00    +0.000 A 
ATOM     19  C   UNL     1       6.112   5.373  19.262  0.00  0.00    +0.000 A 
ATOM     20  C   UNL     1       7.098   5.926  18.436  0.00  0.00    +0.000 A 
ATOM     21  C   UNL     1       7.069   5.697  17.070  0.00  0.00    +0.000 A 
ATOM     22  C   UNL     1       6.035   4.943  16.527  0.00  0.00    +0.000 A 
ATOM     23  C   UNL     1       4.999   4.459  17.344  0.00  0.00    +0.000 A 
ATOM     24 CL   UNL     1       3.705   3.672  16.496  0.00  0.00    +0.000 Cl
ENDBRANCH   6  18
TORSDOF 4
ENDMDL
MODEL 5
REMARK VINA RESULT:      -7.1      2.362      4.036
REMARK  Name = 
REMARK  6 active torsions:
REMARK  status: ('A' for Active; 'I' for Inactive)
REMARK    1  A    between atoms: C_1  and  C_2
REMARK    2  A    between atoms: C_2  and  C_3
REMARK    3  A    between atoms: C_2  and  C_4
REMARK    4  A    between atoms: C_4  and  N_5
REMARK    5  A    between atoms: C_9  and  C_10
REMARK    6  A    between atoms: C_15  and  C_16
REMARK                            x       y       z     vdW  Elec       q    Type
REMARK                         _______ _______ _______ _____ _____    ______ ____
ROOT
ATOM      1  C   UNL     1       3.782   6.178  17.500  0.00  0.00    +0.000 A 
ATOM      2  C   UNL     1       4.689   6.880  16.676  0.00  0.00    +0.000 A 
ATOM      3  C   UNL     1       5.476   6.196  15.771  0.00  0.00    +0.000 A 
ATOM      4  N   UNL     1       5.416   4.869  15.615  0.00  0.00    +0.000 NA
ATOM      5  C   UNL     1       4.545   4.200  16.411  0.00  0.00    +0.000 A 
ATOM      6  C   UNL     1       3.711   4.761  17.392  0.00  0.00    +0.000 A 
ENDROOT
BRANCH   1  11
ATOM      7  N   UNL     1       0.894   9.841  19.770  0.00  0.00    +0.000 N 
ATOM      8  C   UNL     1       1.578   8.708  19.486  0.00  0.00    +0.000 A 
ATOM      9  N   UNL     1       1.778   7.719  20.323  0.00  0.00    +0.000 NA
ATOM     10  C   UNL     1       2.568   6.747  19.737  0.00  0.00    +0.000 A 
ATOM     11  C   UNL     1       2.964   6.982  18.434  0.00  0.00    +0.000 A 
ATOM     12  S   UNL     1       2.285   8.491  17.935  0.00  0.00    +0.000 S 
ATOM     13  H   UNL     1       1.073  10.631  19.159  0.00  0.00    +0.000 HD
BRANCH   7  14
ATOM     14  C   UNL     1       0.676  10.168  21.170  0.00  0.00    +0.000 C 
BRANCH  14  16
ATOM     15  C   UNL     1      -1.217  11.534  20.167  0.00  0.00    +0.000 C 
ATOM     16  C   UNL     1      -0.208  11.418  21.311  0.00  0.00    +0.000 C 
ATOM     17  C   UNL     1      -0.944  11.386  22.652  0.00  0.00    +0.000 C 
ENDBRANCH  14  16
ENDBRANCH   7  14
ENDBRANCH   1  11
BRANCH   6  18
ATOM     18  C   UNL     1       2.805   3.868  18.183  0.00  0.00    +0.000 A 
ATOM     19  C   UNL     1       1.429   3.807  17.869  0.00  0.00    +0.000 A 
ATOM     20  C   UNL     1       0.524   3.041  18.612  0.00  0.00    +0.000 A 
ATOM     21  C   UNL     1       0.978   2.226  19.637  0.00  0.00    +0.000 A 
ATOM     22  C   UNL     1       2.334   2.205  19.939  0.00  0.00    +0.000 A 
ATOM     23  C   UNL     1       3.233   3.037  19.251  0.00  0.00    +0.000 A 
ATOM     24 CL   UNL     1       4.862   3.009  19.849  0.00  0.00    +0.000 Cl
ENDBRANCH   6  18
TORSDOF 4
ENDMDL
MODEL 6
REMARK VINA RESULT:      -7.0      2.105      3.924
REMARK  Name = 
REMARK  6 active torsions:
REMARK  status: ('A' for Active; 'I' for Inactive)
REMARK    1  A    between atoms: C_1  and  C_2
REMARK    2  A    between atoms: C_2  and  C_3
REMARK    3  A    between atoms: C_2  and  C_4
REMARK    4  A    between atoms: C_4  and  N_5
REMARK    5  A    between atoms: C_9  and  C_10
REMARK    6  A    between atoms: C_15  and  C_16
REMARK                            x       y       z     vdW  Elec       q    Type
REMARK                         _______ _______ _______ _____ _____    ______ ____
ROOT
ATOM      1  C   UNL     1       4.039   5.962  17.341  0.00  0.00    +0.000 A 
ATOM      2  C   UNL     1       5.066   6.543  16.565  0.00  0.00    +0.000 A 
ATOM      3  C   UNL     1       5.901   5.745  15.809  0.00  0.00    +0.000 A 
ATOM      4  N   UNL     1       5.781   4.414  15.757  0.00  0.00    +0.000 NA
ATOM      5  C   UNL     1       4.795   3.861  16.507  0.00  0.00    +0.000 A 
ATOM      6  C   UNL     1       3.898   4.546  17.344  0.00  0.00    +0.000 A 
ENDROOT
BRANCH   1  11
ATOM      7  N   UNL     1       1.146   8.275  20.973  0.00  0.00    +0.000 N 
ATOM      8  C   UNL     1       1.834   7.979  19.846  0.00  0.00    +0.000 A 
ATOM      9  N   UNL     1       1.850   8.712  18.758  0.00  0.00    +0.000 NA
ATOM     10  C   UNL     1       2.599   8.093  17.774  0.00  0.00    +0.000 A 
ATOM     11  C   UNL     1       3.177   6.884  18.112  0.00  0.00    +0.000 A 
ATOM     12  S   UNL     1       2.765   6.538  19.755  0.00  0.00    +0.000 S 
ATOM     13  H   UNL     1       0.975   7.500  21.604  0.00  0.00    +0.000 HD
BRANCH   7  14
ATOM     14  C   UNL     1       0.072   9.251  20.874  0.00  0.00    +0.000 C 
BRANCH  14  16
ATOM     15  C   UNL     1      -0.796  11.448  21.810  0.00  0.00    +0.000 C 
ATOM     16  C   UNL     1       0.132  10.253  22.038  0.00  0.00    +0.000 C 
ATOM     17  C   UNL     1      -0.236   9.552  23.347  0.00  0.00    +0.000 C 
ENDBRANCH  14  16
ENDBRANCH   7  14
ENDBRANCH   1  11
BRANCH   6  18
ATOM     18  C   UNL     1       2.865   3.771  18.103  0.00  0.00    +0.000 A 
ATOM     19  C   UNL     1       1.505   3.867  17.737  0.00  0.00    +0.000 A 
ATOM     20  C   UNL     1       0.489   3.218  18.448  0.00  0.00    +0.000 A 
ATOM     21  C   UNL     1       0.807   2.366  19.494  0.00  0.00    +0.000 A 
ATOM     22  C   UNL     1       2.139   2.190  19.848  0.00  0.00    +0.000 A 
ATOM     23  C   UNL     1       3.154   2.907  19.191  0.00  0.00    +0.000 A 
ATOM     24 CL   UNL     1       4.745   2.696  19.852  0.00  0.00    +0.000 Cl
ENDBRANCH   6  18
TORSDOF 4
ENDMDL
MODEL 7
REMARK VINA RESULT:      -6.9      1.029      1.222
REMARK  Name = 
REMARK  6 active torsions:
REMARK  status: ('A' for Active; 'I' for Inactive)
REMARK    1  A    between atoms: C_1  and  C_2
REMARK    2  A    between atoms: C_2  and  C_3
REMARK    3  A    between atoms: C_2  and  C_4
REMARK    4  A    between atoms: C_4  and  N_5
REMARK    5  A    between atoms: C_9  and  C_10
REMARK    6  A    between atoms: C_15  and  C_16
REMARK                            x       y       z     vdW  Elec       q    Type
REMARK                         _______ _______ _______ _____ _____    ______ ____
ROOT
ATOM      1  C   UNL     1       2.695   4.381  18.608  0.00  0.00    +0.000 A 
ATOM      2  C   UNL     1       1.594   3.501  18.697  0.00  0.00    +0.000 A 
ATOM      3  C   UNL     1       1.770   2.146  18.497  0.00  0.00    +0.000 A 
ATOM      4  N   UNL     1       2.962   1.601  18.230  0.00  0.00    +0.000 NA
ATOM      5  C   UNL     1       4.015   2.452  18.142  0.00  0.00    +0.000 A 
ATOM      6  C   UNL     1       3.976   3.848  18.289  0.00  0.00    +0.000 A 
ENDROOT
BRANCH   1  11
ATOM      7  N   UNL     1       1.322   8.966  20.607  0.00  0.00    +0.000 N 
ATOM      8  C   UNL     1       1.800   7.979  19.814  0.00  0.00    +0.000 A 
ATOM      9  N   UNL     1       2.266   8.146  18.600  0.00  0.00    +0.000 NA
ATOM     10  C   UNL     1       2.612   6.927  18.047  0.00  0.00    +0.000 A 
ATOM     11  C   UNL     1       2.428   5.815  18.849  0.00  0.00    +0.000 A 
ATOM     12  S   UNL     1       1.808   6.353  20.370  0.00  0.00    +0.000 S 
ATOM     13  H   UNL     1       0.727   8.670  21.373  0.00  0.00    +0.000 HD
BRANCH   7  14
ATOM     14  C   UNL     1       0.952  10.223  19.975  0.00  0.00    +0.000 C 
BRANCH  14  16
ATOM     15  C   UNL     1       1.303  12.631  20.707  0.00  0.00    +0.000 C 
ATOM     16  C   UNL     1       0.631  11.294  21.029  0.00  0.00    +0.000 C 
ATOM     17  C   UNL     1      -0.883  11.486  21.132  0.00  0.00    +0.000 C 
ENDBRANCH  14  16
ENDBRANCH   7  14
ENDBRANCH   1  11
BRANCH   6  18
ATOM     18  C   UNL     1       5.243   4.636  18.161  0.00  0.00    +0.000 A 
ATOM     19  C   UNL     1       5.960   5.007  19.319  0.00  0.00    +0.000 A 
ATOM     20  C   UNL     1       7.115   5.796  19.266  0.00  0.00    +0.000 A 
ATOM     21  C   UNL     1       7.652   6.161  18.041  0.00  0.00    +0.000 A 
ATOM     22  C   UNL     1       7.015   5.763  16.872  0.00  0.00    +0.000 A 
ATOM     23  C   UNL     1       5.809   5.043  16.925  0.00  0.00    +0.000 A 
ATOM     24 CL   UNL     1       5.059   4.757  15.386  0.00  0.00    +0.000 Cl
ENDBRANCH   6  18
TORSDOF 4
ENDMDL
MODEL 8
REMARK VINA RESULT:      -6.9      2.437      4.125
REMARK  Name = 
REMARK  6 active torsions:
REMARK  status: ('A' for Active; 'I' for Inactive)
REMARK    1  A    between atoms: C_1  and  C_2
REMARK    2  A    between atoms: C_2  and  C_3
REMARK    3  A    between atoms: C_2  and  C_4
REMARK    4  A    between atoms: C_4  and  N_5
REMARK    5  A    between atoms: C_9  and  C_10
REMARK    6  A    between atoms: C_15  and  C_16
REMARK                            x       y       z     vdW  Elec       q    Type
REMARK                         _______ _______ _______ _____ _____    ______ ____
ROOT
ATOM      1  C   UNL     1       4.052   6.145  18.220  0.00  0.00    +0.000 A 
ATOM      2  C   UNL     1       5.092   6.636  17.401  0.00  0.00    +0.000 A 
ATOM      3  C   UNL     1       6.063   5.779  16.922  0.00  0.00    +0.000 A 
ATOM      4  N   UNL     1       6.066   4.468  17.186  0.00  0.00    +0.000 NA
ATOM      5  C   UNL     1       5.066   4.002  17.976  0.00  0.00    +0.000 A 
ATOM      6  C   UNL     1       4.037   4.762  18.556  0.00  0.00    +0.000 A 
ENDROOT
BRANCH   1  11
ATOM      7  N   UNL     1       0.759  10.127  18.675  0.00  0.00    +0.000 N 
ATOM      8  C   UNL     1       1.471   8.993  18.875  0.00  0.00    +0.000 A 
ATOM      9  N   UNL     1       1.439   8.264  19.964  0.00  0.00    +0.000 NA
ATOM     10  C   UNL     1       2.331   7.212  19.864  0.00  0.00    +0.000 A 
ATOM     11  C   UNL     1       3.043   7.122  18.682  0.00  0.00    +0.000 A 
ATOM     12  S   UNL     1       2.536   8.417  17.655  0.00  0.00    +0.000 S 
ATOM     13  H   UNL     1       1.098  10.740  17.942  0.00  0.00    +0.000 HD
BRANCH   7  14
ATOM     14  C   UNL     1       0.206  10.793  19.845  0.00  0.00    +0.000 C 
BRANCH  14  16
ATOM     15  C   UNL     1      -0.934  12.895  18.985  0.00  0.00    +0.000 C 
ATOM     16  C   UNL     1      -1.132  11.471  19.508  0.00  0.00    +0.000 C 
ATOM     17  C   UNL     1      -1.891  10.638  18.473  0.00  0.00    +0.000 C 
ENDBRANCH  14  16
ENDBRANCH   7  14
ENDBRANCH   1  11
BRANCH   6  18
ATOM     18  C   UNL     1       3.010   4.079  19.405  0.00  0.00    +0.000 A 
ATOM     19  C   UNL     1       3.336   3.682  20.720  0.00  0.00    +0.000 A 
ATOM     20  C   UNL     1       2.440   2.984  21.538  0.00  0.00    +0.000 A 
ATOM     21  C   UNL     1       1.145   2.745  21.105  0.00  0.00    +0.000 A 
ATOM     22  C   UNL     1       0.760   3.175  19.841  0.00  0.00    +0.000 A 
ATOM     23  C   UNL     1       1.683   3.800  18.986  0.00  0.00    +0.000 A 
ATOM     24 CL   UNL     1       1.092   4.136  17.390  0.00  0.00    +0.000 Cl
ENDBRANCH   6  18
TORSDOF 4
ENDMDL
MODEL 9
REMARK VINA RESULT:      -6.8      2.318      2.882
REMARK  Name = 
REMARK  6 active torsions:
REMARK  status: ('A' for Active; 'I' for Inactive)
REMARK    1  A    between atoms: C_1  and  C_2
REMARK    2  A    between atoms: C_2  and  C_3
REMARK    3  A    between atoms: C_2  and  C_4
REMARK    4  A    between atoms: C_4  and  N_5
REMARK    5  A    between atoms: C_9  and  C_10
REMARK    6  A    between atoms: C_15  and  C_16
REMARK                            x       y       z     vdW  Elec       q    Type
REMARK                         _______ _______ _______ _____ _____    ______ ____
ROOT
ATOM      1  C   UNL     1       3.078   4.810  19.730  0.00  0.00    +0.000 A 
ATOM      2  C   UNL     1       2.380   4.232  20.813  0.00  0.00    +0.000 A 
ATOM      3  C   UNL     1       2.684   2.951  21.231  0.00  0.00    +0.000 A 
ATOM      4  N   UNL     1       3.639   2.210  20.659  0.00  0.00    +0.000 NA
ATOM      5  C   UNL     1       4.304   2.769  19.617  0.00  0.00    +0.000 A 
ATOM      6  C   UNL     1       4.078   4.042  19.069  0.00  0.00    +0.000 A 
ENDROOT
BRANCH   1  11
ATOM      7  N   UNL     1       1.192   9.640  19.581  0.00  0.00    +0.000 N 
ATOM      8  C   UNL     1       1.832   8.480  19.304  0.00  0.00    +0.000 A 
ATOM      9  N   UNL     1       2.461   8.215  18.184  0.00  0.00    +0.000 NA
ATOM     10  C   UNL     1       2.947   6.920  18.202  0.00  0.00    +0.000 A 
ATOM     11  C   UNL     1       2.705   6.190  19.351  0.00  0.00    +0.000 A 
ATOM     12  S   UNL     1       1.842   7.203  20.454  0.00  0.00    +0.000 S 
ATOM     13  H   UNL     1       0.507   9.601  20.328  0.00  0.00    +0.000 HD
BRANCH   7  14
ATOM     14  C   UNL     1       0.854  10.510  18.465  0.00  0.00    +0.000 C 
BRANCH  14  16
ATOM     15  C   UNL     1       2.183  12.669  18.284  0.00  0.00    +0.000 C 
ATOM     16  C   UNL     1       0.946  11.989  18.875  0.00  0.00    +0.000 C 
ATOM     17  C   UNL     1      -0.317  12.730  18.432  0.00  0.00    +0.000 C 
ENDBRANCH  14  16
ENDBRANCH   7  14
ENDBRANCH   1  11
BRANCH   6  18
ATOM     18  C   UNL     1       4.911   4.502  17.912  0.00  0.00    +0.000 A 
ATOM     19  C   UNL     1       4.481   4.247  16.592  0.00  0.00    +0.000 A 
ATOM     20  C   UNL     1       5.247   4.595  15.473  0.00  0.00    +0.000 A 
ATOM     21  C   UNL     1       6.428   5.303  15.631  0.00  0.00    +0.000 A 
ATOM     22  C   UNL     1       6.858   5.633  16.911  0.00  0.00    +0.000 A 
ATOM     23  C   UNL     1       6.134   5.210  18.039  0.00  0.00    +0.000 A 
ATOM     24 CL   UNL     1       6.882   5.566  19.564  0.00  0.00    +0.000 Cl
ENDBRANCH   6  18
TORSDOF 4
ENDMDL
