MODEL 1
REMARK VINA RESULT:      -7.3      0.000      0.000
REMARK  Name = 
REMARK  2 active torsions:
REMARK  status: ('A' for Active; 'I' for Inactive)
REMARK    1  A    between atoms: C_4  and  C_5
REMARK    2  A    between atoms: C_16  and  O_17
REMARK                            x       y       z     vdW  Elec       q    Type
REMARK                         _______ _______ _______ _____ _____    ______ ____
ROOT
ATOM      1  O   UNL     1       4.427   7.222  16.980  0.00  0.00    +0.000 OA
ATOM      2  C   UNL     1       3.557   6.821  17.737  0.00  0.00    +0.000 C 
ATOM      3  C   UNL     1       2.581   7.715  18.404  0.00  0.00    +0.000 C 
ATOM      4  C   UNL     1       2.144   8.800  17.743  0.00  0.00    +0.000 C 
ATOM      5  C   UNL     1       2.172   7.212  19.751  0.00  0.00    +0.000 C 
ATOM      6  O   UNL     1       1.596   5.904  19.660  0.00  0.00    +0.000 OA
ATOM      7  C   UNL     1       2.359   5.013  18.952  0.00  0.00    +0.000 A 
ATOM      8  C   UNL     1       2.057   3.665  19.141  0.00  0.00    +0.000 A 
ATOM      9  C   UNL     1       2.779   2.702  18.441  0.00  0.00    +0.000 A 
ATOM     10  C   UNL     1       3.799   3.065  17.567  0.00  0.00    +0.000 A 
ATOM     11  C   UNL     1       4.092   4.414  17.362  0.00  0.00    +0.000 A 
ATOM     12  C   UNL     1       3.358   5.388  18.046  0.00  0.00    +0.000 A 
ENDROOT
BRANCH   4  13
ATOM     13  C   UNL     1       1.092   9.657  18.286  0.00  0.00    +0.000 A 
ATOM     14  C   UNL     1       1.364  10.505  19.364  0.00  0.00    +0.000 A 
ATOM     15  C   UNL     1       0.329  11.229  19.957  0.00  0.00    +0.000 A 
ATOM     16  C   UNL     1      -0.967  11.106  19.466  0.00  0.00    +0.000 A 
ATOM     17  F   UNL     1      -1.962  11.780  20.056  0.00  0.00    +0.000 F 
ATOM     18  C   UNL     1      -1.248  10.279  18.383  0.00  0.00    +0.000 A 
ATOM     19  C   UNL     1      -0.215   9.554  17.789  0.00  0.00    +0.000 A 
ENDBRANCH   4  13
BRANCH   9  20
ATOM     20  O   UNL     1       2.503   1.375  18.580  0.00  0.00    +0.000 OA
ATOM     21  H   UNL     1       1.707   1.274  19.128  0.00  0.00    +0.000 HD
ENDBRANCH   9  20
TORSDOF 2
ENDMDL
MODEL 2
REMARK VINA RESULT:      -7.3      0.197      1.100
REMARK  Name = 
REMARK  2 active torsions:
REMARK  status: ('A' for Active; 'I' for Inactive)
REMARK    1  A    between atoms: C_4  and  C_5
REMARK    2  A    between atoms: C_16  and  O_17
REMARK                            x       y       z     vdW  Elec       q    Type
REMARK                         _______ _______ _______ _____ _____    ______ ____
ROOT
ATOM      1  O   UNL     1       4.405   7.345  16.974  0.00  0.00    +0.000 OA
ATOM      2  C   UNL     1       3.568   6.871  17.727  0.00  0.00    +0.000 C 
ATOM      3  C   UNL     1       2.555   7.688  18.435  0.00  0.00    +0.000 C 
ATOM      4  C   UNL     1       2.051   8.770  17.818  0.00  0.00    +0.000 C 
ATOM      5  C   UNL     1       2.191   7.118  19.768  0.00  0.00    +0.000 C 
ATOM      6  O   UNL     1       1.684   5.785  19.639  0.00  0.00    +0.000 OA
ATOM      7  C   UNL     1       2.485   4.961  18.892  0.00  0.00    +0.000 A 
ATOM      8  C   UNL     1       2.257   3.593  19.038  0.00  0.00    +0.000 A 
ATOM      9  C   UNL     1       3.020   2.695  18.297  0.00  0.00    +0.000 A 
ATOM     10  C   UNL     1       4.008   3.142  17.423  0.00  0.00    +0.000 A 
ATOM     11  C   UNL     1       4.226   4.511  17.263  0.00  0.00    +0.000 A 
ATOM     12  C   UNL     1       3.450   5.420  17.988  0.00  0.00    +0.000 A 
ENDROOT
BRANCH   4  13
ATOM     13  C   UNL     1       0.963   9.550  18.402  0.00  0.00    +0.000 A 
ATOM     14  C   UNL     1      -0.301   9.551  17.803  0.00  0.00    +0.000 A 
ATOM     15  C   UNL     1      -1.302  10.390  18.293  0.00  0.00    +0.000 A 
ATOM     16  C   UNL     1      -1.036  11.218  19.378  0.00  0.00    +0.000 A 
ATOM     17  F   UNL     1      -1.990  12.044  19.827  0.00  0.00    +0.000 F 
ATOM     18  C   UNL     1       0.212  11.215  19.995  0.00  0.00    +0.000 A 
ATOM     19  C   UNL     1       1.214  10.377  19.507  0.00  0.00    +0.000 A 
ENDBRANCH   4  13
BRANCH   9  20
ATOM     20  O   UNL     1       2.818   1.351  18.392  0.00  0.00    +0.000 OA
ATOM     21  H   UNL     1       1.875   1.163  18.251  0.00  0.00    +0.000 HD
ENDBRANCH   9  20
TORSDOF 2
ENDMDL
MODEL 3
REMARK VINA RESULT:      -7.2      3.486      7.250
REMARK  Name = 
REMARK  2 active torsions:
REMARK  status: ('A' for Active; 'I' for Inactive)
REMARK    1  A    between atoms: C_4  and  C_5
REMARK    2  A    between atoms: C_16  and  O_17
REMARK                            x       y       z     vdW  Elec       q    Type
REMARK                         _______ _______ _______ _____ _____    ______ ____
ROOT
ATOM      1  O   UNL     1       1.279   8.829  21.851  0.00  0.00    +0.000 OA
ATOM      2  C   UNL     1       1.194   8.855  20.633  0.00  0.00    +0.000 C 
ATOM      3  C   UNL     1       1.909   7.907  19.746  0.00  0.00    +0.000 C 
ATOM      4  C   UNL     1       2.085   6.642  20.163  0.00  0.00    +0.000 C 
ATOM      5  C   UNL     1       2.287   8.522  18.438  0.00  0.00    +0.000 C 
ATOM      6  O   UNL     1       1.133   9.007  17.742  0.00  0.00    +0.000 OA
ATOM      7  C   UNL     1       0.323   9.805  18.507  0.00  0.00    +0.000 A 
ATOM      8  C   UNL     1      -0.587  10.598  17.809  0.00  0.00    +0.000 A 
ATOM      9  C   UNL     1      -1.456  11.421  18.521  0.00  0.00    +0.000 A 
ATOM     10  C   UNL     1      -1.422  11.469  19.912  0.00  0.00    +0.000 A 
ATOM     11  C   UNL     1      -0.525  10.662  20.613  0.00  0.00    +0.000 A 
ATOM     12  C   UNL     1       0.337   9.817  19.907  0.00  0.00    +0.000 A 
ENDROOT
BRANCH   4  13
ATOM     13  C   UNL     1       2.669   5.622  19.294  0.00  0.00    +0.000 A 
ATOM     14  C   UNL     1       1.857   4.898  18.416  0.00  0.00    +0.000 A 
ATOM     15  C   UNL     1       2.397   3.845  17.678  0.00  0.00    +0.000 A 
ATOM     16  C   UNL     1       3.743   3.525  17.818  0.00  0.00    +0.000 A 
ATOM     17  F   UNL     1       4.251   2.494  17.130  0.00  0.00    +0.000 F 
ATOM     18  C   UNL     1       4.567   4.248  18.675  0.00  0.00    +0.000 A 
ATOM     19  C   UNL     1       4.029   5.302  19.414  0.00  0.00    +0.000 A 
ENDBRANCH   4  13
BRANCH   9  20
ATOM     20  O   UNL     1      -2.374  12.198  17.881  0.00  0.00    +0.000 OA
ATOM     21  H   UNL     1      -3.257  11.997  18.234  0.00  0.00    +0.000 HD
ENDBRANCH   9  20
TORSDOF 2
ENDMDL
MODEL 4
REMARK VINA RESULT:      -7.1      3.701      6.837
REMARK  Name = 
REMARK  2 active torsions:
REMARK  status: ('A' for Active; 'I' for Inactive)
REMARK    1  A    between atoms: C_4  and  C_5
REMARK    2  A    between atoms: C_16  and  O_17
REMARK                            x       y       z     vdW  Elec       q    Type
REMARK                         _______ _______ _______ _____ _____    ______ ____
ROOT
ATOM      1  O   UNL     1       1.339   9.402  17.204  0.00  0.00    +0.000 OA
ATOM      2  C   UNL     1       1.676   8.764  18.188  0.00  0.00    +0.000 C 
ATOM      3  C   UNL     1       2.665   7.661  18.144  0.00  0.00    +0.000 C 
ATOM      4  C   UNL     1       3.694   7.751  17.286  0.00  0.00    +0.000 C 
ATOM      5  C   UNL     1       2.380   6.597  19.155  0.00  0.00    +0.000 C 
ATOM      6  O   UNL     1       2.364   7.135  20.481  0.00  0.00    +0.000 OA
ATOM      7  C   UNL     1       1.570   8.244  20.617  0.00  0.00    +0.000 A 
ATOM      8  C   UNL     1       1.215   8.585  21.922  0.00  0.00    +0.000 A 
ATOM      9  C   UNL     1       0.426   9.710  22.139  0.00  0.00    +0.000 A 
ATOM     10  C   UNL     1      -0.019  10.491  21.076  0.00  0.00    +0.000 A 
ATOM     11  C   UNL     1       0.350  10.163  19.770  0.00  0.00    +0.000 A 
ATOM     12  C   UNL     1       1.160   9.046  19.545  0.00  0.00    +0.000 A 
ENDROOT
BRANCH   4  13
ATOM     13  C   UNL     1       4.772   6.764  17.274  0.00  0.00    +0.000 A 
ATOM     14  C   UNL     1       6.088   7.159  17.536  0.00  0.00    +0.000 A 
ATOM     15  C   UNL     1       7.129   6.239  17.404  0.00  0.00    +0.000 A 
ATOM     16  C   UNL     1       6.848   4.933  17.017  0.00  0.00    +0.000 A 
ATOM     17  F   UNL     1       7.852   4.060  16.863  0.00  0.00    +0.000 F 
ATOM     18  C   UNL     1       5.541   4.522  16.770  0.00  0.00    +0.000 A 
ATOM     19  C   UNL     1       4.500   5.440  16.901  0.00  0.00    +0.000 A 
ENDBRANCH   4  13
BRANCH   9  20
ATOM     20  O   UNL     1       0.072  10.092  23.398  0.00  0.00    +0.000 OA
ATOM     21  H   UNL     1      -0.098   9.297  23.932  0.00  0.00    +0.000 HD
ENDBRANCH   9  20
TORSDOF 2
ENDMDL
MODEL 5
REMARK VINA RESULT:      -7.1      3.454      7.127
REMARK  Name = 
REMARK  2 active torsions:
REMARK  status: ('A' for Active; 'I' for Inactive)
REMARK    1  A    between atoms: C_4  and  C_5
REMARK    2  A    between atoms: C_16  and  O_17
REMARK                            x       y       z     vdW  Elec       q    Type
REMARK                         _______ _______ _______ _____ _____    ______ ____
ROOT
ATOM      1  O   UNL     1       1.218   8.841  21.857  0.00  0.00    +0.000 OA
ATOM      2  C   UNL     1       1.166   8.851  20.638  0.00  0.00    +0.000 C 
ATOM      3  C   UNL     1       1.913   7.898  19.783  0.00  0.00    +0.000 C 
ATOM      4  C   UNL     1       2.087   6.639  20.220  0.00  0.00    +0.000 C 
ATOM      5  C   UNL     1       2.323   8.500  18.477  0.00  0.00    +0.000 C 
ATOM      6  O   UNL     1       1.184   8.967  17.744  0.00  0.00    +0.000 OA
ATOM      7  C   UNL     1       0.348   9.768  18.477  0.00  0.00    +0.000 A 
ATOM      8  C   UNL     1      -0.549  10.545  17.744  0.00  0.00    +0.000 A 
ATOM      9  C   UNL     1      -1.443  11.370  18.421  0.00  0.00    +0.000 A 
ATOM     10  C   UNL     1      -1.449  11.435  19.812  0.00  0.00    +0.000 A 
ATOM     11  C   UNL     1      -0.565  10.644  20.548  0.00  0.00    +0.000 A 
ATOM     12  C   UNL     1       0.323   9.798  19.876  0.00  0.00    +0.000 A 
ENDROOT
BRANCH   4  13
ATOM     13  C   UNL     1       2.703   5.614  19.380  0.00  0.00    +0.000 A 
ATOM     14  C   UNL     1       4.081   5.389  19.443  0.00  0.00    +0.000 A 
ATOM     15  C   UNL     1       4.681   4.496  18.555  0.00  0.00    +0.000 A 
ATOM     16  C   UNL     1       3.902   3.832  17.614  0.00  0.00    +0.000 A 
ATOM     17  F   UNL     1       4.485   2.998  16.744  0.00  0.00    +0.000 F 
ATOM     18  C   UNL     1       2.526   4.033  17.552  0.00  0.00    +0.000 A 
ATOM     19  C   UNL     1       1.924   4.926  18.439  0.00  0.00    +0.000 A 
ENDBRANCH   4  13
BRANCH   9  20
ATOM     20  O   UNL     1      -2.350  12.131  17.746  0.00  0.00    +0.000 OA
ATOM     21  H   UNL     1      -3.241  11.779  17.910  0.00  0.00    +0.000 HD
ENDBRANCH   9  20
TORSDOF 2
ENDMDL
MODEL 6
REMARK VINA RESULT:      -7.1      5.355      7.280
REMARK  Name = 
REMARK  2 active torsions:
REMARK  status: ('A' for Active; 'I' for Inactive)
REMARK    1  A    between atoms: C_4  and  C_5
REMARK    2  A    between atoms: C_16  and  O_17
REMARK                            x       y       z     vdW  Elec       q    Type
REMARK                         _______ _______ _______ _____ _____    ______ ____
ROOT
ATOM      1  O   UNL     1       6.386   4.525  19.514  0.00  0.00    +0.000 OA
ATOM      2  C   UNL     1       5.425   4.537  18.761  0.00  0.00    +0.000 C 
ATOM      3  C   UNL     1       5.534   4.802  17.306  0.00  0.00    +0.000 C 
ATOM      4  C   UNL     1       6.622   4.364  16.650  0.00  0.00    +0.000 C 
ATOM      5  C   UNL     1       4.328   5.497  16.760  0.00  0.00    +0.000 C 
ATOM      6  O   UNL     1       3.141   4.730  16.991  0.00  0.00    +0.000 OA
ATOM      7  C   UNL     1       2.994   4.320  18.290  0.00  0.00    +0.000 A 
ATOM      8  C   UNL     1       1.713   3.910  18.659  0.00  0.00    +0.000 A 
ATOM      9  C   UNL     1       1.491   3.462  19.958  0.00  0.00    +0.000 A 
ATOM     10  C   UNL     1       2.523   3.427  20.892  0.00  0.00    +0.000 A 
ATOM     11  C   UNL     1       3.810   3.820  20.520  0.00  0.00    +0.000 A 
ATOM     12  C   UNL     1       4.046   4.251  19.211  0.00  0.00    +0.000 A 
ENDROOT
BRANCH   4  13
ATOM     13  C   UNL     1       6.740   4.480  15.198  0.00  0.00    +0.000 A 
ATOM     14  C   UNL     1       5.998   3.638  14.364  0.00  0.00    +0.000 A 
ATOM     15  C   UNL     1       6.204   3.668  12.985  0.00  0.00    +0.000 A 
ATOM     16  C   UNL     1       7.145   4.540  12.449  0.00  0.00    +0.000 A 
ATOM     17  F   UNL     1       7.361   4.546  11.127  0.00  0.00    +0.000 F 
ATOM     18  C   UNL     1       7.878   5.396  13.265  0.00  0.00    +0.000 A 
ATOM     19  C   UNL     1       7.674   5.367  14.645  0.00  0.00    +0.000 A 
ENDBRANCH   4  13
BRANCH   9  20
ATOM     20  O   UNL     1       0.261   3.032  20.356  0.00  0.00    +0.000 OA
ATOM     21  H   UNL     1      -0.059   3.609  21.070  0.00  0.00    +0.000 HD
ENDBRANCH   9  20
TORSDOF 2
ENDMDL
MODEL 7
REMARK VINA RESULT:      -7.0      3.705      6.876
REMARK  Name = 
REMARK  2 active torsions:
REMARK  status: ('A' for Active; 'I' for Inactive)
REMARK    1  A    between atoms: C_4  and  C_5
REMARK    2  A    between atoms: C_16  and  O_17
REMARK                            x       y       z     vdW  Elec       q    Type
REMARK                         _______ _______ _______ _____ _____    ______ ____
ROOT
ATOM      1  O   UNL     1       1.442   9.319  17.179  0.00  0.00    +0.000 OA
ATOM      2  C   UNL     1       1.800   8.679  18.155  0.00  0.00    +0.000 C 
ATOM      3  C   UNL     1       2.820   7.605  18.095  0.00  0.00    +0.000 C 
ATOM      4  C   UNL     1       3.844   7.734  17.234  0.00  0.00    +0.000 C 
ATOM      5  C   UNL     1       2.569   6.521  19.093  0.00  0.00    +0.000 C 
ATOM      6  O   UNL     1       2.542   7.043  20.426  0.00  0.00    +0.000 OA
ATOM      7  C   UNL     1       1.718   8.128  20.577  0.00  0.00    +0.000 A 
ATOM      8  C   UNL     1       1.358   8.443  21.888  0.00  0.00    +0.000 A 
ATOM      9  C   UNL     1       0.538   9.543  22.121  0.00  0.00    +0.000 A 
ATOM     10  C   UNL     1       0.067  10.323  21.068  0.00  0.00    +0.000 A 
ATOM     11  C   UNL     1       0.440  10.021  19.758  0.00  0.00    +0.000 A 
ATOM     12  C   UNL     1       1.281   8.930  19.517  0.00  0.00    +0.000 A 
ENDROOT
BRANCH   4  13
ATOM     13  C   UNL     1       4.949   6.779  17.207  0.00  0.00    +0.000 A 
ATOM     14  C   UNL     1       4.702   5.426  16.957  0.00  0.00    +0.000 A 
ATOM     15  C   UNL     1       5.741   4.500  17.052  0.00  0.00    +0.000 A 
ATOM     16  C   UNL     1       7.018   4.931  17.392  0.00  0.00    +0.000 A 
ATOM     17  F   UNL     1       8.007   4.036  17.511  0.00  0.00    +0.000 F 
ATOM     18  C   UNL     1       7.282   6.278  17.626  0.00  0.00    +0.000 A 
ATOM     19  C   UNL     1       6.245   7.205  17.531  0.00  0.00    +0.000 A 
ENDBRANCH   4  13
BRANCH   9  20
ATOM     20  O   UNL     1       0.178   9.899  23.386  0.00  0.00    +0.000 OA
ATOM     21  H   UNL     1       0.892  10.428  23.779  0.00  0.00    +0.000 HD
ENDBRANCH   9  20
TORSDOF 2
ENDMDL
MODEL 8
REMARK VINA RESULT:      -6.9      1.202      1.344
REMARK  Name = 
REMARK  2 active torsions:
REMARK  status: ('A' for Active; 'I' for Inactive)
REMARK    1  A    between atoms: C_4  and  C_5
REMARK    2  A    between atoms: C_16  and  O_17
REMARK                            x       y       z     vdW  Elec       q    Type
REMARK                         _______ _______ _______ _____ _____    ______ ____
ROOT
ATOM      1  O   UNL     1       3.843   7.054  17.412  0.00  0.00    +0.000 OA
ATOM      2  C   UNL     1       3.054   6.978  18.341  0.00  0.00    +0.000 C 
ATOM      3  C   UNL     1       2.175   8.097  18.756  0.00  0.00    +0.000 C 
ATOM      4  C   UNL     1       1.690   8.921  17.813  0.00  0.00    +0.000 C 
ATOM      5  C   UNL     1       1.907   8.096  20.227  0.00  0.00    +0.000 C 
ATOM      6  O   UNL     1       1.298   6.868  20.640  0.00  0.00    +0.000 OA
ATOM      7  C   UNL     1       1.961   5.750  20.205  0.00  0.00    +0.000 A 
ATOM      8  C   UNL     1       1.654   4.562  20.868  0.00  0.00    +0.000 A 
ATOM      9  C   UNL     1       2.275   3.382  20.469  0.00  0.00    +0.000 A 
ATOM     10  C   UNL     1       3.201   3.374  19.429  0.00  0.00    +0.000 A 
ATOM     11  C   UNL     1       3.496   4.558  18.753  0.00  0.00    +0.000 A 
ATOM     12  C   UNL     1       2.861   5.744  19.133  0.00  0.00    +0.000 A 
ENDROOT
BRANCH   4  13
ATOM     13  C   UNL     1       0.722   9.968  18.133  0.00  0.00    +0.000 A 
ATOM     14  C   UNL     1       1.142  11.146  18.758  0.00  0.00    +0.000 A 
ATOM     15  C   UNL     1       0.199  12.088  19.171  0.00  0.00    +0.000 A 
ATOM     16  C   UNL     1      -1.153  11.849  18.953  0.00  0.00    +0.000 A 
ATOM     17  F   UNL     1      -2.057  12.742  19.377  0.00  0.00    +0.000 F 
ATOM     18  C   UNL     1      -1.584  10.689  18.316  0.00  0.00    +0.000 A 
ATOM     19  C   UNL     1      -0.644   9.746  17.903  0.00  0.00    +0.000 A 
ENDBRANCH   4  13
BRANCH   9  20
ATOM     20  O   UNL     1       1.990   2.195  21.074  0.00  0.00    +0.000 OA
ATOM     21  H   UNL     1       1.025   2.106  21.154  0.00  0.00    +0.000 HD
ENDBRANCH   9  20
TORSDOF 2
ENDMDL
MODEL 9
REMARK VINA RESULT:      -6.9      3.415      7.249
REMARK  Name = 
REMARK  2 active torsions:
REMARK  status: ('A' for Active; 'I' for Inactive)
REMARK    1  A    between atoms: C_4  and  C_5
REMARK    2  A    between atoms: C_16  and  O_17
REMARK                            x       y       z     vdW  Elec       q    Type
REMARK                         _______ _______ _______ _____ _____    ______ ____
ROOT
ATOM      1  O   UNL     1       1.408   8.245  22.053  0.00  0.00    +0.000 OA
ATOM      2  C   UNL     1       1.422   8.233  20.832  0.00  0.00    +0.000 C 
ATOM      3  C   UNL     1       1.995   7.122  20.035  0.00  0.00    +0.000 C 
ATOM      4  C   UNL     1       1.881   5.868  20.502  0.00  0.00    +0.000 C 
ATOM      5  C   UNL     1       2.588   7.591  18.745  0.00  0.00    +0.000 C 
ATOM      6  O   UNL     1       1.611   8.264  17.943  0.00  0.00    +0.000 OA
ATOM      7  C   UNL     1       0.923   9.240  18.615  0.00  0.00    +0.000 A 
ATOM      8  C   UNL     1       0.247  10.167  17.822  0.00  0.00    +0.000 A 
ATOM      9  C   UNL     1      -0.488  11.177  18.435  0.00  0.00    +0.000 A 
ATOM     10  C   UNL     1      -0.551  11.280  19.822  0.00  0.00    +0.000 A 
ATOM     11  C   UNL     1       0.110  10.343  20.618  0.00  0.00    +0.000 A 
ATOM     12  C   UNL     1       0.834   9.313  20.010  0.00  0.00    +0.000 A 
ENDROOT
BRANCH   4  13
ATOM     13  C   UNL     1       2.311   4.714  19.714  0.00  0.00    +0.000 A 
ATOM     14  C   UNL     1       1.378   3.757  19.304  0.00  0.00    +0.000 A 
ATOM     15  C   UNL     1       1.809   2.598  18.659  0.00  0.00    +0.000 A 
ATOM     16  C   UNL     1       3.166   2.405  18.423  0.00  0.00    +0.000 A 
ATOM     17  F   UNL     1       3.579   1.279  17.829  0.00  0.00    +0.000 F 
ATOM     18  C   UNL     1       4.104   3.359  18.809  0.00  0.00    +0.000 A 
ATOM     19  C   UNL     1       3.675   4.518  19.455  0.00  0.00    +0.000 A 
ENDBRANCH   4  13
BRANCH   9  20
ATOM     20  O   UNL     1      -1.181  12.092  17.699  0.00  0.00    +0.000 OA
ATOM     21  H   UNL     1      -1.654  12.689  18.303  0.00  0.00    +0.000 HD
ENDBRANCH   9  20
TORSDOF 2
ENDMDL
