MODEL 1
REMARK VINA RESULT:      -7.0      0.000      0.000
REMARK  Name = 
REMARK  4 active torsions:
REMARK  status: ('A' for Active; 'I' for Inactive)
REMARK    1  A    between atoms: C_1  and  C_2
REMARK    2  A    between atoms: C_2  and  C_3
REMARK    3  A    between atoms: C_5  and  C_6
REMARK    4  A    between atoms: C_9  and  N_10
REMARK                            x       y       z     vdW  Elec       q    Type
REMARK                         _______ _______ _______ _____ _____    ______ ____
ROOT
ATOM      1  C   UNL     1       5.199   4.943  17.072  0.00  0.00    +0.000 A 
ATOM      2  C   UNL     1       3.831   4.651  17.013  0.00  0.00    +0.000 A 
ATOM      3  C   UNL     1       3.050   4.681  18.176  0.00  0.00    +0.000 A 
ATOM      4  C   UNL     1       3.608   4.996  19.421  0.00  0.00    +0.000 A 
ATOM      5  C   UNL     1       4.979   5.291  19.471  0.00  0.00    +0.000 A 
ATOM      6  C   UNL     1       5.765   5.254  18.314  0.00  0.00    +0.000 A 
ENDROOT
BRANCH   1   9
ATOM      7  C   UNL     1       6.665   4.475  13.927  0.00  0.00    +0.000 A 
ATOM      8  N   UNL     1       5.645   4.256  14.725  0.00  0.00    +0.000 NA
ATOM      9  C   UNL     1       6.020   4.927  15.868  0.00  0.00    +0.000 A 
ATOM     10  N   UNL     1       7.209   5.547  15.772  0.00  0.00    +0.000 NA
ATOM     11  O   UNL     1       7.641   5.241  14.486  0.00  0.00    +0.000 OA
BRANCH   7  13
ATOM     12  C   UNL     1       5.746   3.138  12.061  0.00  0.00    +0.000 C 
ATOM     13  C   UNL     1       6.901   3.996  12.549  0.00  0.00    +0.000 C 
ENDBRANCH   7  13
ENDBRANCH   1   9
BRANCH   4  14
ATOM     14  N   UNL     1       2.727   5.070  20.519  0.00  0.00    +0.000 NA
ATOM     15  C   UNL     1       2.291   4.057  20.917  0.00  0.00    +0.000 C 
ATOM     16  S   UNL     1       1.672   2.715  21.517  0.00  0.00    +0.000 S 
ENDBRANCH   4  14
TORSDOF 3
ENDMDL
MODEL 2
REMARK VINA RESULT:      -7.0      0.750      1.015
REMARK  Name = 
REMARK  4 active torsions:
REMARK  status: ('A' for Active; 'I' for Inactive)
REMARK    1  A    between atoms: C_1  and  C_2
REMARK    2  A    between atoms: C_2  and  C_3
REMARK    3  A    between atoms: C_5  and  C_6
REMARK    4  A    between atoms: C_9  and  N_10
REMARK                            x       y       z     vdW  Elec       q    Type
REMARK                         _______ _______ _______ _____ _____    ______ ____
ROOT
ATOM      1  C   UNL     1       5.093   5.227  17.086  0.00  0.00    +0.000 A 
ATOM      2  C   UNL     1       5.139   4.262  18.098  0.00  0.00    +0.000 A 
ATOM      3  C   UNL     1       4.293   4.361  19.211  0.00  0.00    +0.000 A 
ATOM      4  C   UNL     1       3.387   5.421  19.346  0.00  0.00    +0.000 A 
ATOM      5  C   UNL     1       3.345   6.383  18.325  0.00  0.00    +0.000 A 
ATOM      6  C   UNL     1       4.194   6.292  17.217  0.00  0.00    +0.000 A 
ENDROOT
BRANCH   1   9
ATOM      7  C   UNL     1       6.643   4.594  14.012  0.00  0.00    +0.000 A 
ATOM      8  N   UNL     1       5.581   4.464  14.772  0.00  0.00    +0.000 NA
ATOM      9  C   UNL     1       5.958   5.129  15.918  0.00  0.00    +0.000 A 
ATOM     10  N   UNL     1       7.191   5.661  15.859  0.00  0.00    +0.000 NA
ATOM     11  O   UNL     1       7.649   5.300  14.597  0.00  0.00    +0.000 OA
BRANCH   7  13
ATOM     12  C   UNL     1       5.745   3.208  12.172  0.00  0.00    +0.000 C 
ATOM     13  C   UNL     1       6.899   4.071  12.653  0.00  0.00    +0.000 C 
ENDBRANCH   7  13
ENDBRANCH   1   9
BRANCH   4  14
ATOM     14  N   UNL     1       2.531   5.395  20.466  0.00  0.00    +0.000 NA
ATOM     15  C   UNL     1       2.205   4.339  20.858  0.00  0.00    +0.000 C 
ATOM     16  S   UNL     1       1.736   2.936  21.453  0.00  0.00    +0.000 S 
ENDBRANCH   4  14
TORSDOF 3
ENDMDL
MODEL 3
REMARK VINA RESULT:      -6.9      0.744      1.184
REMARK  Name = 
REMARK  4 active torsions:
REMARK  status: ('A' for Active; 'I' for Inactive)
REMARK    1  A    between atoms: C_1  and  C_2
REMARK    2  A    between atoms: C_2  and  C_3
REMARK    3  A    between atoms: C_5  and  C_6
REMARK    4  A    between atoms: C_9  and  N_10
REMARK                            x       y       z     vdW  Elec       q    Type
REMARK                         _______ _______ _______ _____ _____    ______ ____
ROOT
ATOM      1  C   UNL     1       4.829   5.067  16.738  0.00  0.00    +0.000 A 
ATOM      2  C   UNL     1       4.717   6.210  17.540  0.00  0.00    +0.000 A 
ATOM      3  C   UNL     1       3.807   6.241  18.605  0.00  0.00    +0.000 A 
ATOM      4  C   UNL     1       2.986   5.143  18.895  0.00  0.00    +0.000 A 
ATOM      5  C   UNL     1       3.107   4.001  18.089  0.00  0.00    +0.000 A 
ATOM      6  C   UNL     1       4.008   3.968  17.020  0.00  0.00    +0.000 A 
ENDROOT
BRANCH   1   9
ATOM      7  C   UNL     1       6.628   4.520  13.785  0.00  0.00    +0.000 A 
ATOM      8  N   UNL     1       5.521   4.335  14.467  0.00  0.00    +0.000 NA
ATOM      9  C   UNL     1       5.780   5.016  15.636  0.00  0.00    +0.000 A 
ATOM     10  N   UNL     1       6.985   5.611  15.665  0.00  0.00    +0.000 NA
ATOM     11  O   UNL     1       7.551   5.275  14.440  0.00  0.00    +0.000 OA
BRANCH   7  13
ATOM     12  C   UNL     1       5.996   3.001  11.940  0.00  0.00    +0.000 C 
ATOM     13  C   UNL     1       7.006   4.015  12.449  0.00  0.00    +0.000 C 
ENDBRANCH   7  13
ENDBRANCH   1   9
BRANCH   4  14
ATOM     14  N   UNL     1       2.155   5.246  20.030  0.00  0.00    +0.000 NA
ATOM     15  C   UNL     1       1.999   4.271  20.662  0.00  0.00    +0.000 C 
ATOM     16  S   UNL     1       1.755   2.986  21.574  0.00  0.00    +0.000 S 
ENDBRANCH   4  14
TORSDOF 3
ENDMDL
MODEL 4
REMARK VINA RESULT:      -6.5      4.441      6.505
REMARK  Name = 
REMARK  4 active torsions:
REMARK  status: ('A' for Active; 'I' for Inactive)
REMARK    1  A    between atoms: C_1  and  C_2
REMARK    2  A    between atoms: C_2  and  C_3
REMARK    3  A    between atoms: C_5  and  C_6
REMARK    4  A    between atoms: C_9  and  N_10
REMARK                            x       y       z     vdW  Elec       q    Type
REMARK                         _______ _______ _______ _____ _____    ______ ____
ROOT
ATOM      1  C   UNL     1       5.523   5.131  18.796  0.00  0.00    +0.000 A 
ATOM      2  C   UNL     1       6.840   5.363  19.211  0.00  0.00    +0.000 A 
ATOM      3  C   UNL     1       7.603   6.375  18.612  0.00  0.00    +0.000 A 
ATOM      4  C   UNL     1       7.079   7.173  17.587  0.00  0.00    +0.000 A 
ATOM      5  C   UNL     1       5.758   6.935  17.179  0.00  0.00    +0.000 A 
ATOM      6  C   UNL     1       4.996   5.921  17.768  0.00  0.00    +0.000 A 
ENDROOT
BRANCH   1   9
ATOM      7  C   UNL     1       3.082   3.142  20.326  0.00  0.00    +0.000 A 
ATOM      8  N   UNL     1       3.405   4.298  19.794  0.00  0.00    +0.000 NA
ATOM      9  C   UNL     1       4.714   4.091  19.418  0.00  0.00    +0.000 A 
ATOM     10  N   UNL     1       5.171   2.857  19.691  0.00  0.00    +0.000 NA
ATOM     11  O   UNL     1       4.091   2.229  20.300  0.00  0.00    +0.000 OA
BRANCH   7  13
ATOM     12  C   UNL     1       0.616   3.284  20.212  0.00  0.00    +0.000 C 
ATOM     13  C   UNL     1       1.814   2.717  20.955  0.00  0.00    +0.000 C 
ENDBRANCH   7  13
ENDBRANCH   1   9
BRANCH   4  14
ATOM     14  N   UNL     1       7.901   8.210  17.098  0.00  0.00    +0.000 NA
ATOM     15  C   UNL     1       8.331   8.962  17.888  0.00  0.00    +0.000 C 
ATOM     16  S   UNL     1       8.961  10.011  18.911  0.00  0.00    +0.000 S 
ENDBRANCH   4  14
TORSDOF 3
ENDMDL
MODEL 5
REMARK VINA RESULT:      -6.5      1.717      1.859
REMARK  Name = 
REMARK  4 active torsions:
REMARK  status: ('A' for Active; 'I' for Inactive)
REMARK    1  A    between atoms: C_1  and  C_2
REMARK    2  A    between atoms: C_2  and  C_3
REMARK    3  A    between atoms: C_5  and  C_6
REMARK    4  A    between atoms: C_9  and  N_10
REMARK                            x       y       z     vdW  Elec       q    Type
REMARK                         _______ _______ _______ _____ _____    ______ ____
ROOT
ATOM      1  C   UNL     1       4.893   5.181  16.768  0.00  0.00    +0.000 A 
ATOM      2  C   UNL     1       4.440   6.433  17.200  0.00  0.00    +0.000 A 
ATOM      3  C   UNL     1       3.571   6.533  18.295  0.00  0.00    +0.000 A 
ATOM      4  C   UNL     1       3.129   5.395  18.981  0.00  0.00    +0.000 A 
ATOM      5  C   UNL     1       3.590   4.144  18.544  0.00  0.00    +0.000 A 
ATOM      6  C   UNL     1       4.451   4.039  17.447  0.00  0.00    +0.000 A 
ENDROOT
BRANCH   1   9
ATOM      7  C   UNL     1       6.587   4.465  13.789  0.00  0.00    +0.000 A 
ATOM      8  N   UNL     1       5.501   4.328  14.514  0.00  0.00    +0.000 NA
ATOM      9  C   UNL     1       5.806   5.063  15.639  0.00  0.00    +0.000 A 
ATOM     10  N   UNL     1       7.019   5.641  15.601  0.00  0.00    +0.000 NA
ATOM     11  O   UNL     1       7.541   5.238  14.376  0.00  0.00    +0.000 OA
BRANCH   7  13
ATOM     12  C   UNL     1       5.783   3.018  11.953  0.00  0.00    +0.000 C 
ATOM     13  C   UNL     1       6.915   3.889  12.469  0.00  0.00    +0.000 C 
ENDBRANCH   7  13
ENDBRANCH   1   9
BRANCH   4  14
ATOM     14  N   UNL     1       2.314   5.605  20.113  0.00  0.00    +0.000 NA
ATOM     15  C   UNL     1       1.965   6.705  20.317  0.00  0.00    +0.000 C 
ATOM     16  S   UNL     1       1.443   8.176  20.646  0.00  0.00    +0.000 S 
ENDBRANCH   4  14
TORSDOF 3
ENDMDL
MODEL 6
REMARK VINA RESULT:      -6.4      3.649      6.687
REMARK  Name = 
REMARK  4 active torsions:
REMARK  status: ('A' for Active; 'I' for Inactive)
REMARK    1  A    between atoms: C_1  and  C_2
REMARK    2  A    between atoms: C_2  and  C_3
REMARK    3  A    between atoms: C_5  and  C_6
REMARK    4  A    between atoms: C_9  and  N_10
REMARK                            x       y       z     vdW  Elec       q    Type
REMARK                         _______ _______ _______ _____ _____    ______ ____
ROOT
ATOM      1  C   UNL     1       5.199   4.200  17.715  0.00  0.00    +0.000 A 
ATOM      2  C   UNL     1       4.647   4.407  16.446  0.00  0.00    +0.000 A 
ATOM      3  C   UNL     1       5.456   4.828  15.382  0.00  0.00    +0.000 A 
ATOM      4  C   UNL     1       6.827   5.056  15.555  0.00  0.00    +0.000 A 
ATOM      5  C   UNL     1       7.373   4.843  16.830  0.00  0.00    +0.000 A 
ATOM      6  C   UNL     1       6.567   4.432  17.897  0.00  0.00    +0.000 A 
ENDROOT
BRANCH   1   9
ATOM      7  C   UNL     1       2.751   3.610  20.148  0.00  0.00    +0.000 A 
ATOM      8  N   UNL     1       3.108   4.249  19.059  0.00  0.00    +0.000 NA
ATOM      9  C   UNL     1       4.372   3.751  18.828  0.00  0.00    +0.000 A 
ATOM     10  N   UNL     1       4.768   2.832  19.725  0.00  0.00    +0.000 NA
ATOM     11  O   UNL     1       3.695   2.743  20.606  0.00  0.00    +0.000 OA
BRANCH   7  13
ATOM     12  C   UNL     1       1.343   2.528  21.869  0.00  0.00    +0.000 C 
ATOM     13  C   UNL     1       1.507   3.717  20.938  0.00  0.00    +0.000 C 
ENDBRANCH   7  13
ENDBRANCH   1   9
BRANCH   4  14
ATOM     14  N   UNL     1       7.568   5.408  14.408  0.00  0.00    +0.000 NA
ATOM     15  C   UNL     1       7.347   4.804  13.428  0.00  0.00    +0.000 C 
ATOM     16  S   UNL     1       7.086   4.032  12.058  0.00  0.00    +0.000 S 
ENDBRANCH   4  14
TORSDOF 3
ENDMDL
MODEL 7
REMARK VINA RESULT:      -6.4      3.559      6.691
REMARK  Name = 
REMARK  4 active torsions:
REMARK  status: ('A' for Active; 'I' for Inactive)
REMARK    1  A    between atoms: C_1  and  C_2
REMARK    2  A    between atoms: C_2  and  C_3
REMARK    3  A    between atoms: C_5  and  C_6
REMARK    4  A    between atoms: C_9  and  N_10
REMARK                            x       y       z     vdW  Elec       q    Type
REMARK                         _______ _______ _______ _____ _____    ______ ____
ROOT
ATOM      1  C   UNL     1       4.269   4.984  17.403  0.00  0.00    +0.000 A 
ATOM      2  C   UNL     1       4.811   3.828  16.829  0.00  0.00    +0.000 A 
ATOM      3  C   UNL     1       5.687   3.923  15.739  0.00  0.00    +0.000 A 
ATOM      4  C   UNL     1       6.039   5.163  15.192  0.00  0.00    +0.000 A 
ATOM      5  C   UNL     1       5.493   6.317  15.776  0.00  0.00    +0.000 A 
ATOM      6  C   UNL     1       4.613   6.227  16.859  0.00  0.00    +0.000 A 
ENDROOT
BRANCH   1   9
ATOM      7  C   UNL     1       1.950   4.139  19.886  0.00  0.00    +0.000 A 
ATOM      8  N   UNL     1       2.625   3.774  18.821  0.00  0.00    +0.000 NA
ATOM      9  C   UNL     1       3.367   4.901  18.545  0.00  0.00    +0.000 A 
ATOM     10  N   UNL     1       3.171   5.909  19.412  0.00  0.00    +0.000 NA
ATOM     11  O   UNL     1       2.224   5.407  20.298  0.00  0.00    +0.000 OA
BRANCH   7  13
ATOM     12  C   UNL     1       1.590   2.594  21.782  0.00  0.00    +0.000 C 
ATOM     13  C   UNL     1       0.940   3.390  20.663  0.00  0.00    +0.000 C 
ENDBRANCH   7  13
ENDBRANCH   1   9
BRANCH   4  14
ATOM     14  N   UNL     1       6.981   5.158  14.143  0.00  0.00    +0.000 NA
ATOM     15  C   UNL     1       6.797   4.397  13.270  0.00  0.00    +0.000 C 
ATOM     16  S   UNL     1       6.598   3.397  12.044  0.00  0.00    +0.000 S 
ENDBRANCH   4  14
TORSDOF 3
ENDMDL
MODEL 8
REMARK VINA RESULT:      -6.4      2.073      2.233
REMARK  Name = 
REMARK  4 active torsions:
REMARK  status: ('A' for Active; 'I' for Inactive)
REMARK    1  A    between atoms: C_1  and  C_2
REMARK    2  A    between atoms: C_2  and  C_3
REMARK    3  A    between atoms: C_5  and  C_6
REMARK    4  A    between atoms: C_9  and  N_10
REMARK                            x       y       z     vdW  Elec       q    Type
REMARK                         _______ _______ _______ _____ _____    ______ ____
ROOT
ATOM      1  C   UNL     1       4.922   5.789  17.207  0.00  0.00    +0.000 A 
ATOM      2  C   UNL     1       4.898   4.987  18.355  0.00  0.00    +0.000 A 
ATOM      3  C   UNL     1       3.954   5.223  19.363  0.00  0.00    +0.000 A 
ATOM      4  C   UNL     1       3.019   6.261  19.259  0.00  0.00    +0.000 A 
ATOM      5  C   UNL     1       3.048   7.058  18.105  0.00  0.00    +0.000 A 
ATOM      6  C   UNL     1       3.993   6.831  17.099  0.00  0.00    +0.000 A 
ENDROOT
BRANCH   1   9
ATOM      7  C   UNL     1       6.703   4.874  14.335  0.00  0.00    +0.000 A 
ATOM      8  N   UNL     1       5.555   4.905  14.973  0.00  0.00    +0.000 NA
ATOM      9  C   UNL     1       5.889   5.548  16.145  0.00  0.00    +0.000 A 
ATOM     10  N   UNL     1       7.181   5.913  16.218  0.00  0.00    +0.000 NA
ATOM     11  O   UNL     1       7.723   5.460  15.020  0.00  0.00    +0.000 OA
BRANCH   7  13
ATOM     12  C   UNL     1       5.895   3.422  12.504  0.00  0.00    +0.000 C 
ATOM     13  C   UNL     1       7.034   4.286  13.021  0.00  0.00    +0.000 C 
ENDBRANCH   7  13
ENDBRANCH   1   9
BRANCH   4  14
ATOM     14  N   UNL     1       2.067   6.373  20.293  0.00  0.00    +0.000 NA
ATOM     15  C   UNL     1       1.679   7.451  20.541  0.00  0.00    +0.000 C 
ATOM     16  S   UNL     1       1.098   8.887  20.920  0.00  0.00    +0.000 S 
ENDBRANCH   4  14
TORSDOF 3
ENDMDL
MODEL 9
REMARK VINA RESULT:      -6.3      1.518      1.520
REMARK  Name = 
REMARK  4 active torsions:
REMARK  status: ('A' for Active; 'I' for Inactive)
REMARK    1  A    between atoms: C_1  and  C_2
REMARK    2  A    between atoms: C_2  and  C_3
REMARK    3  A    between atoms: C_5  and  C_6
REMARK    4  A    between atoms: C_9  and  N_10
REMARK                            x       y       z     vdW  Elec       q    Type
REMARK                         _______ _______ _______ _____ _____    ______ ____
ROOT
ATOM      1  C   UNL     1       4.988   5.076  16.805  0.00  0.00    +0.000 A 
ATOM      2  C   UNL     1       3.873   4.239  16.930  0.00  0.00    +0.000 A 
ATOM      3  C   UNL     1       3.028   4.348  18.042  0.00  0.00    +0.000 A 
ATOM      4  C   UNL     1       3.272   5.284  19.055  0.00  0.00    +0.000 A 
ATOM      5  C   UNL     1       4.390   6.121  18.920  0.00  0.00    +0.000 A 
ATOM      6  C   UNL     1       5.241   6.011  17.816  0.00  0.00    +0.000 A 
ENDROOT
BRANCH   1   9
ATOM      7  C   UNL     1       6.595   4.425  13.763  0.00  0.00    +0.000 A 
ATOM      8  N   UNL     1       5.530   4.274  14.516  0.00  0.00    +0.000 NA
ATOM      9  C   UNL     1       5.869   4.982  15.648  0.00  0.00    +0.000 A 
ATOM     10  N   UNL     1       7.082   5.559  15.588  0.00  0.00    +0.000 NA
ATOM     11  O   UNL     1       7.567   5.183  14.339  0.00  0.00    +0.000 OA
BRANCH   7  13
ATOM     12  C   UNL     1       5.737   3.019  11.919  0.00  0.00    +0.000 C 
ATOM     13  C   UNL     1       6.884   3.879  12.421  0.00  0.00    +0.000 C 
ENDBRANCH   7  13
ENDBRANCH   1   9
BRANCH   4  14
ATOM     14  N   UNL     1       2.325   5.365  20.097  0.00  0.00    +0.000 NA
ATOM     15  C   UNL     1       1.972   6.438  20.410  0.00  0.00    +0.000 C 
ATOM     16  S   UNL     1       1.438   7.866  20.875  0.00  0.00    +0.000 S 
ENDBRANCH   4  14
TORSDOF 3
ENDMDL
