MODEL 1
REMARK VINA RESULT:      -7.9      0.000      0.000
REMARK  Name = 
REMARK  7 active torsions:
REMARK  status: ('A' for Active; 'I' for Inactive)
REMARK    1  A    between atoms: C_1  and  C_2
REMARK    2  A    between atoms: C_2  and  C_3
REMARK    3  A    between atoms: C_2  and  C_4
REMARK    4  A    between atoms: C_2  and  N_6
REMARK    5  A    between atoms: C_4  and  O_5
REMARK    6  A    between atoms: C_7  and  C_9
REMARK    7  A    between atoms: N_11  and  C_12
REMARK                            x       y       z     vdW  Elec       q    Type
REMARK                         _______ _______ _______ _____ _____    ______ ____
ROOT
ATOM      1  C   UNL     1       4.008   4.210  17.237  0.00  0.00    +0.000 A 
ATOM      2  N   UNL     1       4.192   4.086  15.888  0.00  0.00    +0.000 NA
ATOM      3  N   UNL     1       5.522   4.420  15.679  0.00  0.00    +0.000 N 
ATOM      4  C   UNL     1       6.103   4.780  16.854  0.00  0.00    +0.000 A 
ATOM      5  C   UNL     1       5.185   4.668  17.853  0.00  0.00    +0.000 A 
ATOM      6  C   UNL     1       5.637   5.207  19.159  0.00  0.00    +0.000 C 
ATOM      7  C   UNL     1       7.003   5.824  18.800  0.00  0.00    +0.000 C 
ATOM      8  C   UNL     1       8.169   4.946  18.473  0.00  0.00    +0.000 C 
ATOM      9  C   UNL     1       7.346   5.491  17.333  0.00  0.00    +0.000 C 
ENDROOT
BRANCH   3  10
ATOM     10  C   UNL     1       6.175   4.359  14.419  0.00  0.00    +0.000 A 
ATOM     11  C   UNL     1       5.733   3.492  13.418  0.00  0.00    +0.000 A 
ATOM     12  C   UNL     1       6.347   3.524  12.158  0.00  0.00    +0.000 A 
ATOM     13  C   UNL     1       7.411   4.390  11.902  0.00  0.00    +0.000 A 
ATOM     14  C   UNL     1       7.885   5.224  12.911  0.00  0.00    +0.000 A 
ATOM     15  C   UNL     1       7.271   5.205  14.162  0.00  0.00    +0.000 A 
ENDBRANCH   3  10
BRANCH   1  17
ATOM     16  N   UNL     1       2.862   3.597  19.288  0.00  0.00    +0.000 N 
ATOM     17  C   UNL     1       2.747   3.962  17.962  0.00  0.00    +0.000 C 
ATOM     18  O   UNL     1       1.662   4.083  17.405  0.00  0.00    +0.000 OA
ATOM     19  H   UNL     1       3.810   3.534  19.648  0.00  0.00    +0.000 HD
BRANCH  16  21
ATOM     20  C   UNL     1       1.066   4.697  20.555  0.00  0.00    +0.000 C 
ATOM     21  C   UNL     1       1.700   3.346  20.171  0.00  0.00    +0.000 C 
ATOM     22  C   UNL     1       2.149   2.662  21.480  0.00  0.00    +0.000 C 
BRANCH  21  23
ATOM     23  C   UNL     1       0.623   2.479  19.454  0.00  0.00    +0.000 C 
BRANCH  23  24
ATOM     24  O   UNL     1       1.191   1.391  18.725  0.00  0.00    +0.000 OA
ATOM     25  H   UNL     1       1.673   1.775  17.973  0.00  0.00    +0.000 HD
ENDBRANCH  23  24
ENDBRANCH  21  23
ENDBRANCH  16  21
ENDBRANCH   1  17
TORSDOF 5
ENDMDL
MODEL 2
REMARK VINA RESULT:      -7.9      0.098      1.012
REMARK  Name = 
REMARK  7 active torsions:
REMARK  status: ('A' for Active; 'I' for Inactive)
REMARK    1  A    between atoms: C_1  and  C_2
REMARK    2  A    between atoms: C_2  and  C_3
REMARK    3  A    between atoms: C_2  and  C_4
REMARK    4  A    between atoms: C_2  and  N_6
REMARK    5  A    between atoms: C_4  and  O_5
REMARK    6  A    between atoms: C_7  and  C_9
REMARK    7  A    between atoms: N_11  and  C_12
REMARK                            x       y       z     vdW  Elec       q    Type
REMARK                         _______ _______ _______ _____ _____    ______ ____
ROOT
ATOM      1  C   UNL     1       3.964   4.264  17.247  0.00  0.00    +0.000 A 
ATOM      2  N   UNL     1       4.124   4.170  15.892  0.00  0.00    +0.000 NA
ATOM      3  N   UNL     1       5.457   4.483  15.670  0.00  0.00    +0.000 N 
ATOM      4  C   UNL     1       6.063   4.803  16.844  0.00  0.00    +0.000 A 
ATOM      5  C   UNL     1       5.159   4.684  17.854  0.00  0.00    +0.000 A 
ATOM      6  C   UNL     1       5.642   5.182  19.166  0.00  0.00    +0.000 C 
ATOM      7  C   UNL     1       7.014   5.781  18.799  0.00  0.00    +0.000 C 
ATOM      8  C   UNL     1       8.157   4.889  18.433  0.00  0.00    +0.000 C 
ATOM      9  C   UNL     1       7.328   5.478  17.319  0.00  0.00    +0.000 C 
ENDROOT
BRANCH   3  10
ATOM     10  C   UNL     1       6.089   4.440  14.398  0.00  0.00    +0.000 A 
ATOM     11  C   UNL     1       7.213   5.219  14.125  0.00  0.00    +0.000 A 
ATOM     12  C   UNL     1       7.863   5.082  12.889  0.00  0.00    +0.000 A 
ATOM     13  C   UNL     1       7.381   4.200  11.921  0.00  0.00    +0.000 A 
ATOM     14  C   UNL     1       6.233   3.454  12.173  0.00  0.00    +0.000 A 
ATOM     15  C   UNL     1       5.590   3.577  13.403  0.00  0.00    +0.000 A 
ENDBRANCH   3  10
BRANCH   1  17
ATOM     16  N   UNL     1       2.838   3.575  19.285  0.00  0.00    +0.000 N 
ATOM     17  C   UNL     1       2.709   4.022  17.986  0.00  0.00    +0.000 C 
ATOM     18  O   UNL     1       1.619   4.220  17.463  0.00  0.00    +0.000 OA
ATOM     19  H   UNL     1       3.791   3.453  19.617  0.00  0.00    +0.000 HD
BRANCH  16  21
ATOM     20  C   UNL     1       1.006   4.658  20.514  0.00  0.00    +0.000 C 
ATOM     21  C   UNL     1       1.686   3.317  20.179  0.00  0.00    +0.000 C 
ATOM     22  C   UNL     1       2.160   2.697  21.512  0.00  0.00    +0.000 C 
BRANCH  21  23
ATOM     23  C   UNL     1       0.639   2.387  19.497  0.00  0.00    +0.000 C 
BRANCH  23  24
ATOM     24  O   UNL     1       1.243   1.413  18.646  0.00  0.00    +0.000 OA
ATOM     25  H   UNL     1       2.203   1.552  18.693  0.00  0.00    +0.000 HD
ENDBRANCH  23  24
ENDBRANCH  21  23
ENDBRANCH  16  21
ENDBRANCH   1  17
TORSDOF 5
ENDMDL
MODEL 3
REMARK VINA RESULT:      -7.9      0.850      1.390
REMARK  Name = 
REMARK  7 active torsions:
REMARK  status: ('A' for Active; 'I' for Inactive)
REMARK    1  A    between atoms: C_1  and  C_2
REMARK    2  A    between atoms: C_2  and  C_3
REMARK    3  A    between atoms: C_2  and  C_4
REMARK    4  A    between atoms: C_2  and  N_6
REMARK    5  A    between atoms: C_4  and  O_5
REMARK    6  A    between atoms: C_7  and  C_9
REMARK    7  A    between atoms: N_11  and  C_12
REMARK                            x       y       z     vdW  Elec       q    Type
REMARK                         _______ _______ _______ _____ _____    ______ ____
ROOT
ATOM      1  C   UNL     1       4.022   4.359  17.295  0.00  0.00    +0.000 A 
ATOM      2  N   UNL     1       4.172   4.219  15.943  0.00  0.00    +0.000 NA
ATOM      3  N   UNL     1       5.517   4.465  15.709  0.00  0.00    +0.000 N 
ATOM      4  C   UNL     1       6.142   4.791  16.871  0.00  0.00    +0.000 A 
ATOM      5  C   UNL     1       5.238   4.742  17.887  0.00  0.00    +0.000 A 
ATOM      6  C   UNL     1       5.748   5.254  19.183  0.00  0.00    +0.000 C 
ATOM      7  C   UNL     1       7.144   5.780  18.795  0.00  0.00    +0.000 C 
ATOM      8  C   UNL     1       8.245   4.827  18.451  0.00  0.00    +0.000 C 
ATOM      9  C   UNL     1       7.438   5.421  17.324  0.00  0.00    +0.000 C 
ENDROOT
BRANCH   3  10
ATOM     10  C   UNL     1       6.141   4.358  14.437  0.00  0.00    +0.000 A 
ATOM     11  C   UNL     1       5.660   3.475  13.470  0.00  0.00    +0.000 A 
ATOM     12  C   UNL     1       6.247   3.461  12.195  0.00  0.00    +0.000 A 
ATOM     13  C   UNL     1       7.323   4.298  11.894  0.00  0.00    +0.000 A 
ATOM     14  C   UNL     1       7.835   5.148  12.871  0.00  0.00    +0.000 A 
ATOM     15  C   UNL     1       7.248   5.174  14.135  0.00  0.00    +0.000 A 
ENDBRANCH   3  10
BRANCH   1  17
ATOM     16  N   UNL     1       2.857   3.602  19.286  0.00  0.00    +0.000 N 
ATOM     17  C   UNL     1       2.761   4.195  18.045  0.00  0.00    +0.000 C 
ATOM     18  O   UNL     1       1.694   4.577  17.579  0.00  0.00    +0.000 OA
ATOM     19  H   UNL     1       3.793   3.331  19.575  0.00  0.00    +0.000 HD
BRANCH  16  21
ATOM     20  C   UNL     1       2.173   2.638  21.441  0.00  0.00    +0.000 C 
ATOM     21  C   UNL     1       1.699   3.393  20.185  0.00  0.00    +0.000 C 
ATOM     22  C   UNL     1       0.629   2.516  19.499  0.00  0.00    +0.000 C 
BRANCH  21  23
ATOM     23  C   UNL     1       1.077   4.751  20.628  0.00  0.00    +0.000 C 
BRANCH  23  24
ATOM     24  O   UNL     1       2.061   5.691  21.059  0.00  0.00    +0.000 OA
ATOM     25  H   UNL     1       2.700   5.202  21.603  0.00  0.00    +0.000 HD
ENDBRANCH  23  24
ENDBRANCH  21  23
ENDBRANCH  16  21
ENDBRANCH   1  17
TORSDOF 5
ENDMDL
MODEL 4
REMARK VINA RESULT:      -7.9      0.906      1.618
REMARK  Name = 
REMARK  7 active torsions:
REMARK  status: ('A' for Active; 'I' for Inactive)
REMARK    1  A    between atoms: C_1  and  C_2
REMARK    2  A    between atoms: C_2  and  C_3
REMARK    3  A    between atoms: C_2  and  C_4
REMARK    4  A    between atoms: C_2  and  N_6
REMARK    5  A    between atoms: C_4  and  O_5
REMARK    6  A    between atoms: C_7  and  C_9
REMARK    7  A    between atoms: N_11  and  C_12
REMARK                            x       y       z     vdW  Elec       q    Type
REMARK                         _______ _______ _______ _____ _____    ______ ____
ROOT
ATOM      1  C   UNL     1       3.954   4.407  17.272  0.00  0.00    +0.000 A 
ATOM      2  N   UNL     1       4.109   4.299  15.918  0.00  0.00    +0.000 NA
ATOM      3  N   UNL     1       5.454   4.551  15.694  0.00  0.00    +0.000 N 
ATOM      4  C   UNL     1       6.075   4.848  16.866  0.00  0.00    +0.000 A 
ATOM      5  C   UNL     1       5.167   4.775  17.877  0.00  0.00    +0.000 A 
ATOM      6  C   UNL     1       5.672   5.257  19.187  0.00  0.00    +0.000 C 
ATOM      7  C   UNL     1       7.070   5.792  18.817  0.00  0.00    +0.000 C 
ATOM      8  C   UNL     1       8.172   4.847  18.454  0.00  0.00    +0.000 C 
ATOM      9  C   UNL     1       7.369   5.468  17.338  0.00  0.00    +0.000 C 
ENDROOT
BRANCH   3  10
ATOM     10  C   UNL     1       6.084   4.473  14.422  0.00  0.00    +0.000 A 
ATOM     11  C   UNL     1       7.210   5.241  14.127  0.00  0.00    +0.000 A 
ATOM     12  C   UNL     1       7.857   5.070  12.894  0.00  0.00    +0.000 A 
ATOM     13  C   UNL     1       7.370   4.166  11.949  0.00  0.00    +0.000 A 
ATOM     14  C   UNL     1       6.219   3.431  12.222  0.00  0.00    +0.000 A 
ATOM     15  C   UNL     1       5.580   3.587  13.451  0.00  0.00    +0.000 A 
ENDBRANCH   3  10
BRANCH   1  17
ATOM     16  N   UNL     1       2.739   3.401  19.118  0.00  0.00    +0.000 N 
ATOM     17  C   UNL     1       2.690   4.225  18.012  0.00  0.00    +0.000 C 
ATOM     18  O   UNL     1       1.661   4.788  17.656  0.00  0.00    +0.000 OA
ATOM     19  H   UNL     1       3.646   2.993  19.325  0.00  0.00    +0.000 HD
BRANCH  16  21
ATOM     20  C   UNL     1       0.510   2.367  19.190  0.00  0.00    +0.000 C 
ATOM     21  C   UNL     1       1.574   3.139  19.994  0.00  0.00    +0.000 C 
ATOM     22  C   UNL     1       0.929   4.464  20.454  0.00  0.00    +0.000 C 
BRANCH  21  23
ATOM     23  C   UNL     1       1.979   2.281  21.230  0.00  0.00    +0.000 C 
BRANCH  23  24
ATOM     24  O   UNL     1       2.416   3.078  22.331  0.00  0.00    +0.000 OA
ATOM     25  H   UNL     1       1.903   3.903  22.305  0.00  0.00    +0.000 HD
ENDBRANCH  23  24
ENDBRANCH  21  23
ENDBRANCH  16  21
ENDBRANCH   1  17
TORSDOF 5
ENDMDL
MODEL 5
REMARK VINA RESULT:      -7.8      4.034      5.596
REMARK  Name = 
REMARK  7 active torsions:
REMARK  status: ('A' for Active; 'I' for Inactive)
REMARK    1  A    between atoms: C_1  and  C_2
REMARK    2  A    between atoms: C_2  and  C_3
REMARK    3  A    between atoms: C_2  and  C_4
REMARK    4  A    between atoms: C_2  and  N_6
REMARK    5  A    between atoms: C_4  and  O_5
REMARK    6  A    between atoms: C_7  and  C_9
REMARK    7  A    between atoms: N_11  and  C_12
REMARK                            x       y       z     vdW  Elec       q    Type
REMARK                         _______ _______ _______ _____ _____    ______ ____
ROOT
ATOM      1  C   UNL     1       2.539   7.613  18.455  0.00  0.00    +0.000 A 
ATOM      2  N   UNL     1       3.629   7.396  17.658  0.00  0.00    +0.000 NA
ATOM      3  N   UNL     1       4.049   6.113  17.976  0.00  0.00    +0.000 N 
ATOM      4  C   UNL     1       3.271   5.597  18.964  0.00  0.00    +0.000 A 
ATOM      5  C   UNL     1       2.317   6.509  19.296  0.00  0.00    +0.000 A 
ATOM      6  C   UNL     1       1.514   6.146  20.489  0.00  0.00    +0.000 C 
ATOM      7  C   UNL     1       2.213   4.859  20.969  0.00  0.00    +0.000 C 
ATOM      8  C   UNL     1       2.088   3.590  20.186  0.00  0.00    +0.000 C 
ATOM      9  C   UNL     1       3.302   4.456  19.952  0.00  0.00    +0.000 C 
ENDROOT
BRANCH   3  10
ATOM     10  C   UNL     1       5.120   5.438  17.331  0.00  0.00    +0.000 A 
ATOM     11  C   UNL     1       4.997   4.978  16.019  0.00  0.00    +0.000 A 
ATOM     12  C   UNL     1       6.106   4.397  15.385  0.00  0.00    +0.000 A 
ATOM     13  C   UNL     1       7.318   4.246  16.060  0.00  0.00    +0.000 A 
ATOM     14  C   UNL     1       7.431   4.663  17.384  0.00  0.00    +0.000 A 
ATOM     15  C   UNL     1       6.337   5.252  18.014  0.00  0.00    +0.000 A 
ENDBRANCH   3  10
BRANCH   1  17
ATOM     16  N   UNL     1       1.210   9.207  19.717  0.00  0.00    +0.000 N 
ATOM     17  C   UNL     1       1.728   8.847  18.489  0.00  0.00    +0.000 C 
ATOM     18  O   UNL     1       1.540   9.509  17.476  0.00  0.00    +0.000 OA
ATOM     19  H   UNL     1       1.436   8.588  20.490  0.00  0.00    +0.000 HD
BRANCH  16  21
ATOM     20  C   UNL     1       0.066  10.540  21.436  0.00  0.00    +0.000 C 
ATOM     21  C   UNL     1       0.407  10.431  19.937  0.00  0.00    +0.000 C 
ATOM     22  C   UNL     1      -0.930  10.351  19.168  0.00  0.00    +0.000 C 
BRANCH  21  23
ATOM     23  C   UNL     1       1.194  11.707  19.514  0.00  0.00    +0.000 C 
BRANCH  23  24
ATOM     24  O   UNL     1       0.766  12.222  18.253  0.00  0.00    +0.000 OA
ATOM     25  H   UNL     1       1.397  12.917  18.002  0.00  0.00    +0.000 HD
ENDBRANCH  23  24
ENDBRANCH  21  23
ENDBRANCH  16  21
ENDBRANCH   1  17
TORSDOF 5
ENDMDL
MODEL 6
REMARK VINA RESULT:      -7.8      3.568      5.481
REMARK  Name = 
REMARK  7 active torsions:
REMARK  status: ('A' for Active; 'I' for Inactive)
REMARK    1  A    between atoms: C_1  and  C_2
REMARK    2  A    between atoms: C_2  and  C_3
REMARK    3  A    between atoms: C_2  and  C_4
REMARK    4  A    between atoms: C_2  and  N_6
REMARK    5  A    between atoms: C_4  and  O_5
REMARK    6  A    between atoms: C_7  and  C_9
REMARK    7  A    between atoms: N_11  and  C_12
REMARK                            x       y       z     vdW  Elec       q    Type
REMARK                         _______ _______ _______ _____ _____    ______ ____
ROOT
ATOM      1  C   UNL     1       2.468   6.622  19.476  0.00  0.00    +0.000 A 
ATOM      2  N   UNL     1       3.606   6.662  18.719  0.00  0.00    +0.000 NA
ATOM      3  N   UNL     1       3.895   5.333  18.445  0.00  0.00    +0.000 N 
ATOM      4  C   UNL     1       2.991   4.522  19.057  0.00  0.00    +0.000 A 
ATOM      5  C   UNL     1       2.085   5.292  19.718  0.00  0.00    +0.000 A 
ATOM      6  C   UNL     1       1.150   4.529  20.581  0.00  0.00    +0.000 C 
ATOM      7  C   UNL     1       1.701   3.094  20.463  0.00  0.00    +0.000 C 
ATOM      8  C   UNL     1       1.550   2.326  19.189  0.00  0.00    +0.000 C 
ATOM      9  C   UNL     1       2.843   3.066  19.427  0.00  0.00    +0.000 C 
ENDROOT
BRANCH   3  10
ATOM     10  C   UNL     1       4.965   4.900  17.616  0.00  0.00    +0.000 A 
ATOM     11  C   UNL     1       4.727   4.374  16.346  0.00  0.00    +0.000 A 
ATOM     12  C   UNL     1       5.812   4.042  15.522  0.00  0.00    +0.000 A 
ATOM     13  C   UNL     1       7.125   4.202  15.969  0.00  0.00    +0.000 A 
ATOM     14  C   UNL     1       7.366   4.683  17.253  0.00  0.00    +0.000 A 
ATOM     15  C   UNL     1       6.292   5.027  18.071  0.00  0.00    +0.000 A 
ENDBRANCH   3  10
BRANCH   1  17
ATOM     16  N   UNL     1       1.594   8.867  19.171  0.00  0.00    +0.000 N 
ATOM     17  C   UNL     1       1.756   7.794  20.023  0.00  0.00    +0.000 C 
ATOM     18  O   UNL     1       1.331   7.796  21.173  0.00  0.00    +0.000 OA
ATOM     19  H   UNL     1       1.980   8.753  18.238  0.00  0.00    +0.000 HD
BRANCH  16  21
ATOM     20  C   UNL     1       1.130  10.401  21.035  0.00  0.00    +0.000 C 
ATOM     21  C   UNL     1       0.873  10.106  19.545  0.00  0.00    +0.000 C 
ATOM     22  C   UNL     1      -0.650   9.923  19.369  0.00  0.00    +0.000 C 
BRANCH  21  23
ATOM     23  C   UNL     1       1.368  11.321  18.706  0.00  0.00    +0.000 C 
BRANCH  23  24
ATOM     24  O   UNL     1       2.074  10.926  17.530  0.00  0.00    +0.000 OA
ATOM     25  H   UNL     1       2.301  11.739  17.049  0.00  0.00    +0.000 HD
ENDBRANCH  23  24
ENDBRANCH  21  23
ENDBRANCH  16  21
ENDBRANCH   1  17
TORSDOF 5
ENDMDL
MODEL 7
REMARK VINA RESULT:      -7.8      0.821      1.705
REMARK  Name = 
REMARK  7 active torsions:
REMARK  status: ('A' for Active; 'I' for Inactive)
REMARK    1  A    between atoms: C_1  and  C_2
REMARK    2  A    between atoms: C_2  and  C_3
REMARK    3  A    between atoms: C_2  and  C_4
REMARK    4  A    between atoms: C_2  and  N_6
REMARK    5  A    between atoms: C_4  and  O_5
REMARK    6  A    between atoms: C_7  and  C_9
REMARK    7  A    between atoms: N_11  and  C_12
REMARK                            x       y       z     vdW  Elec       q    Type
REMARK                         _______ _______ _______ _____ _____    ______ ____
ROOT
ATOM      1  C   UNL     1       3.971   4.246  17.230  0.00  0.00    +0.000 A 
ATOM      2  N   UNL     1       4.123   4.156  15.874  0.00  0.00    +0.000 NA
ATOM      3  N   UNL     1       5.457   4.460  15.647  0.00  0.00    +0.000 N 
ATOM      4  C   UNL     1       6.072   4.771  16.819  0.00  0.00    +0.000 A 
ATOM      5  C   UNL     1       5.173   4.654  17.833  0.00  0.00    +0.000 A 
ATOM      6  C   UNL     1       5.665   5.142  19.145  0.00  0.00    +0.000 C 
ATOM      7  C   UNL     1       7.041   5.732  18.774  0.00  0.00    +0.000 C 
ATOM      8  C   UNL     1       8.175   4.833  18.397  0.00  0.00    +0.000 C 
ATOM      9  C   UNL     1       7.344   5.434  17.291  0.00  0.00    +0.000 C 
ENDROOT
BRANCH   3  10
ATOM     10  C   UNL     1       6.083   4.418  14.371  0.00  0.00    +0.000 A 
ATOM     11  C   UNL     1       7.203   5.201  14.091  0.00  0.00    +0.000 A 
ATOM     12  C   UNL     1       7.846   5.065  12.852  0.00  0.00    +0.000 A 
ATOM     13  C   UNL     1       7.363   4.180  11.888  0.00  0.00    +0.000 A 
ATOM     14  C   UNL     1       6.218   3.430  12.147  0.00  0.00    +0.000 A 
ATOM     15  C   UNL     1       5.582   3.552  13.380  0.00  0.00    +0.000 A 
ENDBRANCH   3  10
BRANCH   1  17
ATOM     16  N   UNL     1       2.850   3.620  19.291  0.00  0.00    +0.000 N 
ATOM     17  C   UNL     1       2.718   4.011  17.974  0.00  0.00    +0.000 C 
ATOM     18  O   UNL     1       1.626   4.165  17.440  0.00  0.00    +0.000 OA
ATOM     19  H   UNL     1       3.804   3.531  19.632  0.00  0.00    +0.000 HD
BRANCH  16  21
ATOM     20  C   UNL     1       2.200   2.650  21.454  0.00  0.00    +0.000 C 
ATOM     21  C   UNL     1       1.700   3.378  20.191  0.00  0.00    +0.000 C 
ATOM     22  C   UNL     1       0.662   2.457  19.513  0.00  0.00    +0.000 C 
BRANCH  21  23
ATOM     23  C   UNL     1       1.029   4.715  20.623  0.00  0.00    +0.000 C 
BRANCH  23  24
ATOM     24  O   UNL     1       1.982   5.734  20.928  0.00  0.00    +0.000 OA
ATOM     25  H   UNL     1       1.705   6.533  20.450  0.00  0.00    +0.000 HD
ENDBRANCH  23  24
ENDBRANCH  21  23
ENDBRANCH  16  21
ENDBRANCH   1  17
TORSDOF 5
ENDMDL
MODEL 8
REMARK VINA RESULT:      -7.8      0.809      1.219
REMARK  Name = 
REMARK  7 active torsions:
REMARK  status: ('A' for Active; 'I' for Inactive)
REMARK    1  A    between atoms: C_1  and  C_2
REMARK    2  A    between atoms: C_2  and  C_3
REMARK    3  A    between atoms: C_2  and  C_4
REMARK    4  A    between atoms: C_2  and  N_6
REMARK    5  A    between atoms: C_4  and  O_5
REMARK    6  A    between atoms: C_7  and  C_9
REMARK    7  A    between atoms: N_11  and  C_12
REMARK                            x       y       z     vdW  Elec       q    Type
REMARK                         _______ _______ _______ _____ _____    ______ ____
ROOT
ATOM      1  C   UNL     1       4.030   4.304  17.298  0.00  0.00    +0.000 A 
ATOM      2  N   UNL     1       4.181   4.170  15.945  0.00  0.00    +0.000 NA
ATOM      3  N   UNL     1       5.518   4.451  15.709  0.00  0.00    +0.000 N 
ATOM      4  C   UNL     1       6.137   4.790  16.871  0.00  0.00    +0.000 A 
ATOM      5  C   UNL     1       5.236   4.716  17.889  0.00  0.00    +0.000 A 
ATOM      6  C   UNL     1       5.735   5.239  19.184  0.00  0.00    +0.000 C 
ATOM      7  C   UNL     1       7.118   5.800  18.795  0.00  0.00    +0.000 C 
ATOM      8  C   UNL     1       8.241   4.876  18.447  0.00  0.00    +0.000 C 
ATOM      9  C   UNL     1       7.417   5.451  17.322  0.00  0.00    +0.000 C 
ENDROOT
BRANCH   3  10
ATOM     10  C   UNL     1       6.143   4.360  14.436  0.00  0.00    +0.000 A 
ATOM     11  C   UNL     1       5.656   3.499  13.452  0.00  0.00    +0.000 A 
ATOM     12  C   UNL     1       6.243   3.504  12.179  0.00  0.00    +0.000 A 
ATOM     13  C   UNL     1       7.327   4.337  11.894  0.00  0.00    +0.000 A 
ATOM     14  C   UNL     1       7.845   5.164  12.886  0.00  0.00    +0.000 A 
ATOM     15  C   UNL     1       7.257   5.173  14.150  0.00  0.00    +0.000 A 
ENDBRANCH   3  10
BRANCH   1  17
ATOM     16  N   UNL     1       2.892   3.560  19.310  0.00  0.00    +0.000 N 
ATOM     17  C   UNL     1       2.774   4.108  18.049  0.00  0.00    +0.000 C 
ATOM     18  O   UNL     1       1.693   4.425  17.568  0.00  0.00    +0.000 OA
ATOM     19  H   UNL     1       3.838   3.341  19.610  0.00  0.00    +0.000 HD
BRANCH  16  21
ATOM     20  C   UNL     1       0.711   2.441  19.487  0.00  0.00    +0.000 C 
ATOM     21  C   UNL     1       1.741   3.329  20.212  0.00  0.00    +0.000 C 
ATOM     22  C   UNL     1       1.039   4.662  20.551  0.00  0.00    +0.000 C 
BRANCH  21  23
ATOM     23  C   UNL     1       2.184   2.607  21.519  0.00  0.00    +0.000 C 
BRANCH  23  24
ATOM     24  O   UNL     1       1.100   2.401  22.426  0.00  0.00    +0.000 OA
ATOM     25  H   UNL     1       1.049   1.445  22.593  0.00  0.00    +0.000 HD
ENDBRANCH  23  24
ENDBRANCH  21  23
ENDBRANCH  16  21
ENDBRANCH   1  17
TORSDOF 5
ENDMDL
MODEL 9
REMARK VINA RESULT:      -7.8      4.053      5.640
REMARK  Name = 
REMARK  7 active torsions:
REMARK  status: ('A' for Active; 'I' for Inactive)
REMARK    1  A    between atoms: C_1  and  C_2
REMARK    2  A    between atoms: C_2  and  C_3
REMARK    3  A    between atoms: C_2  and  C_4
REMARK    4  A    between atoms: C_2  and  N_6
REMARK    5  A    between atoms: C_4  and  O_5
REMARK    6  A    between atoms: C_7  and  C_9
REMARK    7  A    between atoms: N_11  and  C_12
REMARK                            x       y       z     vdW  Elec       q    Type
REMARK                         _______ _______ _______ _____ _____    ______ ____
ROOT
ATOM      1  C   UNL     1       2.558   7.674  18.445  0.00  0.00    +0.000 A 
ATOM      2  N   UNL     1       3.655   7.491  17.649  0.00  0.00    +0.000 NA
ATOM      3  N   UNL     1       4.101   6.212  17.949  0.00  0.00    +0.000 N 
ATOM      4  C   UNL     1       3.329   5.666  18.926  0.00  0.00    +0.000 A 
ATOM      5  C   UNL     1       2.355   6.553  19.268  0.00  0.00    +0.000 A 
ATOM      6  C   UNL     1       1.555   6.155  20.452  0.00  0.00    +0.000 C 
ATOM      7  C   UNL     1       2.279   4.875  20.915  0.00  0.00    +0.000 C 
ATOM      8  C   UNL     1       2.183   3.617  20.112  0.00  0.00    +0.000 C 
ATOM      9  C   UNL     1       3.379   4.510  19.897  0.00  0.00    +0.000 C 
ENDROOT
BRANCH   3  10
ATOM     10  C   UNL     1       5.188   5.569  17.298  0.00  0.00    +0.000 A 
ATOM     11  C   UNL     1       6.399   5.356  17.956  0.00  0.00    +0.000 A 
ATOM     12  C   UNL     1       7.417   4.638  17.312  0.00  0.00    +0.000 A 
ATOM     13  C   UNL     1       7.244   4.161  16.012  0.00  0.00    +0.000 A 
ATOM     14  C   UNL     1       6.053   4.412  15.334  0.00  0.00    +0.000 A 
ATOM     15  C   UNL     1       5.034   5.114  15.974  0.00  0.00    +0.000 A 
ENDBRANCH   3  10
BRANCH   1  17
ATOM     16  N   UNL     1       1.158   9.197  19.716  0.00  0.00    +0.000 N 
ATOM     17  C   UNL     1       1.723   8.890  18.495  0.00  0.00    +0.000 C 
ATOM     18  O   UNL     1       1.555   9.584  17.499  0.00  0.00    +0.000 OA
ATOM     19  H   UNL     1       1.370   8.555  20.475  0.00  0.00    +0.000 HD
BRANCH  16  21
ATOM     20  C   UNL     1      -0.032  10.470  21.449  0.00  0.00    +0.000 C 
ATOM     21  C   UNL     1       0.323  10.397  19.952  0.00  0.00    +0.000 C 
ATOM     22  C   UNL     1      -1.005  10.300  19.170  0.00  0.00    +0.000 C 
BRANCH  21  23
ATOM     23  C   UNL     1       1.082  11.699  19.559  0.00  0.00    +0.000 C 
BRANCH  23  24
ATOM     24  O   UNL     1       0.622  12.251  18.325  0.00  0.00    +0.000 OA
ATOM     25  H   UNL     1      -0.337  12.382  18.414  0.00  0.00    +0.000 HD
ENDBRANCH  23  24
ENDBRANCH  21  23
ENDBRANCH  16  21
ENDBRANCH   1  17
TORSDOF 5
ENDMDL
