MODEL 1
REMARK VINA RESULT:      -7.6      0.000      0.000
REMARK  Name = 
REMARK  8 active torsions:
REMARK  status: ('A' for Active; 'I' for Inactive)
REMARK    1  A    between atoms: C_1  and  C_2
REMARK    2  A    between atoms: C_2  and  C_3
REMARK    3  A    between atoms: C_3  and  C_4
REMARK    4  A    between atoms: C_7  and  C_9
REMARK    5  A    between atoms: C_9  and  C_10
REMARK    6  A    between atoms: C_13  and  O_14
REMARK    7  A    between atoms: C_19  and  N_20
REMARK    8  A    between atoms: C_21  and  C_22
REMARK                            x       y       z     vdW  Elec       q    Type
REMARK                         _______ _______ _______ _____ _____    ______ ____
ROOT
ATOM      1  C   UNL     1       6.693   3.998  16.257  0.00  0.00    +0.000 C 
ATOM      2  C   UNL     1       5.375   4.209  17.006  0.00  0.00    +0.000 C 
ATOM      3  N   UNL     1       4.934   5.519  16.575  0.00  0.00    +0.000 N 
ATOM      4  C   UNL     1       4.288   6.481  17.323  0.00  0.00    +0.000 C 
ATOM      5  O   UNL     1       4.042   7.596  16.859  0.00  0.00    +0.000 OA
ATOM      6  C   UNL     1       5.449   5.827  15.243  0.00  0.00    +0.000 C 
ATOM      7  C   UNL     1       6.408   4.670  14.894  0.00  0.00    +0.000 C 
ENDROOT
BRANCH   7   8
ATOM      8  N   UNL     1       5.823   3.713  13.953  0.00  0.00    +0.000 N 
ATOM      9  C   UNL     1       6.269   3.631  12.652  0.00  0.00    +0.000 C 
ATOM     10  C   UNL     1       5.554   2.606  11.811  0.00  0.00    +0.000 C 
ATOM     11  O   UNL     1       7.177   4.324  12.203  0.00  0.00    +0.000 OA
ATOM     12  H   UNL     1       4.928   3.296  14.174  0.00  0.00    +0.000 HD
ENDBRANCH   7   8
BRANCH   1  13
ATOM     13  C   UNL     1       7.887   4.664  16.975  0.00  0.00    +0.000 C 
BRANCH  13  15
ATOM     14  C   UNL     1       7.848   6.534  18.678  0.00  0.00    +0.000 C 
ATOM     15  C   UNL     1       7.571   5.061  18.421  0.00  0.00    +0.000 C 
ENDBRANCH  13  15
ENDBRANCH   1  13
BRANCH   4  16
ATOM     16  C   UNL     1       3.909   6.144  18.760  0.00  0.00    +0.000 C 
BRANCH  16  17
ATOM     17  C   UNL     1       2.799   5.121  18.913  0.00  0.00    +0.000 A 
ATOM     18  C   UNL     1       1.970   4.752  17.842  0.00  0.00    +0.000 A 
ATOM     19  C   UNL     1       1.009   3.742  17.987  0.00  0.00    +0.000 A 
ATOM     20  C   UNL     1       0.877   3.079  19.206  0.00  0.00    +0.000 A 
ATOM     21  C   UNL     1       1.695   3.427  20.281  0.00  0.00    +0.000 A 
ATOM     22 CL   UNL     1       1.574   2.623  21.803  0.00  0.00    +0.000 Cl
ATOM     23  C   UNL     1       2.653   4.437  20.134  0.00  0.00    +0.000 A 
BRANCH  20  24
ATOM     24  O   UNL     1      -0.046   2.078  19.341  0.00  0.00    +0.000 OA
ATOM     25  H   UNL     1      -0.615   2.265  20.105  0.00  0.00    +0.000 HD
ENDBRANCH  20  24
ENDBRANCH  16  17
ENDBRANCH   4  16
TORSDOF 6
ENDMDL
MODEL 2
REMARK VINA RESULT:      -7.2      1.280      1.555
REMARK  Name = 
REMARK  8 active torsions:
REMARK  status: ('A' for Active; 'I' for Inactive)
REMARK    1  A    between atoms: C_1  and  C_2
REMARK    2  A    between atoms: C_2  and  C_3
REMARK    3  A    between atoms: C_3  and  C_4
REMARK    4  A    between atoms: C_7  and  C_9
REMARK    5  A    between atoms: C_9  and  C_10
REMARK    6  A    between atoms: C_13  and  O_14
REMARK    7  A    between atoms: C_19  and  N_20
REMARK    8  A    between atoms: C_21  and  C_22
REMARK                            x       y       z     vdW  Elec       q    Type
REMARK                         _______ _______ _______ _____ _____    ______ ____
ROOT
ATOM      1  C   UNL     1       6.348   5.530  17.248  0.00  0.00    +0.000 C 
ATOM      2  C   UNL     1       4.914   5.353  17.752  0.00  0.00    +0.000 C 
ATOM      3  N   UNL     1       4.216   6.511  17.233  0.00  0.00    +0.000 N 
ATOM      4  C   UNL     1       3.216   7.238  17.845  0.00  0.00    +0.000 C 
ATOM      5  O   UNL     1       2.761   8.262  17.330  0.00  0.00    +0.000 OA
ATOM      6  C   UNL     1       4.849   6.993  16.008  0.00  0.00    +0.000 C 
ATOM      7  C   UNL     1       6.130   6.148  15.847  0.00  0.00    +0.000 C 
ENDROOT
BRANCH   7   8
ATOM      8  N   UNL     1       5.996   5.102  14.831  0.00  0.00    +0.000 N 
ATOM      9  C   UNL     1       6.977   4.899  13.885  0.00  0.00    +0.000 C 
ATOM     10  C   UNL     1       6.679   3.795  12.905  0.00  0.00    +0.000 C 
ATOM     11  O   UNL     1       8.015   5.551  13.836  0.00  0.00    +0.000 OA
ATOM     12  H   UNL     1       5.082   4.703  14.658  0.00  0.00    +0.000 HD
ENDBRANCH   7   8
BRANCH   1  13
ATOM     13  C   UNL     1       7.177   6.467  18.154  0.00  0.00    +0.000 C 
BRANCH  13  15
ATOM     14  C   UNL     1       7.978   8.862  18.013  0.00  0.00    +0.000 C 
ATOM     15  C   UNL     1       8.002   7.488  17.363  0.00  0.00    +0.000 C 
ENDBRANCH  13  15
ENDBRANCH   1  13
BRANCH   4  16
ATOM     16  C   UNL     1       2.702   6.763  19.198  0.00  0.00    +0.000 C 
BRANCH  16  17
ATOM     17  C   UNL     1       2.135   5.356  19.216  0.00  0.00    +0.000 A 
ATOM     18  C   UNL     1       1.694   4.713  18.048  0.00  0.00    +0.000 A 
ATOM     19  C   UNL     1       1.255   3.382  18.078  0.00  0.00    +0.000 A 
ATOM     20  C   UNL     1       1.265   2.674  19.278  0.00  0.00    +0.000 A 
ATOM     21  C   UNL     1       1.704   3.293  20.449  0.00  0.00    +0.000 A 
ATOM     22 CL   UNL     1       1.745   2.450  21.954  0.00  0.00    +0.000 Cl
ATOM     23  C   UNL     1       2.141   4.623  20.417  0.00  0.00    +0.000 A 
BRANCH  20  24
ATOM     24  O   UNL     1       0.857   1.369  19.304  0.00  0.00    +0.000 OA
ATOM     25  H   UNL     1       0.740   1.049  18.394  0.00  0.00    +0.000 HD
ENDBRANCH  20  24
ENDBRANCH  16  17
ENDBRANCH   4  16
TORSDOF 6
ENDMDL
MODEL 3
REMARK VINA RESULT:      -6.7      3.006      4.813
REMARK  Name = 
REMARK  8 active torsions:
REMARK  status: ('A' for Active; 'I' for Inactive)
REMARK    1  A    between atoms: C_1  and  C_2
REMARK    2  A    between atoms: C_2  and  C_3
REMARK    3  A    between atoms: C_3  and  C_4
REMARK    4  A    between atoms: C_7  and  C_9
REMARK    5  A    between atoms: C_9  and  C_10
REMARK    6  A    between atoms: C_13  and  O_14
REMARK    7  A    between atoms: C_19  and  N_20
REMARK    8  A    between atoms: C_21  and  C_22
REMARK                            x       y       z     vdW  Elec       q    Type
REMARK                         _______ _______ _______ _____ _____    ______ ____
ROOT
ATOM      1  C   UNL     1       5.673   5.620  15.580  0.00  0.00    +0.000 C 
ATOM      2  C   UNL     1       4.672   5.774  16.727  0.00  0.00    +0.000 C 
ATOM      3  N   UNL     1       5.204   4.922  17.771  0.00  0.00    +0.000 N 
ATOM      4  C   UNL     1       4.500   4.146  18.668  0.00  0.00    +0.000 C 
ATOM      5  O   UNL     1       5.078   3.395  19.457  0.00  0.00    +0.000 OA
ATOM      6  C   UNL     1       6.654   4.797  17.649  0.00  0.00    +0.000 C 
ATOM      7  C   UNL     1       7.020   5.511  16.332  0.00  0.00    +0.000 C 
ENDROOT
BRANCH   7   8
ATOM      8  N   UNL     1       7.605   6.836  16.547  0.00  0.00    +0.000 N 
ATOM      9  C   UNL     1       7.853   7.307  17.818  0.00  0.00    +0.000 C 
ATOM     10  C   UNL     1       8.443   8.691  17.866  0.00  0.00    +0.000 C 
ATOM     11  O   UNL     1       7.624   6.661  18.836  0.00  0.00    +0.000 OA
ATOM     12  H   UNL     1       7.588   7.506  15.789  0.00  0.00    +0.000 HD
ENDBRANCH   7   8
BRANCH   1  13
ATOM     13  C   UNL     1       5.400   4.361  14.728  0.00  0.00    +0.000 C 
BRANCH  13  15
ATOM     14  C   UNL     1       5.917   3.403  12.444  0.00  0.00    +0.000 C 
ATOM     15  C   UNL     1       6.478   4.111  13.668  0.00  0.00    +0.000 C 
ENDBRANCH  13  15
ENDBRANCH   1  13
BRANCH   4  16
ATOM     16  C   UNL     1       2.978   4.212  18.641  0.00  0.00    +0.000 C 
BRANCH  16  17
ATOM     17  C   UNL     1       2.377   5.479  19.220  0.00  0.00    +0.000 A 
ATOM     18  C   UNL     1       1.881   5.540  20.532  0.00  0.00    +0.000 A 
ATOM     19  C   UNL     1       1.410   6.744  21.071  0.00  0.00    +0.000 A 
ATOM     20  C   UNL     1       1.441   7.908  20.305  0.00  0.00    +0.000 A 
ATOM     21  C   UNL     1       1.934   7.870  18.999  0.00  0.00    +0.000 A 
ATOM     22 CL   UNL     1       2.004   9.289  18.021  0.00  0.00    +0.000 Cl
ATOM     23  C   UNL     1       2.404   6.665  18.464  0.00  0.00    +0.000 A 
BRANCH  20  24
ATOM     24  O   UNL     1       1.002   9.089  20.838  0.00  0.00    +0.000 OA
ATOM     25  H   UNL     1       1.280   9.146  21.767  0.00  0.00    +0.000 HD
ENDBRANCH  20  24
ENDBRANCH  16  17
ENDBRANCH   4  16
TORSDOF 6
ENDMDL
MODEL 4
REMARK VINA RESULT:      -6.7      3.519      7.417
REMARK  Name = 
REMARK  8 active torsions:
REMARK  status: ('A' for Active; 'I' for Inactive)
REMARK    1  A    between atoms: C_1  and  C_2
REMARK    2  A    between atoms: C_2  and  C_3
REMARK    3  A    between atoms: C_3  and  C_4
REMARK    4  A    between atoms: C_7  and  C_9
REMARK    5  A    between atoms: C_9  and  C_10
REMARK    6  A    between atoms: C_13  and  O_14
REMARK    7  A    between atoms: C_19  and  N_20
REMARK    8  A    between atoms: C_21  and  C_22
REMARK                            x       y       z     vdW  Elec       q    Type
REMARK                         _______ _______ _______ _____ _____    ______ ____
ROOT
ATOM      1  C   UNL     1       2.391   5.217  20.098  0.00  0.00    +0.000 C 
ATOM      2  C   UNL     1       3.856   5.411  19.700  0.00  0.00    +0.000 C 
ATOM      3  N   UNL     1       3.795   6.335  18.586  0.00  0.00    +0.000 N 
ATOM      4  C   UNL     1       4.588   6.351  17.458  0.00  0.00    +0.000 C 
ATOM      5  O   UNL     1       4.376   7.143  16.537  0.00  0.00    +0.000 OA
ATOM      6  C   UNL     1       2.609   7.182  18.680  0.00  0.00    +0.000 C 
ATOM      7  C   UNL     1       1.799   6.627  19.870  0.00  0.00    +0.000 C 
ENDROOT
BRANCH   7   8
ATOM      8  N   UNL     1       1.926   7.447  21.075  0.00  0.00    +0.000 N 
ATOM      9  C   UNL     1       1.119   8.546  21.277  0.00  0.00    +0.000 C 
ATOM     10  C   UNL     1       1.387   9.289  22.560  0.00  0.00    +0.000 C 
ATOM     11  O   UNL     1       0.245   8.898  20.491  0.00  0.00    +0.000 OA
ATOM     12  H   UNL     1       2.767   7.369  21.632  0.00  0.00    +0.000 HD
ENDBRANCH   7   8
BRANCH   1  13
ATOM     13  C   UNL     1       1.681   4.159  19.225  0.00  0.00    +0.000 C 
BRANCH  13  15
ATOM     14  C   UNL     1       2.557   2.558  17.473  0.00  0.00    +0.000 C 
ATOM     15  C   UNL     1       2.553   2.929  18.947  0.00  0.00    +0.000 C 
ENDBRANCH  13  15
ENDBRANCH   1  13
BRANCH   4  16
ATOM     16  C   UNL     1       5.721   5.338  17.357  0.00  0.00    +0.000 C 
BRANCH  16  17
ATOM     17  C   UNL     1       6.006   4.823  15.959  0.00  0.00    +0.000 A 
ATOM     18  C   UNL     1       5.182   3.880  15.327  0.00  0.00    +0.000 A 
ATOM     19  C   UNL     1       5.417   3.486  14.003  0.00  0.00    +0.000 A 
ATOM     20  C   UNL     1       6.477   4.043  13.290  0.00  0.00    +0.000 A 
ATOM     21  C   UNL     1       7.306   4.987  13.899  0.00  0.00    +0.000 A 
ATOM     22 CL   UNL     1       8.621   5.712  13.049  0.00  0.00    +0.000 Cl
ATOM     23  C   UNL     1       7.069   5.378  15.221  0.00  0.00    +0.000 A 
BRANCH  20  24
ATOM     24  O   UNL     1       6.694   3.675  11.991  0.00  0.00    +0.000 OA
ATOM     25  H   UNL     1       7.261   2.887  11.969  0.00  0.00    +0.000 HD
ENDBRANCH  20  24
ENDBRANCH  16  17
ENDBRANCH   4  16
TORSDOF 6
ENDMDL
MODEL 5
REMARK VINA RESULT:      -6.6      3.483      4.053
REMARK  Name = 
REMARK  8 active torsions:
REMARK  status: ('A' for Active; 'I' for Inactive)
REMARK    1  A    between atoms: C_1  and  C_2
REMARK    2  A    between atoms: C_2  and  C_3
REMARK    3  A    between atoms: C_3  and  C_4
REMARK    4  A    between atoms: C_7  and  C_9
REMARK    5  A    between atoms: C_9  and  C_10
REMARK    6  A    between atoms: C_13  and  O_14
REMARK    7  A    between atoms: C_19  and  N_20
REMARK    8  A    between atoms: C_21  and  C_22
REMARK                            x       y       z     vdW  Elec       q    Type
REMARK                         _______ _______ _______ _____ _____    ______ ____
ROOT
ATOM      1  C   UNL     1       5.492   4.601  17.686  0.00  0.00    +0.000 C 
ATOM      2  C   UNL     1       4.030   4.994  17.910  0.00  0.00    +0.000 C 
ATOM      3  N   UNL     1       3.958   6.359  17.431  0.00  0.00    +0.000 N 
ATOM      4  C   UNL     1       3.212   7.397  17.950  0.00  0.00    +0.000 C 
ATOM      5  O   UNL     1       3.306   8.541  17.499  0.00  0.00    +0.000 OA
ATOM      6  C   UNL     1       4.968   6.603  16.404  0.00  0.00    +0.000 C 
ATOM      7  C   UNL     1       5.826   5.321  16.359  0.00  0.00    +0.000 C 
ENDROOT
BRANCH   7   8
ATOM      8  N   UNL     1       5.513   4.469  15.210  0.00  0.00    +0.000 N 
ATOM      9  C   UNL     1       6.294   4.490  14.075  0.00  0.00    +0.000 C 
ATOM     10  C   UNL     1       5.828   3.565  12.981  0.00  0.00    +0.000 C 
ATOM     11  O   UNL     1       7.292   5.193  13.952  0.00  0.00    +0.000 OA
ATOM     12  H   UNL     1       4.590   4.061  15.142  0.00  0.00    +0.000 HD
ENDBRANCH   7   8
BRANCH   1  13
ATOM     13  C   UNL     1       6.410   5.079  18.832  0.00  0.00    +0.000 C 
BRANCH  13  15
ATOM     14  C   UNL     1       8.035   7.004  18.600  0.00  0.00    +0.000 C 
ATOM     15  C   UNL     1       7.793   5.524  18.346  0.00  0.00    +0.000 C 
ENDBRANCH  13  15
ENDBRANCH   1  13
BRANCH   4  16
ATOM     16  C   UNL     1       2.285   7.105  19.123  0.00  0.00    +0.000 C 
BRANCH  16  17
ATOM     17  C   UNL     1       1.533   8.305  19.667  0.00  0.00    +0.000 A 
ATOM     18  C   UNL     1       1.014   9.305  18.829  0.00  0.00    +0.000 A 
ATOM     19  C   UNL     1       0.249  10.357  19.349  0.00  0.00    +0.000 A 
ATOM     20  C   UNL     1      -0.017  10.414  20.715  0.00  0.00    +0.000 A 
ATOM     21  C   UNL     1       0.486   9.428  21.565  0.00  0.00    +0.000 A 
ATOM     22 CL   UNL     1       0.169   9.452  23.261  0.00  0.00    +0.000 Cl
ATOM     23  C   UNL     1       1.250   8.378  21.043  0.00  0.00    +0.000 A 
BRANCH  20  24
ATOM     24  O   UNL     1      -0.782  11.430  21.220  0.00  0.00    +0.000 OA
ATOM     25  H   UNL     1      -1.682  11.104  21.386  0.00  0.00    +0.000 HD
ENDBRANCH  20  24
ENDBRANCH  16  17
ENDBRANCH   4  16
TORSDOF 6
ENDMDL
MODEL 6
REMARK VINA RESULT:      -6.5      4.567      5.855
REMARK  Name = 
REMARK  8 active torsions:
REMARK  status: ('A' for Active; 'I' for Inactive)
REMARK    1  A    between atoms: C_1  and  C_2
REMARK    2  A    between atoms: C_2  and  C_3
REMARK    3  A    between atoms: C_3  and  C_4
REMARK    4  A    between atoms: C_7  and  C_9
REMARK    5  A    between atoms: C_9  and  C_10
REMARK    6  A    between atoms: C_13  and  O_14
REMARK    7  A    between atoms: C_19  and  N_20
REMARK    8  A    between atoms: C_21  and  C_22
REMARK                            x       y       z     vdW  Elec       q    Type
REMARK                         _______ _______ _______ _____ _____    ______ ____
ROOT
ATOM      1  C   UNL     1       3.046   5.540  18.437  0.00  0.00    +0.000 C 
ATOM      2  C   UNL     1       2.018   6.464  17.781  0.00  0.00    +0.000 C 
ATOM      3  N   UNL     1       2.719   7.724  17.642  0.00  0.00    +0.000 N 
ATOM      4  C   UNL     1       2.205   8.996  17.781  0.00  0.00    +0.000 C 
ATOM      5  O   UNL     1       2.932   9.991  17.722  0.00  0.00    +0.000 OA
ATOM      6  C   UNL     1       4.159   7.505  17.533  0.00  0.00    +0.000 C 
ATOM      7  C   UNL     1       4.367   5.996  17.775  0.00  0.00    +0.000 C 
ENDROOT
BRANCH   7   8
ATOM      8  N   UNL     1       4.616   5.251  16.540  0.00  0.00    +0.000 N 
ATOM      9  C   UNL     1       5.795   4.564  16.349  0.00  0.00    +0.000 C 
ATOM     10  C   UNL     1       5.899   3.863  15.020  0.00  0.00    +0.000 C 
ATOM     11  O   UNL     1       6.692   4.513  17.184  0.00  0.00    +0.000 OA
ATOM     12  H   UNL     1       4.046   5.449  15.728  0.00  0.00    +0.000 HD
ENDBRANCH   7   8
BRANCH   1  13
ATOM     13  C   UNL     1       3.095   5.712  19.971  0.00  0.00    +0.000 C 
BRANCH  13  15
ATOM     14  C   UNL     1       1.294   4.060  20.627  0.00  0.00    +0.000 C 
ATOM     15  C   UNL     1       1.729   5.517  20.639  0.00  0.00    +0.000 C 
ENDBRANCH  13  15
ENDBRANCH   1  13
BRANCH   4  16
ATOM     16  C   UNL     1       0.712   9.147  18.043  0.00  0.00    +0.000 C 
BRANCH  16  17
ATOM     17  C   UNL     1       0.344   9.593  19.446  0.00  0.00    +0.000 A 
ATOM     18  C   UNL     1       0.931   9.026  20.588  0.00  0.00    +0.000 A 
ATOM     19  C   UNL     1       0.638   9.514  21.868  0.00  0.00    +0.000 A 
ATOM     20  C   UNL     1      -0.239  10.587  22.019  0.00  0.00    +0.000 A 
ATOM     21  C   UNL     1      -0.830  11.167  20.896  0.00  0.00    +0.000 A 
ATOM     22 CL   UNL     1      -1.910  12.505  21.036  0.00  0.00    +0.000 Cl
ATOM     23  C   UNL     1      -0.535  10.677  19.618  0.00  0.00    +0.000 A 
BRANCH  20  24
ATOM     24  O   UNL     1      -0.508  11.078  23.267  0.00  0.00    +0.000 OA
ATOM     25  H   UNL     1      -1.377  10.758  23.559  0.00  0.00    +0.000 HD
ENDBRANCH  20  24
ENDBRANCH  16  17
ENDBRANCH   4  16
TORSDOF 6
ENDMDL
MODEL 7
REMARK VINA RESULT:      -6.5      3.286      6.843
REMARK  Name = 
REMARK  8 active torsions:
REMARK  status: ('A' for Active; 'I' for Inactive)
REMARK    1  A    between atoms: C_1  and  C_2
REMARK    2  A    between atoms: C_2  and  C_3
REMARK    3  A    between atoms: C_3  and  C_4
REMARK    4  A    between atoms: C_7  and  C_9
REMARK    5  A    between atoms: C_9  and  C_10
REMARK    6  A    between atoms: C_13  and  O_14
REMARK    7  A    between atoms: C_19  and  N_20
REMARK    8  A    between atoms: C_21  and  C_22
REMARK                            x       y       z     vdW  Elec       q    Type
REMARK                         _______ _______ _______ _____ _____    ______ ____
ROOT
ATOM      1  C   UNL     1       2.649   6.483  18.046  0.00  0.00    +0.000 C 
ATOM      2  C   UNL     1       3.924   5.917  17.418  0.00  0.00    +0.000 C 
ATOM      3  N   UNL     1       4.734   5.536  18.556  0.00  0.00    +0.000 N 
ATOM      4  C   UNL     1       6.104   5.628  18.686  0.00  0.00    +0.000 C 
ATOM      5  O   UNL     1       6.668   5.348  19.747  0.00  0.00    +0.000 OA
ATOM      6  C   UNL     1       3.893   5.212  19.706  0.00  0.00    +0.000 C 
ATOM      7  C   UNL     1       2.455   5.569  19.278  0.00  0.00    +0.000 C 
ENDROOT
BRANCH   7   8
ATOM      8  N   UNL     1       1.656   4.392  18.932  0.00  0.00    +0.000 N 
ATOM      9  C   UNL     1       1.193   3.534  19.907  0.00  0.00    +0.000 C 
ATOM     10  C   UNL     1       0.400   2.366  19.383  0.00  0.00    +0.000 C 
ATOM     11  O   UNL     1       1.396   3.699  21.106  0.00  0.00    +0.000 OA
ATOM     12  H   UNL     1       1.661   4.062  17.975  0.00  0.00    +0.000 HD
ENDBRANCH   7   8
BRANCH   1  13
ATOM     13  C   UNL     1       2.806   7.963  18.462  0.00  0.00    +0.000 C 
BRANCH  13  15
ATOM     14  C   UNL     1       0.955   9.672  18.683  0.00  0.00    +0.000 C 
ATOM     15  C   UNL     1       1.843   8.898  17.722  0.00  0.00    +0.000 C 
ENDBRANCH  13  15
ENDBRANCH   1  13
BRANCH   4  16
ATOM     16  C   UNL     1       6.912   6.118  17.491  0.00  0.00    +0.000 C 
BRANCH  16  17
ATOM     17  C   UNL     1       6.803   5.261  16.243  0.00  0.00    +0.000 A 
ATOM     18  C   UNL     1       6.032   4.089  16.206  0.00  0.00    +0.000 A 
ATOM     19  C   UNL     1       5.878   3.363  15.017  0.00  0.00    +0.000 A 
ATOM     20  C   UNL     1       6.485   3.811  13.846  0.00  0.00    +0.000 A 
ATOM     21  C   UNL     1       7.252   4.977  13.860  0.00  0.00    +0.000 A 
ATOM     22 CL   UNL     1       8.011   5.574  12.431  0.00  0.00    +0.000 Cl
ATOM     23  C   UNL     1       7.405   5.699  15.049  0.00  0.00    +0.000 A 
BRANCH  20  24
ATOM     24  O   UNL     1       6.317   3.114  12.681  0.00  0.00    +0.000 OA
ATOM     25  H   UNL     1       6.950   3.436  12.018  0.00  0.00    +0.000 HD
ENDBRANCH  20  24
ENDBRANCH  16  17
ENDBRANCH   4  16
TORSDOF 6
ENDMDL
MODEL 8
REMARK VINA RESULT:      -6.5      5.573      8.077
REMARK  Name = 
REMARK  8 active torsions:
REMARK  status: ('A' for Active; 'I' for Inactive)
REMARK    1  A    between atoms: C_1  and  C_2
REMARK    2  A    between atoms: C_2  and  C_3
REMARK    3  A    between atoms: C_3  and  C_4
REMARK    4  A    between atoms: C_7  and  C_9
REMARK    5  A    between atoms: C_9  and  C_10
REMARK    6  A    between atoms: C_13  and  O_14
REMARK    7  A    between atoms: C_19  and  N_20
REMARK    8  A    between atoms: C_21  and  C_22
REMARK                            x       y       z     vdW  Elec       q    Type
REMARK                         _______ _______ _______ _____ _____    ______ ____
ROOT
ATOM      1  C   UNL     1       0.641  11.181  18.559  0.00  0.00    +0.000 C 
ATOM      2  C   UNL     1       0.882   9.675  18.441  0.00  0.00    +0.000 C 
ATOM      3  N   UNL     1       0.733   9.190  19.798  0.00  0.00    +0.000 N 
ATOM      4  C   UNL     1       1.444   8.184  20.418  0.00  0.00    +0.000 C 
ATOM      5  O   UNL     1       1.277   7.924  21.612  0.00  0.00    +0.000 OA
ATOM      6  C   UNL     1      -0.162  10.056  20.562  0.00  0.00    +0.000 C 
ATOM      7  C   UNL     1      -0.465  11.253  19.637  0.00  0.00    +0.000 C 
ENDROOT
BRANCH   7   8
ATOM      8  N   UNL     1      -1.793  11.178  19.028  0.00  0.00    +0.000 N 
ATOM      9  C   UNL     1      -2.781  12.081  19.358  0.00  0.00    +0.000 C 
ATOM     10  C   UNL     1      -4.092  11.856  18.652  0.00  0.00    +0.000 C 
ATOM     11  O   UNL     1      -2.618  13.001  20.153  0.00  0.00    +0.000 OA
ATOM     12  H   UNL     1      -2.071  10.321  18.566  0.00  0.00    +0.000 HD
ENDBRANCH   7   8
BRANCH   1  13
ATOM     13  C   UNL     1       1.909  11.946  19.000  0.00  0.00    +0.000 C 
BRANCH  13  15
ATOM     14  C   UNL     1       3.141  14.117  18.592  0.00  0.00    +0.000 C 
ATOM     15  C   UNL     1       2.391  12.958  17.955  0.00  0.00    +0.000 C 
ENDBRANCH  13  15
ENDBRANCH   1  13
BRANCH   4  16
ATOM     16  C   UNL     1       2.472   7.415  19.598  0.00  0.00    +0.000 C 
BRANCH  16  17
ATOM     17  C   UNL     1       2.111   5.973  19.297  0.00  0.00    +0.000 A 
ATOM     18  C   UNL     1       2.141   5.451  17.994  0.00  0.00    +0.000 A 
ATOM     19  C   UNL     1       1.888   4.094  17.754  0.00  0.00    +0.000 A 
ATOM     20  C   UNL     1       1.612   3.239  18.819  0.00  0.00    +0.000 A 
ATOM     21  C   UNL     1       1.581   3.737  20.122  0.00  0.00    +0.000 A 
ATOM     22 CL   UNL     1       1.257   2.712  21.471  0.00  0.00    +0.000 Cl
ATOM     23  C   UNL     1       1.834   5.093  20.360  0.00  0.00    +0.000 A 
BRANCH  20  24
ATOM     24  O   UNL     1       1.386   1.910  18.587  0.00  0.00    +0.000 OA
ATOM     25  H   UNL     1       2.081   1.385  19.014  0.00  0.00    +0.000 HD
ENDBRANCH  20  24
ENDBRANCH  16  17
ENDBRANCH   4  16
TORSDOF 6
ENDMDL
MODEL 9
REMARK VINA RESULT:      -6.4      3.241      5.183
REMARK  Name = 
REMARK  8 active torsions:
REMARK  status: ('A' for Active; 'I' for Inactive)
REMARK    1  A    between atoms: C_1  and  C_2
REMARK    2  A    between atoms: C_2  and  C_3
REMARK    3  A    between atoms: C_3  and  C_4
REMARK    4  A    between atoms: C_7  and  C_9
REMARK    5  A    between atoms: C_9  and  C_10
REMARK    6  A    between atoms: C_13  and  O_14
REMARK    7  A    between atoms: C_19  and  N_20
REMARK    8  A    between atoms: C_21  and  C_22
REMARK                            x       y       z     vdW  Elec       q    Type
REMARK                         _______ _______ _______ _____ _____    ______ ____
ROOT
ATOM      1  C   UNL     1       6.905   6.508  17.054  0.00  0.00    +0.000 C 
ATOM      2  C   UNL     1       5.554   6.533  17.771  0.00  0.00    +0.000 C 
ATOM      3  N   UNL     1       5.643   5.447  18.725  0.00  0.00    +0.000 N 
ATOM      4  C   UNL     1       4.642   4.584  19.118  0.00  0.00    +0.000 C 
ATOM      5  O   UNL     1       4.871   3.641  19.878  0.00  0.00    +0.000 OA
ATOM      6  C   UNL     1       7.033   5.205  19.106  0.00  0.00    +0.000 C 
ATOM      7  C   UNL     1       7.875   6.123  18.195  0.00  0.00    +0.000 C 
ENDROOT
BRANCH   7   8
ATOM      8  N   UNL     1       8.365   7.316  18.888  0.00  0.00    +0.000 N 
ATOM      9  C   UNL     1       8.423   8.536  18.250  0.00  0.00    +0.000 C 
ATOM     10  C   UNL     1       8.964   9.657  19.098  0.00  0.00    +0.000 C 
ATOM     11  O   UNL     1       8.062   8.712  17.091  0.00  0.00    +0.000 OA
ATOM     12  H   UNL     1       8.900   7.201  19.739  0.00  0.00    +0.000 HD
ENDBRANCH   7   8
BRANCH   1  13
ATOM     13  C   UNL     1       6.942   5.472  15.909  0.00  0.00    +0.000 C 
BRANCH  13  15
ATOM     14  C   UNL     1       5.612   4.154  14.209  0.00  0.00    +0.000 C 
ATOM     15  C   UNL     1       5.579   5.274  15.237  0.00  0.00    +0.000 C 
ENDBRANCH  13  15
ENDBRANCH   1  13
BRANCH   4  16
ATOM     16  C   UNL     1       3.240   4.804  18.564  0.00  0.00    +0.000 C 
BRANCH  16  17
ATOM     17  C   UNL     1       2.520   6.029  19.095  0.00  0.00    +0.000 A 
ATOM     18  C   UNL     1       2.000   6.084  20.398  0.00  0.00    +0.000 A 
ATOM     19  C   UNL     1       1.417   7.258  20.894  0.00  0.00    +0.000 A 
ATOM     20  C   UNL     1       1.358   8.397  20.092  0.00  0.00    +0.000 A 
ATOM     21  C   UNL     1       1.873   8.364  18.796  0.00  0.00    +0.000 A 
ATOM     22 CL   UNL     1       1.833   9.754  17.775  0.00  0.00    +0.000 Cl
ATOM     23  C   UNL     1       2.455   7.190  18.303  0.00  0.00    +0.000 A 
BRANCH  20  24
ATOM     24  O   UNL     1       0.808   9.549  20.583  0.00  0.00    +0.000 OA
ATOM     25  H   UNL     1       1.461  10.008  21.136  0.00  0.00    +0.000 HD
ENDBRANCH  20  24
ENDBRANCH  16  17
ENDBRANCH   4  16
TORSDOF 6
ENDMDL
