MODEL 1
REMARK VINA RESULT:      -7.3      0.000      0.000
REMARK  Name = 
REMARK  6 active torsions:
REMARK  status: ('A' for Active; 'I' for Inactive)
REMARK    1  A    between atoms: C_1  and  N_2
REMARK    2  A    between atoms: C_5  and  C_6
REMARK    3  A    between atoms: C_6  and  O_8
REMARK    4  A    between atoms: O_8  and  C_9
REMARK    5  A    between atoms: C_9  and  C_10
REMARK    6  A    between atoms: N_12  and  C_13
REMARK                            x       y       z     vdW  Elec       q    Type
REMARK                         _______ _______ _______ _____ _____    ______ ____
ROOT
ATOM      1  C   UNL     1       6.622   5.744  19.053  0.00  0.00    +0.000 C 
ENDROOT
BRANCH   1   2
ATOM      2  C   UNL     1       5.479   4.742  19.208  0.00  0.00    +0.000 C 
ATOM      3  O   UNL     1       5.718   3.538  19.250  0.00  0.00    +0.000 OA
ATOM      4  N   UNL     1       4.225   5.331  19.255  0.00  0.00    +0.000 N 
ATOM      5  H   UNL     1       4.169   6.314  18.989  0.00  0.00    +0.000 HD
BRANCH   4   6
ATOM      6  C   UNL     1       2.997   4.652  19.432  0.00  0.00    +0.000 A 
ATOM      7  C   UNL     1       2.406   4.465  20.685  0.00  0.00    +0.000 A 
ATOM      8  C   UNL     1       1.208   3.762  20.811  0.00  0.00    +0.000 A 
ATOM      9  C   UNL     1       0.582   3.240  19.685  0.00  0.00    +0.000 A 
ATOM     10  C   UNL     1       1.150   3.436  18.426  0.00  0.00    +0.000 A 
ATOM     11  C   UNL     1       2.347   4.146  18.298  0.00  0.00    +0.000 A 
ENDBRANCH   4   6
ENDBRANCH   1   2
BRANCH   1  12
ATOM     12  O   UNL     1       7.476   5.424  17.960  0.00  0.00    +0.000 OA
BRANCH  12  13
ATOM     13  C   UNL     1       7.302   6.184  16.841  0.00  0.00    +0.000 C 
ATOM     14  O   UNL     1       7.471   7.402  16.818  0.00  0.00    +0.000 OA
BRANCH  13  19
ATOM     15  C   UNL     1       7.300   4.326  12.370  0.00  0.00    +0.000 C 
ATOM     16  N   UNL     1       6.843   4.569  13.718  0.00  0.00    +0.000 N 
ATOM     17  C   UNL     1       5.766   4.011  14.335  0.00  0.00    +0.000 A 
ATOM     18  C   UNL     1       5.756   4.525  15.610  0.00  0.00    +0.000 A 
ATOM     19  C   UNL     1       6.873   5.403  15.675  0.00  0.00    +0.000 A 
ATOM     20  N   UNL     1       7.524   5.426  14.496  0.00  0.00    +0.000 NA
ENDBRANCH  13  19
ENDBRANCH  12  13
ENDBRANCH   1  12
TORSDOF 5
ENDMDL
MODEL 2
REMARK VINA RESULT:      -7.2      1.258      1.264
REMARK  Name = 
REMARK  6 active torsions:
REMARK  status: ('A' for Active; 'I' for Inactive)
REMARK    1  A    between atoms: C_1  and  N_2
REMARK    2  A    between atoms: C_5  and  C_6
REMARK    3  A    between atoms: C_6  and  O_8
REMARK    4  A    between atoms: O_8  and  C_9
REMARK    5  A    between atoms: C_9  and  C_10
REMARK    6  A    between atoms: N_12  and  C_13
REMARK                            x       y       z     vdW  Elec       q    Type
REMARK                         _______ _______ _______ _____ _____    ______ ____
ROOT
ATOM      1  C   UNL     1       7.105   5.406  19.142  0.00  0.00    +0.000 C 
ENDROOT
BRANCH   1   2
ATOM      2  C   UNL     1       5.608   5.098  19.184  0.00  0.00    +0.000 C 
ATOM      3  O   UNL     1       4.795   6.013  19.276  0.00  0.00    +0.000 OA
ATOM      4  N   UNL     1       5.318   3.743  19.145  0.00  0.00    +0.000 N 
ATOM      5  H   UNL     1       6.098   3.102  19.292  0.00  0.00    +0.000 HD
BRANCH   4   6
ATOM      6  C   UNL     1       4.024   3.173  19.132  0.00  0.00    +0.000 A 
ATOM      7  C   UNL     1       3.248   3.020  20.285  0.00  0.00    +0.000 A 
ATOM      8  C   UNL     1       1.989   2.424  20.224  0.00  0.00    +0.000 A 
ATOM      9  C   UNL     1       1.485   1.977  19.008  0.00  0.00    +0.000 A 
ATOM     10  C   UNL     1       2.239   2.141  17.847  0.00  0.00    +0.000 A 
ATOM     11  C   UNL     1       3.499   2.744  17.905  0.00  0.00    +0.000 A 
ENDBRANCH   4   6
ENDBRANCH   1   2
BRANCH   1  12
ATOM     12  O   UNL     1       7.685   5.093  17.881  0.00  0.00    +0.000 OA
BRANCH  12  13
ATOM     13  C   UNL     1       7.336   5.922  16.855  0.00  0.00    +0.000 C 
ATOM     14  O   UNL     1       7.345   7.149  16.946  0.00  0.00    +0.000 OA
BRANCH  13  19
ATOM     15  C   UNL     1       7.295   4.464  12.239  0.00  0.00    +0.000 C 
ATOM     16  N   UNL     1       6.887   4.539  13.622  0.00  0.00    +0.000 N 
ATOM     17  C   UNL     1       5.909   3.814  14.231  0.00  0.00    +0.000 A 
ATOM     18  C   UNL     1       5.912   4.214  15.547  0.00  0.00    +0.000 A 
ATOM     19  C   UNL     1       6.932   5.201  15.643  0.00  0.00    +0.000 A 
ATOM     20  N   UNL     1       7.514   5.396  14.444  0.00  0.00    +0.000 NA
ENDBRANCH  13  19
ENDBRANCH  12  13
ENDBRANCH   1  12
TORSDOF 5
ENDMDL
MODEL 3
REMARK VINA RESULT:      -7.2      1.105      1.327
REMARK  Name = 
REMARK  6 active torsions:
REMARK  status: ('A' for Active; 'I' for Inactive)
REMARK    1  A    between atoms: C_1  and  N_2
REMARK    2  A    between atoms: C_5  and  C_6
REMARK    3  A    between atoms: C_6  and  O_8
REMARK    4  A    between atoms: O_8  and  C_9
REMARK    5  A    between atoms: C_9  and  C_10
REMARK    6  A    between atoms: N_12  and  C_13
REMARK                            x       y       z     vdW  Elec       q    Type
REMARK                         _______ _______ _______ _____ _____    ______ ____
ROOT
ATOM      1  C   UNL     1       5.590   6.698  17.462  0.00  0.00    +0.000 C 
ENDROOT
BRANCH   1   2
ATOM      2  C   UNL     1       4.771   5.812  18.401  0.00  0.00    +0.000 C 
ATOM      3  O   UNL     1       5.225   5.493  19.496  0.00  0.00    +0.000 OA
ATOM      4  N   UNL     1       3.553   5.417  17.871  0.00  0.00    +0.000 N 
ATOM      5  H   UNL     1       3.412   5.578  16.874  0.00  0.00    +0.000 HD
BRANCH   4   6
ATOM      6  C   UNL     1       2.579   4.631  18.530  0.00  0.00    +0.000 A 
ATOM      7  C   UNL     1       2.007   4.996  19.752  0.00  0.00    +0.000 A 
ATOM      8  C   UNL     1       1.072   4.172  20.378  0.00  0.00    +0.000 A 
ATOM      9  C   UNL     1       0.692   2.973  19.787  0.00  0.00    +0.000 A 
ATOM     10  C   UNL     1       1.239   2.605  18.557  0.00  0.00    +0.000 A 
ATOM     11  C   UNL     1       2.171   3.433  17.927  0.00  0.00    +0.000 A 
ENDBRANCH   4   6
ENDBRANCH   1   2
BRANCH   1  12
ATOM     12  O   UNL     1       6.979   6.393  17.507  0.00  0.00    +0.000 OA
BRANCH  12  13
ATOM     13  C   UNL     1       7.307   5.110  17.178  0.00  0.00    +0.000 C 
ATOM     14  O   UNL     1       7.812   4.317  17.971  0.00  0.00    +0.000 OA
BRANCH  13  19
ATOM     15  C   UNL     1       7.613   5.141  12.346  0.00  0.00    +0.000 C 
ATOM     16  N   UNL     1       7.124   4.771  13.654  0.00  0.00    +0.000 N 
ATOM     17  C   UNL     1       6.158   3.856  13.942  0.00  0.00    +0.000 A 
ATOM     18  C   UNL     1       6.063   3.832  15.314  0.00  0.00    +0.000 A 
ATOM     19  C   UNL     1       7.015   4.782  15.778  0.00  0.00    +0.000 A 
ATOM     20  N   UNL     1       7.651   5.358  14.740  0.00  0.00    +0.000 NA
ENDBRANCH  13  19
ENDBRANCH  12  13
ENDBRANCH   1  12
TORSDOF 5
ENDMDL
MODEL 4
REMARK VINA RESULT:      -7.2      1.098      1.644
REMARK  Name = 
REMARK  6 active torsions:
REMARK  status: ('A' for Active; 'I' for Inactive)
REMARK    1  A    between atoms: C_1  and  N_2
REMARK    2  A    between atoms: C_5  and  C_6
REMARK    3  A    between atoms: C_6  and  O_8
REMARK    4  A    between atoms: O_8  and  C_9
REMARK    5  A    between atoms: C_9  and  C_10
REMARK    6  A    between atoms: N_12  and  C_13
REMARK                            x       y       z     vdW  Elec       q    Type
REMARK                         _______ _______ _______ _____ _____    ______ ____
ROOT
ATOM      1  C   UNL     1       5.573   6.599  17.543  0.00  0.00    +0.000 C 
ENDROOT
BRANCH   1   2
ATOM      2  C   UNL     1       4.770   5.688  18.470  0.00  0.00    +0.000 C 
ATOM      3  O   UNL     1       5.217   5.387  19.574  0.00  0.00    +0.000 OA
ATOM      4  N   UNL     1       3.574   5.250  17.922  0.00  0.00    +0.000 N 
ATOM      5  H   UNL     1       3.444   5.404  16.923  0.00  0.00    +0.000 HD
BRANCH   4   6
ATOM      6  C   UNL     1       2.617   4.432  18.567  0.00  0.00    +0.000 A 
ATOM      7  C   UNL     1       2.242   3.176  18.083  0.00  0.00    +0.000 A 
ATOM      8  C   UNL     1       1.271   2.419  18.739  0.00  0.00    +0.000 A 
ATOM      9  C   UNL     1       0.664   2.908  19.891  0.00  0.00    +0.000 A 
ATOM     10  C   UNL     1       1.044   4.151  20.396  0.00  0.00    +0.000 A 
ATOM     11  C   UNL     1       2.021   4.907  19.744  0.00  0.00    +0.000 A 
ENDBRANCH   4   6
ENDBRANCH   1   2
BRANCH   1  12
ATOM     12  O   UNL     1       6.970   6.333  17.601  0.00  0.00    +0.000 OA
BRANCH  12  13
ATOM     13  C   UNL     1       7.340   5.073  17.231  0.00  0.00    +0.000 C 
ATOM     14  O   UNL     1       7.883   4.277  17.996  0.00  0.00    +0.000 OA
BRANCH  13  19
ATOM     15  C   UNL     1       7.640   5.197  12.401  0.00  0.00    +0.000 C 
ATOM     16  N   UNL     1       7.150   4.805  13.701  0.00  0.00    +0.000 N 
ATOM     17  C   UNL     1       6.179   3.891  13.973  0.00  0.00    +0.000 A 
ATOM     18  C   UNL     1       6.085   3.841  15.344  0.00  0.00    +0.000 A 
ATOM     19  C   UNL     1       7.044   4.774  15.826  0.00  0.00    +0.000 A 
ATOM     20  N   UNL     1       7.683   5.367  14.798  0.00  0.00    +0.000 NA
ENDBRANCH  13  19
ENDBRANCH  12  13
ENDBRANCH   1  12
TORSDOF 5
ENDMDL
MODEL 5
REMARK VINA RESULT:      -7.2      1.179      1.761
REMARK  Name = 
REMARK  6 active torsions:
REMARK  status: ('A' for Active; 'I' for Inactive)
REMARK    1  A    between atoms: C_1  and  N_2
REMARK    2  A    between atoms: C_5  and  C_6
REMARK    3  A    between atoms: C_6  and  O_8
REMARK    4  A    between atoms: O_8  and  C_9
REMARK    5  A    between atoms: C_9  and  C_10
REMARK    6  A    between atoms: N_12  and  C_13
REMARK                            x       y       z     vdW  Elec       q    Type
REMARK                         _______ _______ _______ _____ _____    ______ ____
ROOT
ATOM      1  C   UNL     1       6.400   5.532  19.248  0.00  0.00    +0.000 C 
ENDROOT
BRANCH   1   2
ATOM      2  C   UNL     1       4.898   5.268  19.144  0.00  0.00    +0.000 C 
ATOM      3  O   UNL     1       4.142   6.159  18.767  0.00  0.00    +0.000 OA
ATOM      4  N   UNL     1       4.529   3.991  19.539  0.00  0.00    +0.000 N 
ATOM      5  H   UNL     1       5.233   3.442  20.032  0.00  0.00    +0.000 HD
BRANCH   4   6
ATOM      6  C   UNL     1       3.218   3.461  19.510  0.00  0.00    +0.000 A 
ATOM      7  C   UNL     1       2.695   2.787  18.403  0.00  0.00    +0.000 A 
ATOM      8  C   UNL     1       1.385   2.310  18.411  0.00  0.00    +0.000 A 
ATOM      9  C   UNL     1       0.581   2.495  19.530  0.00  0.00    +0.000 A 
ATOM     10  C   UNL     1       1.096   3.148  20.650  0.00  0.00    +0.000 A 
ATOM     11  C   UNL     1       2.411   3.621  20.644  0.00  0.00    +0.000 A 
ENDBRANCH   4   6
ENDBRANCH   1   2
BRANCH   1  12
ATOM     12  O   UNL     1       6.981   5.845  17.988  0.00  0.00    +0.000 OA
BRANCH  12  13
ATOM     13  C   UNL     1       7.544   4.793  17.326  0.00  0.00    +0.000 C 
ATOM     14  O   UNL     1       8.386   4.050  17.830  0.00  0.00    +0.000 OA
BRANCH  13  19
ATOM     15  C   UNL     1       7.429   5.106  12.496  0.00  0.00    +0.000 C 
ATOM     16  N   UNL     1       6.978   4.772  13.827  0.00  0.00    +0.000 N 
ATOM     17  C   UNL     1       5.841   4.105  14.166  0.00  0.00    +0.000 A 
ATOM     18  C   UNL     1       5.861   4.003  15.537  0.00  0.00    +0.000 A 
ATOM     19  C   UNL     1       7.059   4.652  15.949  0.00  0.00    +0.000 A 
ATOM     20  N   UNL     1       7.727   5.129  14.882  0.00  0.00    +0.000 NA
ENDBRANCH  13  19
ENDBRANCH  12  13
ENDBRANCH   1  12
TORSDOF 5
ENDMDL
MODEL 6
REMARK VINA RESULT:      -7.2      1.279      1.684
REMARK  Name = 
REMARK  6 active torsions:
REMARK  status: ('A' for Active; 'I' for Inactive)
REMARK    1  A    between atoms: C_1  and  N_2
REMARK    2  A    between atoms: C_5  and  C_6
REMARK    3  A    between atoms: C_6  and  O_8
REMARK    4  A    between atoms: O_8  and  C_9
REMARK    5  A    between atoms: C_9  and  C_10
REMARK    6  A    between atoms: N_12  and  C_13
REMARK                            x       y       z     vdW  Elec       q    Type
REMARK                         _______ _______ _______ _____ _____    ______ ____
ROOT
ATOM      1  C   UNL     1       7.375   5.069  18.861  0.00  0.00    +0.000 C 
ENDROOT
BRANCH   1   2
ATOM      2  C   UNL     1       5.861   4.905  18.995  0.00  0.00    +0.000 C 
ATOM      3  O   UNL     1       5.151   5.887  19.189  0.00  0.00    +0.000 OA
ATOM      4  N   UNL     1       5.435   3.588  18.910  0.00  0.00    +0.000 N 
ATOM      5  H   UNL     1       6.155   2.868  18.969  0.00  0.00    +0.000 HD
BRANCH   4   6
ATOM      6  C   UNL     1       4.092   3.147  18.960  0.00  0.00    +0.000 A 
ATOM      7  C   UNL     1       3.305   2.976  17.818  0.00  0.00    +0.000 A 
ATOM      8  C   UNL     1       1.976   2.568  17.921  0.00  0.00    +0.000 A 
ATOM      9  C   UNL     1       1.416   2.321  19.170  0.00  0.00    +0.000 A 
ATOM     10  C   UNL     1       2.196   2.467  20.317  0.00  0.00    +0.000 A 
ATOM     11  C   UNL     1       3.529   2.870  20.214  0.00  0.00    +0.000 A 
ENDBRANCH   4   6
ENDBRANCH   1   2
BRANCH   1  12
ATOM     12  O   UNL     1       7.837   4.763  17.551  0.00  0.00    +0.000 OA
BRANCH  12  13
ATOM     13  C   UNL     1       7.475   5.652  16.581  0.00  0.00    +0.000 C 
ATOM     14  O   UNL     1       7.552   6.872  16.720  0.00  0.00    +0.000 OA
BRANCH  13  19
ATOM     15  C   UNL     1       7.155   4.317  11.938  0.00  0.00    +0.000 C 
ATOM     16  N   UNL     1       6.797   4.399  13.335  0.00  0.00    +0.000 N 
ATOM     17  C   UNL     1       5.769   3.761  13.959  0.00  0.00    +0.000 A 
ATOM     18  C   UNL     1       5.850   4.127  15.282  0.00  0.00    +0.000 A 
ATOM     19  C   UNL     1       6.965   5.005  15.367  0.00  0.00    +0.000 A 
ATOM     20  N   UNL     1       7.529   5.169  14.155  0.00  0.00    +0.000 NA
ENDBRANCH  13  19
ENDBRANCH  12  13
ENDBRANCH   1  12
TORSDOF 5
ENDMDL
MODEL 7
REMARK VINA RESULT:      -7.0      3.200      4.771
REMARK  Name = 
REMARK  6 active torsions:
REMARK  status: ('A' for Active; 'I' for Inactive)
REMARK    1  A    between atoms: C_1  and  N_2
REMARK    2  A    between atoms: C_5  and  C_6
REMARK    3  A    between atoms: C_6  and  O_8
REMARK    4  A    between atoms: O_8  and  C_9
REMARK    5  A    between atoms: C_9  and  C_10
REMARK    6  A    between atoms: N_12  and  C_13
REMARK                            x       y       z     vdW  Elec       q    Type
REMARK                         _______ _______ _______ _____ _____    ______ ____
ROOT
ATOM      1  C   UNL     1       2.598   3.493  21.324  0.00  0.00    +0.000 C 
ENDROOT
BRANCH   1   2
ATOM      2  C   UNL     1       1.868   4.642  20.629  0.00  0.00    +0.000 C 
ATOM      3  O   UNL     1       0.701   4.504  20.274  0.00  0.00    +0.000 OA
ATOM      4  N   UNL     1       2.657   5.766  20.436  0.00  0.00    +0.000 N 
ATOM      5  H   UNL     1       3.659   5.654  20.583  0.00  0.00    +0.000 HD
BRANCH   4   6
ATOM      6  C   UNL     1       2.234   6.985  19.856  0.00  0.00    +0.000 A 
ATOM      7  C   UNL     1       1.549   7.970  20.574  0.00  0.00    +0.000 A 
ATOM      8  C   UNL     1       1.126   9.144  19.950  0.00  0.00    +0.000 A 
ATOM      9  C   UNL     1       1.385   9.350  18.600  0.00  0.00    +0.000 A 
ATOM     10  C   UNL     1       2.085   8.384  17.877  0.00  0.00    +0.000 A 
ATOM     11  C   UNL     1       2.515   7.211  18.502  0.00  0.00    +0.000 A 
ENDBRANCH   4   6
ENDBRANCH   1   2
BRANCH   1  12
ATOM     12  O   UNL     1       2.980   2.468  20.414  0.00  0.00    +0.000 OA
BRANCH  12  13
ATOM     13  C   UNL     1       4.308   2.426  20.104  0.00  0.00    +0.000 C 
ATOM     14  O   UNL     1       5.112   1.689  20.673  0.00  0.00    +0.000 OA
BRANCH  13  19
ATOM     15  C   UNL     1       6.772   5.845  17.721  0.00  0.00    +0.000 C 
ATOM     16  N   UNL     1       5.742   4.863  17.966  0.00  0.00    +0.000 N 
ATOM     17  C   UNL     1       4.747   4.486  17.116  0.00  0.00    +0.000 A 
ATOM     18  C   UNL     1       4.040   3.509  17.778  0.00  0.00    +0.000 A 
ATOM     19  C   UNL     1       4.681   3.364  19.040  0.00  0.00    +0.000 A 
ATOM     20  N   UNL     1       5.721   4.215  19.141  0.00  0.00    +0.000 NA
ENDBRANCH  13  19
ENDBRANCH  12  13
ENDBRANCH   1  12
TORSDOF 5
ENDMDL
MODEL 8
REMARK VINA RESULT:      -7.0      1.677      2.114
REMARK  Name = 
REMARK  6 active torsions:
REMARK  status: ('A' for Active; 'I' for Inactive)
REMARK    1  A    between atoms: C_1  and  N_2
REMARK    2  A    between atoms: C_5  and  C_6
REMARK    3  A    between atoms: C_6  and  O_8
REMARK    4  A    between atoms: O_8  and  C_9
REMARK    5  A    between atoms: C_9  and  C_10
REMARK    6  A    between atoms: N_12  and  C_13
REMARK                            x       y       z     vdW  Elec       q    Type
REMARK                         _______ _______ _______ _____ _____    ______ ____
ROOT
ATOM      1  C   UNL     1       7.602   4.659  17.821  0.00  0.00    +0.000 C 
ENDROOT
BRANCH   1   2
ATOM      2  C   UNL     1       6.175   4.601  18.364  0.00  0.00    +0.000 C 
ATOM      3  O   UNL     1       5.829   5.358  19.267  0.00  0.00    +0.000 OA
ATOM      4  N   UNL     1       5.392   3.626  17.767  0.00  0.00    +0.000 N 
ATOM      5  H   UNL     1       5.876   2.936  17.194  0.00  0.00    +0.000 HD
BRANCH   4   6
ATOM      6  C   UNL     1       4.027   3.375  18.043  0.00  0.00    +0.000 A 
ATOM      7  C   UNL     1       3.589   2.248  18.745  0.00  0.00    +0.000 A 
ATOM      8  C   UNL     1       2.230   2.029  18.966  0.00  0.00    +0.000 A 
ATOM      9  C   UNL     1       1.289   2.936  18.492  0.00  0.00    +0.000 A 
ATOM     10  C   UNL     1       1.714   4.076  17.808  0.00  0.00    +0.000 A 
ATOM     11  C   UNL     1       3.076   4.299  17.591  0.00  0.00    +0.000 A 
ENDBRANCH   4   6
ENDBRANCH   1   2
BRANCH   1  12
ATOM     12  O   UNL     1       7.670   4.310  16.443  0.00  0.00    +0.000 OA
BRANCH  12  13
ATOM     13  C   UNL     1       7.137   5.223  15.582  0.00  0.00    +0.000 C 
ATOM     14  O   UNL     1       6.804   6.358  15.922  0.00  0.00    +0.000 OA
BRANCH  13  19
ATOM     15  C   UNL     1       5.365   2.691  11.856  0.00  0.00    +0.000 C 
ATOM     16  N   UNL     1       6.229   3.610  12.559  0.00  0.00    +0.000 N 
ATOM     17  C   UNL     1       7.230   4.366  12.030  0.00  0.00    +0.000 A 
ATOM     18  C   UNL     1       7.741   5.096  13.077  0.00  0.00    +0.000 A 
ATOM     19  C   UNL     1       6.984   4.708  14.217  0.00  0.00    +0.000 A 
ATOM     20  N   UNL     1       6.064   3.783  13.880  0.00  0.00    +0.000 NA
ENDBRANCH  13  19
ENDBRANCH  12  13
ENDBRANCH   1  12
TORSDOF 5
ENDMDL
MODEL 9
REMARK VINA RESULT:      -7.0      3.182      4.880
REMARK  Name = 
REMARK  6 active torsions:
REMARK  status: ('A' for Active; 'I' for Inactive)
REMARK    1  A    between atoms: C_1  and  N_2
REMARK    2  A    between atoms: C_5  and  C_6
REMARK    3  A    between atoms: C_6  and  O_8
REMARK    4  A    between atoms: O_8  and  C_9
REMARK    5  A    between atoms: C_9  and  C_10
REMARK    6  A    between atoms: N_12  and  C_13
REMARK                            x       y       z     vdW  Elec       q    Type
REMARK                         _______ _______ _______ _____ _____    ______ ____
ROOT
ATOM      1  C   UNL     1       2.615   3.478  21.247  0.00  0.00    +0.000 C 
ENDROOT
BRANCH   1   2
ATOM      2  C   UNL     1       1.857   4.642  20.610  0.00  0.00    +0.000 C 
ATOM      3  O   UNL     1       0.664   4.526  20.344  0.00  0.00    +0.000 OA
ATOM      4  N   UNL     1       2.650   5.751  20.360  0.00  0.00    +0.000 N 
ATOM      5  H   UNL     1       3.658   5.620  20.431  0.00  0.00    +0.000 HD
BRANCH   4   6
ATOM      6  C   UNL     1       2.208   6.979  19.815  0.00  0.00    +0.000 A 
ATOM      7  C   UNL     1       2.411   7.335  18.478  0.00  0.00    +0.000 A 
ATOM      8  C   UNL     1       1.983   8.571  17.995  0.00  0.00    +0.000 A 
ATOM      9  C   UNL     1       1.340   9.467  18.842  0.00  0.00    +0.000 A 
ATOM     10  C   UNL     1       1.112   9.117  20.172  0.00  0.00    +0.000 A 
ATOM     11  C   UNL     1       1.535   7.877  20.655  0.00  0.00    +0.000 A 
ENDBRANCH   4   6
ENDBRANCH   1   2
BRANCH   1  12
ATOM     12  O   UNL     1       3.026   2.511  20.287  0.00  0.00    +0.000 OA
BRANCH  12  13
ATOM     13  C   UNL     1       4.365   2.476  20.029  0.00  0.00    +0.000 C 
ATOM     14  O   UNL     1       5.144   1.717  20.604  0.00  0.00    +0.000 OA
BRANCH  13  19
ATOM     15  C   UNL     1       6.937   5.960  17.864  0.00  0.00    +0.000 C 
ATOM     16  N   UNL     1       5.892   4.978  18.035  0.00  0.00    +0.000 N 
ATOM     17  C   UNL     1       4.927   4.639  17.137  0.00  0.00    +0.000 A 
ATOM     18  C   UNL     1       4.190   3.645  17.736  0.00  0.00    +0.000 A 
ATOM     19  C   UNL     1       4.783   3.449  19.014  0.00  0.00    +0.000 A 
ATOM     20  N   UNL     1       5.824   4.287  19.184  0.00  0.00    +0.000 NA
ENDBRANCH  13  19
ENDBRANCH  12  13
ENDBRANCH   1  12
TORSDOF 5
ENDMDL
