MODEL 1
REMARK VINA RESULT:      -8.1      0.000      0.000
REMARK  Name = 
REMARK  10 active torsions:
REMARK  status: ('A' for Active; 'I' for Inactive)
REMARK    1  A    between atoms: C_1  and  O_2
REMARK    2  A    between atoms: O_2  and  C_3
REMARK    3  A    between atoms: C_3  and  C_5
REMARK    4  A    between atoms: C_10  and  N_11
REMARK    5  A    between atoms: C_12  and  C_14
REMARK    6  A    between atoms: C_14  and  S_15
REMARK    7  A    between atoms: S_15  and  C_16
REMARK    8  A    between atoms: C_21  and  C_22
REMARK    9  A    between atoms: C_25  and  C_26
REMARK   10  A    between atoms: C_28  and  C_29
REMARK                            x       y       z     vdW  Elec       q    Type
REMARK                         _______ _______ _______ _____ _____    ______ ____
ROOT
ATOM      1  S   UNL     1       1.302   8.275  20.860  0.00  0.00    +0.000 S 
ENDROOT
BRANCH   1   2
ATOM      2  C   UNL     1       1.079   9.071  19.189  0.00  0.00    +0.000 A 
ATOM      3  N   UNL     1       2.174   9.264  18.451  0.00  0.00    +0.000 NA
ATOM      4  N   UNL     1       2.132  10.568  18.011  0.00  0.00    +0.000 NA
ATOM      5  C   UNL     1       1.024  11.063  18.514  0.00  0.00    +0.000 A 
ATOM      6  C   UNL     1       0.760  12.216  19.334  0.00  0.00    +0.000 A 
ATOM      7  C   UNL     1      -0.134  12.004  20.343  0.00  0.00    +0.000 A 
ATOM      8  C   UNL     1      -0.026  11.172  21.600  0.00  0.00    +0.000 C 
ATOM      9  C   UNL     1      -1.406  11.575  19.756  0.00  0.00    +0.000 A 
ATOM     10  C   UNL     1      -2.535  12.349  20.105  0.00  0.00    +0.000 A 
ATOM     11  C   UNL     1      -3.712  12.198  19.410  0.00  0.00    +0.000 A 
ATOM     12  C   UNL     1      -4.902  13.032  19.803  0.00  0.00    +0.000 C 
ATOM     13  C   UNL     1      -3.650  11.399  18.273  0.00  0.00    +0.000 A 
ATOM     14  C   UNL     1      -2.449  10.636  17.889  0.00  0.00    +0.000 A 
ATOM     15  C   UNL     1      -2.501  10.258  16.420  0.00  0.00    +0.000 C 
ATOM     16  C   UNL     1      -1.359  10.541  18.809  0.00  0.00    +0.000 A 
ATOM     17  N   UNL     1       0.068  10.021  18.596  0.00  0.00    +0.000 N 
ENDBRANCH   1   2
BRANCH   1  18
ATOM     18  C   UNL     1       1.634   6.387  20.571  0.00  0.00    +0.000 C 
BRANCH  18  20
ATOM     19  N   UNL     1       3.072   6.134  18.349  0.00  0.00    +0.000 N 
ATOM     20  C   UNL     1       2.880   5.816  19.681  0.00  0.00    +0.000 C 
ATOM     21  O   UNL     1       3.645   5.023  20.243  0.00  0.00    +0.000 OA
ATOM     22  H   UNL     1       2.392   6.804  17.963  0.00  0.00    +0.000 HD
BRANCH  19  28
ATOM     23  C   UNL     1       4.123   4.439  16.825  0.00  0.00    +0.000 A 
ATOM     24  C   UNL     1       5.073   4.040  15.851  0.00  0.00    +0.000 A 
ATOM     25  C   UNL     1       6.105   4.872  15.451  0.00  0.00    +0.000 A 
ATOM     26  C   UNL     1       6.169   6.142  16.048  0.00  0.00    +0.000 A 
ATOM     27  C   UNL     1       5.200   6.561  16.999  0.00  0.00    +0.000 A 
ATOM     28  C   UNL     1       4.114   5.745  17.406  0.00  0.00    +0.000 A 
BRANCH  23  29
ATOM     29  C   UNL     1       3.130   3.429  17.248  0.00  0.00    +0.000 C 
ATOM     30  O   UNL     1       1.909   3.552  17.050  0.00  0.00    +0.000 OA
BRANCH  29  32
ATOM     31  C   UNL     1       2.868   1.801  18.891  0.00  0.00    +0.000 C 
ATOM     32  O   UNL     1       3.714   2.426  17.923  0.00  0.00    +0.000 OA
ENDBRANCH  29  32
ENDBRANCH  23  29
ENDBRANCH  19  28
ENDBRANCH  18  20
ENDBRANCH   1  18
TORSDOF 6
ENDMDL
MODEL 2
REMARK VINA RESULT:      -8.1      0.758      1.013
REMARK  Name = 
REMARK  10 active torsions:
REMARK  status: ('A' for Active; 'I' for Inactive)
REMARK    1  A    between atoms: C_1  and  O_2
REMARK    2  A    between atoms: O_2  and  C_3
REMARK    3  A    between atoms: C_3  and  C_5
REMARK    4  A    between atoms: C_10  and  N_11
REMARK    5  A    between atoms: C_12  and  C_14
REMARK    6  A    between atoms: C_14  and  S_15
REMARK    7  A    between atoms: S_15  and  C_16
REMARK    8  A    between atoms: C_21  and  C_22
REMARK    9  A    between atoms: C_25  and  C_26
REMARK   10  A    between atoms: C_28  and  C_29
REMARK                            x       y       z     vdW  Elec       q    Type
REMARK                         _______ _______ _______ _____ _____    ______ ____
ROOT
ATOM      1  S   UNL     1       1.414   8.207  20.731  0.00  0.00    +0.000 S 
ENDROOT
BRANCH   1   2
ATOM      2  C   UNL     1       1.148   8.989  19.060  0.00  0.00    +0.000 A 
ATOM      3  N   UNL     1       2.222   9.163  18.286  0.00  0.00    +0.000 NA
ATOM      4  N   UNL     1       2.180  10.464  17.835  0.00  0.00    +0.000 NA
ATOM      5  C   UNL     1       1.093  10.975  18.367  0.00  0.00    +0.000 A 
ATOM      6  C   UNL     1       0.867  12.139  19.183  0.00  0.00    +0.000 A 
ATOM      7  C   UNL     1       0.003  11.946  20.221  0.00  0.00    +0.000 A 
ATOM      8  C   UNL     1       0.140  11.125  21.482  0.00  0.00    +0.000 C 
ATOM      9  C   UNL     1      -1.292  11.525  19.677  0.00  0.00    +0.000 A 
ATOM     10  C   UNL     1      -2.401  12.314  20.054  0.00  0.00    +0.000 A 
ATOM     11  C   UNL     1      -3.601  12.170  19.396  0.00  0.00    +0.000 A 
ATOM     12  C   UNL     1      -4.769  13.020  19.818  0.00  0.00    +0.000 C 
ATOM     13  C   UNL     1      -3.582  11.360  18.267  0.00  0.00    +0.000 A 
ATOM     14  C   UNL     1      -2.402  10.579  17.854  0.00  0.00    +0.000 A 
ATOM     15  C   UNL     1      -2.503  10.187  16.390  0.00  0.00    +0.000 C 
ATOM     16  C   UNL     1      -1.285  10.482  18.740  0.00  0.00    +0.000 A 
ATOM     17  N   UNL     1       0.129   9.945  18.488  0.00  0.00    +0.000 N 
ENDBRANCH   1   2
BRANCH   1  18
ATOM     18  C   UNL     1       1.841   6.338  20.443  0.00  0.00    +0.000 C 
BRANCH  18  20
ATOM     19  N   UNL     1       3.727   6.078  18.587  0.00  0.00    +0.000 N 
ATOM     20  C   UNL     1       2.462   5.759  19.047  0.00  0.00    +0.000 C 
ATOM     21  O   UNL     1       1.721   5.041  18.366  0.00  0.00    +0.000 OA
ATOM     22  H   UNL     1       4.278   6.677  19.219  0.00  0.00    +0.000 HD
BRANCH  19  28
ATOM     23  C   UNL     1       4.861   4.297  17.230  0.00  0.00    +0.000 A 
ATOM     24  C   UNL     1       5.507   3.826  16.058  0.00  0.00    +0.000 A 
ATOM     25  C   UNL     1       5.852   4.678  15.022  0.00  0.00    +0.000 A 
ATOM     26  C   UNL     1       5.528   6.036  15.175  0.00  0.00    +0.000 A 
ATOM     27  C   UNL     1       4.850   6.507  16.332  0.00  0.00    +0.000 A 
ATOM     28  C   UNL     1       4.454   5.657  17.395  0.00  0.00    +0.000 A 
BRANCH  23  29
ATOM     29  C   UNL     1       4.636   3.316  18.312  0.00  0.00    +0.000 C 
ATOM     30  O   UNL     1       5.182   3.398  19.427  0.00  0.00    +0.000 OA
BRANCH  29  32
ATOM     31  C   UNL     1       2.994   1.786  18.929  0.00  0.00    +0.000 C 
ATOM     32  O   UNL     1       3.839   2.315  17.905  0.00  0.00    +0.000 OA
ENDBRANCH  29  32
ENDBRANCH  23  29
ENDBRANCH  19  28
ENDBRANCH  18  20
ENDBRANCH   1  18
TORSDOF 6
ENDMDL
MODEL 3
REMARK VINA RESULT:      -7.9      6.465      8.350
REMARK  Name = 
REMARK  10 active torsions:
REMARK  status: ('A' for Active; 'I' for Inactive)
REMARK    1  A    between atoms: C_1  and  O_2
REMARK    2  A    between atoms: O_2  and  C_3
REMARK    3  A    between atoms: C_3  and  C_5
REMARK    4  A    between atoms: C_10  and  N_11
REMARK    5  A    between atoms: C_12  and  C_14
REMARK    6  A    between atoms: C_14  and  S_15
REMARK    7  A    between atoms: S_15  and  C_16
REMARK    8  A    between atoms: C_21  and  C_22
REMARK    9  A    between atoms: C_25  and  C_26
REMARK   10  A    between atoms: C_28  and  C_29
REMARK                            x       y       z     vdW  Elec       q    Type
REMARK                         _______ _______ _______ _____ _____    ______ ____
ROOT
ATOM      1  S   UNL     1       9.041   9.962  18.997  0.00  0.00    +0.000 S 
ENDROOT
BRANCH   1   2
ATOM      2  C   UNL     1       9.618  11.587  18.291  0.00  0.00    +0.000 A 
ATOM      3  N   UNL     1      10.761  11.585  17.601  0.00  0.00    +0.000 NA
ATOM      4  N   UNL     1      11.523  12.622  18.090  0.00  0.00    +0.000 NA
ATOM      5  C   UNL     1      10.790  13.169  19.033  0.00  0.00    +0.000 A 
ATOM      6  C   UNL     1      11.044  13.441  20.424  0.00  0.00    +0.000 A 
ATOM      7  C   UNL     1      10.002  13.155  21.257  0.00  0.00    +0.000 A 
ATOM      8  C   UNL     1       9.391  11.832  21.658  0.00  0.00    +0.000 C 
ATOM      9  C   UNL     1       8.845  13.958  20.850  0.00  0.00    +0.000 A 
ATOM     10  C   UNL     1       8.278  14.770  21.856  0.00  0.00    +0.000 A 
ATOM     11  C   UNL     1       7.372  15.749  21.518  0.00  0.00    +0.000 A 
ATOM     12  C   UNL     1       6.779  16.600  22.609  0.00  0.00    +0.000 C 
ATOM     13  C   UNL     1       7.209  15.984  20.158  0.00  0.00    +0.000 A 
ATOM     14  C   UNL     1       7.847  15.161  19.115  0.00  0.00    +0.000 A 
ATOM     15  C   UNL     1       7.886  15.905  17.792  0.00  0.00    +0.000 C 
ATOM     16  C   UNL     1       8.505  13.948  19.489  0.00  0.00    +0.000 A 
ATOM     17  N   UNL     1       9.427  13.035  18.673  0.00  0.00    +0.000 N 
ENDBRANCH   1   2
BRANCH   1  18
ATOM     18  C   UNL     1       8.282   8.927  17.543  0.00  0.00    +0.000 C 
BRANCH  18  20
ATOM     19  N   UNL     1       6.191   7.343  17.106  0.00  0.00    +0.000 N 
ATOM     20  C   UNL     1       7.382   7.582  17.768  0.00  0.00    +0.000 C 
ATOM     21  O   UNL     1       7.789   6.777  18.615  0.00  0.00    +0.000 OA
ATOM     22  H   UNL     1       5.931   8.061  16.415  0.00  0.00    +0.000 HD
BRANCH  19  28
ATOM     23  C   UNL     1       5.625   4.954  16.588  0.00  0.00    +0.000 A 
ATOM     24  C   UNL     1       4.791   3.810  16.675  0.00  0.00    +0.000 A 
ATOM     25  C   UNL     1       3.536   3.863  17.259  0.00  0.00    +0.000 A 
ATOM     26  C   UNL     1       3.121   5.103  17.773  0.00  0.00    +0.000 A 
ATOM     27  C   UNL     1       3.967   6.244  17.719  0.00  0.00    +0.000 A 
ATOM     28  C   UNL     1       5.269   6.216  17.157  0.00  0.00    +0.000 A 
BRANCH  23  29
ATOM     29  C   UNL     1       6.897   4.803  15.851  0.00  0.00    +0.000 C 
ATOM     30  O   UNL     1       7.920   4.309  16.356  0.00  0.00    +0.000 OA
BRANCH  29  32
ATOM     31  C   UNL     1       6.685   4.357  13.576  0.00  0.00    +0.000 C 
ATOM     32  O   UNL     1       6.810   5.327  14.618  0.00  0.00    +0.000 OA
ENDBRANCH  29  32
ENDBRANCH  23  29
ENDBRANCH  19  28
ENDBRANCH  18  20
ENDBRANCH   1  18
TORSDOF 6
ENDMDL
MODEL 4
REMARK VINA RESULT:      -7.9      1.538      2.527
REMARK  Name = 
REMARK  10 active torsions:
REMARK  status: ('A' for Active; 'I' for Inactive)
REMARK    1  A    between atoms: C_1  and  O_2
REMARK    2  A    between atoms: O_2  and  C_3
REMARK    3  A    between atoms: C_3  and  C_5
REMARK    4  A    between atoms: C_10  and  N_11
REMARK    5  A    between atoms: C_12  and  C_14
REMARK    6  A    between atoms: C_14  and  S_15
REMARK    7  A    between atoms: S_15  and  C_16
REMARK    8  A    between atoms: C_21  and  C_22
REMARK    9  A    between atoms: C_25  and  C_26
REMARK   10  A    between atoms: C_28  and  C_29
REMARK                            x       y       z     vdW  Elec       q    Type
REMARK                         _______ _______ _______ _____ _____    ______ ____
ROOT
ATOM      1  S   UNL     1       1.649   7.915  20.540  0.00  0.00    +0.000 S 
ENDROOT
BRANCH   1   2
ATOM      2  C   UNL     1       1.344   8.746  18.900  0.00  0.00    +0.000 A 
ATOM      3  N   UNL     1       2.389   8.889  18.082  0.00  0.00    +0.000 NA
ATOM      4  N   UNL     1       2.387  10.200  17.660  0.00  0.00    +0.000 NA
ATOM      5  C   UNL     1       1.349  10.748  18.252  0.00  0.00    +0.000 A 
ATOM      6  C   UNL     1       1.215  11.901  19.102  0.00  0.00    +0.000 A 
ATOM      7  C   UNL     1       0.389  11.724  20.174  0.00  0.00    +0.000 A 
ATOM      8  C   UNL     1       0.546  10.869  21.410  0.00  0.00    +0.000 C 
ATOM      9  C   UNL     1      -0.946  11.374  19.682  0.00  0.00    +0.000 A 
ATOM     10  C   UNL     1      -2.000  12.204  20.126  0.00  0.00    +0.000 A 
ATOM     11  C   UNL     1      -3.233  12.129  19.521  0.00  0.00    +0.000 A 
ATOM     12  C   UNL     1      -4.341  13.021  20.014  0.00  0.00    +0.000 C 
ATOM     13  C   UNL     1      -3.303  11.344  18.376  0.00  0.00    +0.000 A 
ATOM     14  C   UNL     1      -2.180  10.522  17.892  0.00  0.00    +0.000 A 
ATOM     15  C   UNL     1      -2.364  10.168  16.427  0.00  0.00    +0.000 C 
ATOM     16  C   UNL     1      -1.030  10.353  18.724  0.00  0.00    +0.000 A 
ATOM     17  N   UNL     1       0.346   9.759  18.396  0.00  0.00    +0.000 N 
ENDBRANCH   1   2
BRANCH   1  18
ATOM     18  C   UNL     1       2.186   6.087  20.181  0.00  0.00    +0.000 C 
BRANCH  18  20
ATOM     19  N   UNL     1       4.299   5.544  18.661  0.00  0.00    +0.000 N 
ATOM     20  C   UNL     1       2.925   5.618  18.802  0.00  0.00    +0.000 C 
ATOM     21  O   UNL     1       2.192   5.370  17.836  0.00  0.00    +0.000 OA
ATOM     22  H   UNL     1       4.832   5.762  19.515  0.00  0.00    +0.000 HD
BRANCH  19  28
ATOM     23  C   UNL     1       6.558   5.187  17.628  0.00  0.00    +0.000 A 
ATOM     24  C   UNL     1       7.409   4.739  16.586  0.00  0.00    +0.000 A 
ATOM     25  C   UNL     1       6.909   4.289  15.376  0.00  0.00    +0.000 A 
ATOM     26  C   UNL     1       5.513   4.288  15.221  0.00  0.00    +0.000 A 
ATOM     27  C   UNL     1       4.654   4.705  16.273  0.00  0.00    +0.000 A 
ATOM     28  C   UNL     1       5.132   5.139  17.535  0.00  0.00    +0.000 A 
BRANCH  23  29
ATOM     29  C   UNL     1       7.207   5.742  18.834  0.00  0.00    +0.000 C 
ATOM     30  O   UNL     1       6.946   5.353  19.985  0.00  0.00    +0.000 OA
BRANCH  29  32
ATOM     31  C   UNL     1       7.464   7.736  17.661  0.00  0.00    +0.000 C 
ATOM     32  O   UNL     1       8.039   6.748  18.519  0.00  0.00    +0.000 OA
ENDBRANCH  29  32
ENDBRANCH  23  29
ENDBRANCH  19  28
ENDBRANCH  18  20
ENDBRANCH   1  18
TORSDOF 6
ENDMDL
MODEL 5
REMARK VINA RESULT:      -7.7      1.595      1.853
REMARK  Name = 
REMARK  10 active torsions:
REMARK  status: ('A' for Active; 'I' for Inactive)
REMARK    1  A    between atoms: C_1  and  O_2
REMARK    2  A    between atoms: O_2  and  C_3
REMARK    3  A    between atoms: C_3  and  C_5
REMARK    4  A    between atoms: C_10  and  N_11
REMARK    5  A    between atoms: C_12  and  C_14
REMARK    6  A    between atoms: C_14  and  S_15
REMARK    7  A    between atoms: S_15  and  C_16
REMARK    8  A    between atoms: C_21  and  C_22
REMARK    9  A    between atoms: C_25  and  C_26
REMARK   10  A    between atoms: C_28  and  C_29
REMARK                            x       y       z     vdW  Elec       q    Type
REMARK                         _______ _______ _______ _____ _____    ______ ____
ROOT
ATOM      1  S   UNL     1       0.819  10.051  21.081  0.00  0.00    +0.000 S 
ENDROOT
BRANCH   1   2
ATOM      2  C   UNL     1       0.594  10.815  19.396  0.00  0.00    +0.000 A 
ATOM      3  N   UNL     1       1.631  11.477  18.879  0.00  0.00    +0.000 NA
ATOM      4  N   UNL     1       1.149  12.688  18.435  0.00  0.00    +0.000 NA
ATOM      5  C   UNL     1      -0.134  12.669  18.716  0.00  0.00    +0.000 A 
ATOM      6  C   UNL     1      -0.976  13.562  19.468  0.00  0.00    +0.000 A 
ATOM      7  C   UNL     1      -1.873  12.942  20.288  0.00  0.00    +0.000 A 
ATOM      8  C   UNL     1      -1.664  12.130  21.545  0.00  0.00    +0.000 C 
ATOM      9  C   UNL     1      -2.743  12.092  19.471  0.00  0.00    +0.000 A 
ATOM     10  C   UNL     1      -4.129  12.331  19.597  0.00  0.00    +0.000 A 
ATOM     11  C   UNL     1      -5.005  11.782  18.690  0.00  0.00    +0.000 A 
ATOM     12  C   UNL     1      -6.478  12.049  18.847  0.00  0.00    +0.000 C 
ATOM     13  C   UNL     1      -4.430  11.157  17.589  0.00  0.00    +0.000 A 
ATOM     14  C   UNL     1      -2.977  10.958  17.443  0.00  0.00    +0.000 A 
ATOM     15  C   UNL     1      -2.614  10.699  15.991  0.00  0.00    +0.000 C 
ATOM     16  C   UNL     1      -2.120  11.232  18.553  0.00  0.00    +0.000 A 
ATOM     17  N   UNL     1      -0.591  11.332  18.618  0.00  0.00    +0.000 N 
ENDBRANCH   1   2
BRANCH   1  18
ATOM     18  C   UNL     1       1.274   8.184  20.823  0.00  0.00    +0.000 C 
BRANCH  18  20
ATOM     19  N   UNL     1       2.857   6.491  19.519  0.00  0.00    +0.000 N 
ATOM     20  C   UNL     1       2.058   7.621  19.505  0.00  0.00    +0.000 C 
ATOM     21  O   UNL     1       1.953   8.288  18.469  0.00  0.00    +0.000 OA
ATOM     22  H   UNL     1       2.884   5.994  20.421  0.00  0.00    +0.000 HD
BRANCH  19  28
ATOM     23  C   UNL     1       3.210   4.554  17.963  0.00  0.00    +0.000 A 
ATOM     24  C   UNL     1       3.872   3.906  16.889  0.00  0.00    +0.000 A 
ATOM     25  C   UNL     1       5.004   4.442  16.299  0.00  0.00    +0.000 A 
ATOM     26  C   UNL     1       5.471   5.666  16.805  0.00  0.00    +0.000 A 
ATOM     27  C   UNL     1       4.792   6.337  17.858  0.00  0.00    +0.000 A 
ATOM     28  C   UNL     1       3.613   5.831  18.462  0.00  0.00    +0.000 A 
BRANCH  23  29
ATOM     29  C   UNL     1       2.075   3.838  18.583  0.00  0.00    +0.000 C 
ATOM     30  O   UNL     1       1.070   3.477  17.945  0.00  0.00    +0.000 OA
BRANCH  29  32
ATOM     31  C   UNL     1       1.203   2.984  20.564  0.00  0.00    +0.000 C 
ATOM     32  O   UNL     1       2.249   3.703  19.907  0.00  0.00    +0.000 OA
ENDBRANCH  29  32
ENDBRANCH  23  29
ENDBRANCH  19  28
ENDBRANCH  18  20
ENDBRANCH   1  18
TORSDOF 6
ENDMDL
MODEL 6
REMARK VINA RESULT:      -7.6      2.620      4.331
REMARK  Name = 
REMARK  10 active torsions:
REMARK  status: ('A' for Active; 'I' for Inactive)
REMARK    1  A    between atoms: C_1  and  O_2
REMARK    2  A    between atoms: O_2  and  C_3
REMARK    3  A    between atoms: C_3  and  C_5
REMARK    4  A    between atoms: C_10  and  N_11
REMARK    5  A    between atoms: C_12  and  C_14
REMARK    6  A    between atoms: C_14  and  S_15
REMARK    7  A    between atoms: S_15  and  C_16
REMARK    8  A    between atoms: C_21  and  C_22
REMARK    9  A    between atoms: C_25  and  C_26
REMARK   10  A    between atoms: C_28  and  C_29
REMARK                            x       y       z     vdW  Elec       q    Type
REMARK                         _______ _______ _______ _____ _____    ______ ____
ROOT
ATOM      1  S   UNL     1       0.765   9.813  18.555  0.00  0.00    +0.000 S 
ENDROOT
BRANCH   1   2
ATOM      2  C   UNL     1       1.141  10.792  20.095  0.00  0.00    +0.000 A 
ATOM      3  N   UNL     1       0.908  10.201  21.270  0.00  0.00    +0.000 NA
ATOM      4  N   UNL     1       0.192  11.097  22.031  0.00  0.00    +0.000 NA
ATOM      5  C   UNL     1       0.045  12.154  21.265  0.00  0.00    +0.000 A 
ATOM      6  C   UNL     1      -1.117  12.883  20.830  0.00  0.00    +0.000 A 
ATOM      7  C   UNL     1      -1.097  13.253  19.517  0.00  0.00    +0.000 A 
ATOM      8  C   UNL     1      -1.182  12.425  18.256  0.00  0.00    +0.000 C 
ATOM      9  C   UNL     1       0.074  14.105  19.290  0.00  0.00    +0.000 A 
ATOM     10  C   UNL     1      -0.191  15.375  18.731  0.00  0.00    +0.000 A 
ATOM     11  C   UNL     1       0.790  16.340  18.727  0.00  0.00    +0.000 A 
ATOM     12  C   UNL     1       0.484  17.685  18.123  0.00  0.00    +0.000 C 
ATOM     13  C   UNL     1       1.941  16.041  19.446  0.00  0.00    +0.000 A 
ATOM     14  C   UNL     1       2.185  14.728  20.069  0.00  0.00    +0.000 A 
ATOM     15  C   UNL     1       3.248  14.834  21.147  0.00  0.00    +0.000 C 
ATOM     16  C   UNL     1       1.307  13.640  19.770  0.00  0.00    +0.000 A 
ATOM     17  N   UNL     1       1.184  12.262  20.431  0.00  0.00    +0.000 N 
ENDBRANCH   1   2
BRANCH   1  18
ATOM     18  C   UNL     1       2.294   8.676  18.193  0.00  0.00    +0.000 C 
BRANCH  18  20
ATOM     19  N   UNL     1       2.476   6.051  17.812  0.00  0.00    +0.000 N 
ATOM     20  C   UNL     1       2.397   7.121  18.684  0.00  0.00    +0.000 C 
ATOM     21  O   UNL     1       2.352   6.920  19.904  0.00  0.00    +0.000 OA
ATOM     22  H   UNL     1       2.514   6.309  16.815  0.00  0.00    +0.000 HD
BRANCH  19  28
ATOM     23  C   UNL     1       3.865   3.972  18.029  0.00  0.00    +0.000 A 
ATOM     24  C   UNL     1       4.032   2.595  18.325  0.00  0.00    +0.000 A 
ATOM     25  C   UNL     1       2.954   1.767  18.587  0.00  0.00    +0.000 A 
ATOM     26  C   UNL     1       1.676   2.350  18.554  0.00  0.00    +0.000 A 
ATOM     27  C   UNL     1       1.505   3.736  18.291  0.00  0.00    +0.000 A 
ATOM     28  C   UNL     1       2.590   4.618  18.052  0.00  0.00    +0.000 A 
BRANCH  23  29
ATOM     29  C   UNL     1       5.078   4.733  17.664  0.00  0.00    +0.000 C 
ATOM     30  O   UNL     1       5.104   5.567  16.742  0.00  0.00    +0.000 OA
BRANCH  29  32
ATOM     31  C   UNL     1       7.399   4.644  17.806  0.00  0.00    +0.000 C 
ATOM     32  O   UNL     1       6.133   4.349  18.400  0.00  0.00    +0.000 OA
ENDBRANCH  29  32
ENDBRANCH  23  29
ENDBRANCH  19  28
ENDBRANCH  18  20
ENDBRANCH   1  18
TORSDOF 6
ENDMDL
MODEL 7
REMARK VINA RESULT:      -7.5      1.993      3.339
REMARK  Name = 
REMARK  10 active torsions:
REMARK  status: ('A' for Active; 'I' for Inactive)
REMARK    1  A    between atoms: C_1  and  O_2
REMARK    2  A    between atoms: O_2  and  C_3
REMARK    3  A    between atoms: C_3  and  C_5
REMARK    4  A    between atoms: C_10  and  N_11
REMARK    5  A    between atoms: C_12  and  C_14
REMARK    6  A    between atoms: C_14  and  S_15
REMARK    7  A    between atoms: S_15  and  C_16
REMARK    8  A    between atoms: C_21  and  C_22
REMARK    9  A    between atoms: C_25  and  C_26
REMARK   10  A    between atoms: C_28  and  C_29
REMARK                            x       y       z     vdW  Elec       q    Type
REMARK                         _______ _______ _______ _____ _____    ______ ____
ROOT
ATOM      1  S   UNL     1       0.539  10.792  21.845  0.00  0.00    +0.000 S 
ENDROOT
BRANCH   1   2
ATOM      2  C   UNL     1       0.481  11.151  20.017  0.00  0.00    +0.000 A 
ATOM      3  N   UNL     1       1.534  11.774  19.481  0.00  0.00    +0.000 NA
ATOM      4  N   UNL     1       1.038  12.814  18.726  0.00  0.00    +0.000 NA
ATOM      5  C   UNL     1      -0.267  12.742  18.862  0.00  0.00    +0.000 A 
ATOM      6  C   UNL     1      -1.250  13.700  19.297  0.00  0.00    +0.000 A 
ATOM      7  C   UNL     1      -2.204  13.195  20.132  0.00  0.00    +0.000 A 
ATOM      8  C   UNL     1      -2.106  12.695  21.555  0.00  0.00    +0.000 C 
ATOM      9  C   UNL     1      -2.910  12.115  19.437  0.00  0.00    +0.000 A 
ATOM     10  C   UNL     1      -4.313  12.254  19.353  0.00  0.00    +0.000 A 
ATOM     11  C   UNL     1      -5.032  11.446  18.503  0.00  0.00    +0.000 A 
ATOM     12  C   UNL     1      -6.527  11.611  18.433  0.00  0.00    +0.000 C 
ATOM     13  C   UNL     1      -4.286  10.652  17.640  0.00  0.00    +0.000 A 
ATOM     14  C   UNL     1      -2.816  10.554  17.703  0.00  0.00    +0.000 A 
ATOM     15  C   UNL     1      -2.258  10.020  16.396  0.00  0.00    +0.000 C 
ATOM     16  C   UNL     1      -2.125  11.136  18.810  0.00  0.00    +0.000 A 
ATOM     17  N   UNL     1      -0.625  11.382  19.017  0.00  0.00    +0.000 N 
ENDBRANCH   1   2
BRANCH   1  18
ATOM     18  C   UNL     1       1.454   9.099  22.082  0.00  0.00    +0.000 C 
BRANCH  18  20
ATOM     19  N   UNL     1       1.984   6.819  20.820  0.00  0.00    +0.000 N 
ATOM     20  C   UNL     1       1.054   7.736  21.274  0.00  0.00    +0.000 C 
ATOM     21  O   UNL     1      -0.147   7.569  21.029  0.00  0.00    +0.000 OA
ATOM     22  H   UNL     1       2.960   7.034  21.072  0.00  0.00    +0.000 HD
BRANCH  19  28
ATOM     23  C   UNL     1       2.411   5.370  18.816  0.00  0.00    +0.000 A 
ATOM     24  C   UNL     1       2.343   4.139  18.115  0.00  0.00    +0.000 A 
ATOM     25  C   UNL     1       1.640   3.054  18.610  0.00  0.00    +0.000 A 
ATOM     26  C   UNL     1       0.996   3.219  19.847  0.00  0.00    +0.000 A 
ATOM     27  C   UNL     1       1.088   4.439  20.570  0.00  0.00    +0.000 A 
ATOM     28  C   UNL     1       1.826   5.558  20.107  0.00  0.00    +0.000 A 
BRANCH  23  29
ATOM     29  C   UNL     1       3.101   6.490  18.142  0.00  0.00    +0.000 C 
ATOM     30  O   UNL     1       2.540   7.563  17.862  0.00  0.00    +0.000 OA
BRANCH  29  32
ATOM     31  C   UNL     1       4.816   6.722  16.586  0.00  0.00    +0.000 C 
ATOM     32  O   UNL     1       4.362   6.160  17.819  0.00  0.00    +0.000 OA
ENDBRANCH  29  32
ENDBRANCH  23  29
ENDBRANCH  19  28
ENDBRANCH  18  20
ENDBRANCH   1  18
TORSDOF 6
ENDMDL
MODEL 8
REMARK VINA RESULT:      -7.5      1.435      1.654
REMARK  Name = 
REMARK  10 active torsions:
REMARK  status: ('A' for Active; 'I' for Inactive)
REMARK    1  A    between atoms: C_1  and  O_2
REMARK    2  A    between atoms: O_2  and  C_3
REMARK    3  A    between atoms: C_3  and  C_5
REMARK    4  A    between atoms: C_10  and  N_11
REMARK    5  A    between atoms: C_12  and  C_14
REMARK    6  A    between atoms: C_14  and  S_15
REMARK    7  A    between atoms: S_15  and  C_16
REMARK    8  A    between atoms: C_21  and  C_22
REMARK    9  A    between atoms: C_25  and  C_26
REMARK   10  A    between atoms: C_28  and  C_29
REMARK                            x       y       z     vdW  Elec       q    Type
REMARK                         _______ _______ _______ _____ _____    ______ ____
ROOT
ATOM      1  S   UNL     1       0.942   9.578  20.853  0.00  0.00    +0.000 S 
ENDROOT
BRANCH   1   2
ATOM      2  C   UNL     1       0.718  10.472  19.233  0.00  0.00    +0.000 A 
ATOM      3  N   UNL     1       1.789  11.074  18.712  0.00  0.00    +0.000 NA
ATOM      4  N   UNL     1       1.401  12.351  18.370  0.00  0.00    +0.000 NA
ATOM      5  C   UNL     1       0.134  12.424  18.709  0.00  0.00    +0.000 A 
ATOM      6  C   UNL     1      -0.592  13.335  19.555  0.00  0.00    +0.000 A 
ATOM      7  C   UNL     1      -1.507  12.741  20.375  0.00  0.00    +0.000 A 
ATOM      8  C   UNL     1      -1.322  11.830  21.566  0.00  0.00    +0.000 C 
ATOM      9  C   UNL     1      -2.483  12.028  19.546  0.00  0.00    +0.000 A 
ATOM     10  C   UNL     1      -3.836  12.379  19.752  0.00  0.00    +0.000 A 
ATOM     11  C   UNL     1      -4.795  11.972  18.854  0.00  0.00    +0.000 A 
ATOM     12  C   UNL     1      -6.230  12.356  19.097  0.00  0.00    +0.000 C 
ATOM     13  C   UNL     1      -4.324  11.376  17.689  0.00  0.00    +0.000 A 
ATOM     14  C   UNL     1      -2.902  11.060  17.463  0.00  0.00    +0.000 A 
ATOM     15  C   UNL     1      -2.624  10.870  15.982  0.00  0.00    +0.000 C 
ATOM     16  C   UNL     1      -1.979  11.182  18.547  0.00  0.00    +0.000 A 
ATOM     17  N   UNL     1      -0.446  11.143  18.546  0.00  0.00    +0.000 N 
ENDBRANCH   1   2
BRANCH   1  18
ATOM     18  C   UNL     1       1.552   7.782  20.453  0.00  0.00    +0.000 C 
BRANCH  18  20
ATOM     19  N   UNL     1       3.328   6.467  18.973  0.00  0.00    +0.000 N 
ATOM     20  C   UNL     1       2.282   7.369  19.051  0.00  0.00    +0.000 C 
ATOM     21  O   UNL     1       1.888   7.945  18.029  0.00  0.00    +0.000 OA
ATOM     22  H   UNL     1       3.587   6.030  19.869  0.00  0.00    +0.000 HD
BRANCH  19  28
ATOM     23  C   UNL     1       4.422   4.579  17.734  0.00  0.00    +0.000 A 
ATOM     24  C   UNL     1       5.096   4.033  16.612  0.00  0.00    +0.000 A 
ATOM     25  C   UNL     1       5.538   4.826  15.566  0.00  0.00    +0.000 A 
ATOM     26  C   UNL     1       5.284   6.205  15.658  0.00  0.00    +0.000 A 
ATOM     27  C   UNL     1       4.579   6.753  16.763  0.00  0.00    +0.000 A 
ATOM     28  C   UNL     1       4.085   5.965  17.834  0.00  0.00    +0.000 A 
BRANCH  23  29
ATOM     29  C   UNL     1       4.092   3.652  18.836  0.00  0.00    +0.000 C 
ATOM     30  O   UNL     1       4.944   3.192  19.615  0.00  0.00    +0.000 OA
BRANCH  29  32
ATOM     31  C   UNL     1       2.226   3.130  20.125  0.00  0.00    +0.000 C 
ATOM     32  O   UNL     1       2.788   3.330  18.826  0.00  0.00    +0.000 OA
ENDBRANCH  29  32
ENDBRANCH  23  29
ENDBRANCH  19  28
ENDBRANCH  18  20
ENDBRANCH   1  18
TORSDOF 6
ENDMDL
MODEL 9
REMARK VINA RESULT:      -7.5      1.909      2.828
REMARK  Name = 
REMARK  10 active torsions:
REMARK  status: ('A' for Active; 'I' for Inactive)
REMARK    1  A    between atoms: C_1  and  O_2
REMARK    2  A    between atoms: O_2  and  C_3
REMARK    3  A    between atoms: C_3  and  C_5
REMARK    4  A    between atoms: C_10  and  N_11
REMARK    5  A    between atoms: C_12  and  C_14
REMARK    6  A    between atoms: C_14  and  S_15
REMARK    7  A    between atoms: S_15  and  C_16
REMARK    8  A    between atoms: C_21  and  C_22
REMARK    9  A    between atoms: C_25  and  C_26
REMARK   10  A    between atoms: C_28  and  C_29
REMARK                            x       y       z     vdW  Elec       q    Type
REMARK                         _______ _______ _______ _____ _____    ______ ____
ROOT
ATOM      1  S   UNL     1       0.317   9.592  20.962  0.00  0.00    +0.000 S 
ENDROOT
BRANCH   1   2
ATOM      2  C   UNL     1       0.244  10.488  19.330  0.00  0.00    +0.000 A 
ATOM      3  N   UNL     1       1.362  11.081  18.905  0.00  0.00    +0.000 NA
ATOM      4  N   UNL     1       1.016  12.360  18.531  0.00  0.00    +0.000 NA
ATOM      5  C   UNL     1      -0.275  12.445  18.757  0.00  0.00    +0.000 A 
ATOM      6  C   UNL     1      -1.065  13.361  19.537  0.00  0.00    +0.000 A 
ATOM      7  C   UNL     1      -2.054  12.775  20.273  0.00  0.00    +0.000 A 
ATOM      8  C   UNL     1      -1.981  11.863  21.475  0.00  0.00    +0.000 C 
ATOM      9  C   UNL     1      -2.959  12.070  19.361  0.00  0.00    +0.000 A 
ATOM     10  C   UNL     1      -4.321  12.433  19.447  0.00  0.00    +0.000 A 
ATOM     11  C   UNL     1      -5.201  12.033  18.468  0.00  0.00    +0.000 A 
ATOM     12  C   UNL     1      -6.649  12.429  18.584  0.00  0.00    +0.000 C 
ATOM     13  C   UNL     1      -4.635  11.433  17.349  0.00  0.00    +0.000 A 
ATOM     14  C   UNL     1      -3.202  11.106  17.248  0.00  0.00    +0.000 A 
ATOM     15  C   UNL     1      -2.795  10.913  15.798  0.00  0.00    +0.000 C 
ATOM     16  C   UNL     1      -2.376  11.220  18.409  0.00  0.00    +0.000 A 
ATOM     17  N   UNL     1      -0.850  11.168  18.543  0.00  0.00    +0.000 N 
ENDBRANCH   1   2
BRANCH   1  18
ATOM     18  C   UNL     1       1.850   8.406  20.913  0.00  0.00    +0.000 C 
BRANCH  18  20
ATOM     19  N   UNL     1       2.329   5.912  20.123  0.00  0.00    +0.000 N 
ATOM     20  C   UNL     1       2.041   7.226  19.799  0.00  0.00    +0.000 C 
ATOM     21  O   UNL     1       1.967   7.566  18.612  0.00  0.00    +0.000 OA
ATOM     22  H   UNL     1       2.367   5.716  21.133  0.00  0.00    +0.000 HD
BRANCH  19  28
ATOM     23  C   UNL     1       3.738   4.531  18.571  0.00  0.00    +0.000 A 
ATOM     24  C   UNL     1       3.993   3.366  17.803  0.00  0.00    +0.000 A 
ATOM     25  C   UNL     1       3.040   2.375  17.639  0.00  0.00    +0.000 A 
ATOM     26  C   UNL     1       1.802   2.567  18.274  0.00  0.00    +0.000 A 
ATOM     27  C   UNL     1       1.552   3.715  19.073  0.00  0.00    +0.000 A 
ATOM     28  C   UNL     1       2.517   4.732  19.288  0.00  0.00    +0.000 A 
BRANCH  23  29
ATOM     29  C   UNL     1       4.791   5.568  18.589  0.00  0.00    +0.000 C 
ATOM     30  O   UNL     1       4.934   6.405  17.681  0.00  0.00    +0.000 OA
BRANCH  29  32
ATOM     31  C   UNL     1       6.986   5.493  19.358  0.00  0.00    +0.000 C 
ATOM     32  O   UNL     1       5.590   5.431  19.659  0.00  0.00    +0.000 OA
ENDBRANCH  29  32
ENDBRANCH  23  29
ENDBRANCH  19  28
ENDBRANCH  18  20
ENDBRANCH   1  18
TORSDOF 6
ENDMDL
