MODEL 1
REMARK VINA RESULT:      -7.4      0.000      0.000
REMARK  Name = 
REMARK  5 active torsions:
REMARK  status: ('A' for Active; 'I' for Inactive)
REMARK    1  A    between atoms: C_1  and  N_2
REMARK    2  A    between atoms: C_5  and  C_6
REMARK    3  A    between atoms: N_8  and  C_9
REMARK    4  A    between atoms: C_20  and  C_21
REMARK    5  A    between atoms: C_24  and  C_25
REMARK                            x       y       z     vdW  Elec       q    Type
REMARK                         _______ _______ _______ _____ _____    ______ ____
ROOT
ATOM      1  C   UNL     1       2.552  13.195  20.081  0.00  0.00    +0.000 C 
ATOM      2  N   UNL     1       1.290  13.176  19.367  0.00  0.00    +0.000 N 
ATOM      3  N   UNL     1       0.709  14.362  19.091  0.00  0.00    +0.000 NA
ATOM      4  C   UNL     1      -0.477  14.028  18.576  0.00  0.00    +0.000 A 
ATOM      5  C   UNL     1      -0.650  12.644  18.439  0.00  0.00    +0.000 A 
ATOM      6  C   UNL     1       0.548  12.084  18.948  0.00  0.00    +0.000 A 
ENDROOT
BRANCH   5   7
ATOM      7  C   UNL     1      -1.900  11.936  18.069  0.00  0.00    +0.000 A 
ATOM      8  N   UNL     1      -1.796  11.210  16.929  0.00  0.00    +0.000 NA
ATOM      9  N   UNL     1      -3.033  10.809  16.672  0.00  0.00    +0.000 N 
ATOM     10  C   UNL     1      -3.377  10.140  15.443  0.00  0.00    +0.000 C 
ATOM     11  C   UNL     1      -3.931  11.141  17.631  0.00  0.00    +0.000 A 
ATOM     12  N   UNL     1      -5.222  10.807  17.535  0.00  0.00    +0.000 NA
ATOM     13  C   UNL     1      -5.923  11.221  18.564  0.00  0.00    +0.000 A 
ATOM     14  N   UNL     1      -5.434  11.891  19.597  0.00  0.00    +0.000 NA
ATOM     15  C   UNL     1      -4.103  12.247  19.696  0.00  0.00    +0.000 A 
ATOM     16  N   UNL     1      -3.885  12.926  20.895  0.00  0.00    +0.000 N 
ATOM     17  C   UNL     1      -2.851  13.631  21.543  0.00  0.00    +0.000 C 
ATOM     18  C   UNL     1      -3.893  14.101  22.577  0.00  0.00    +0.000 C 
ATOM     19  C   UNL     1      -4.945  13.572  21.624  0.00  0.00    +0.000 C 
ATOM     20  C   UNL     1      -3.249  11.860  18.626  0.00  0.00    +0.000 A 
ENDBRANCH   5   7
BRANCH   6  21
ATOM     21  C   UNL     1       0.966  10.662  19.075  0.00  0.00    +0.000 A 
ATOM     22  C   UNL     1       0.644   9.965  20.254  0.00  0.00    +0.000 A 
ATOM     23  C   UNL     1       1.088   8.660  20.486  0.00  0.00    +0.000 A 
ATOM     24  C   UNL     1       1.812   7.971  19.513  0.00  0.00    +0.000 A 
ATOM     25  C   UNL     1       2.100   8.624  18.310  0.00  0.00    +0.000 A 
ATOM     26  C   UNL     1       1.697   9.956  18.108  0.00  0.00    +0.000 A 
BRANCH  24  27
ATOM     27  C   UNL     1       2.321   6.579  19.778  0.00  0.00    +0.000 C 
ATOM     28  F   UNL     1       1.692   5.968  20.822  0.00  0.00    +0.000 F 
ATOM     29  F   UNL     1       2.168   5.742  18.714  0.00  0.00    +0.000 F 
ENDBRANCH  24  27
ENDBRANCH   6  21
TORSDOF 3
ENDMDL
MODEL 2
REMARK VINA RESULT:      -7.3      5.817      8.940
REMARK  Name = 
REMARK  5 active torsions:
REMARK  status: ('A' for Active; 'I' for Inactive)
REMARK    1  A    between atoms: C_1  and  N_2
REMARK    2  A    between atoms: C_5  and  C_6
REMARK    3  A    between atoms: N_8  and  C_9
REMARK    4  A    between atoms: C_20  and  C_21
REMARK    5  A    between atoms: C_24  and  C_25
REMARK                            x       y       z     vdW  Elec       q    Type
REMARK                         _______ _______ _______ _____ _____    ______ ____
ROOT
ATOM      1  C   UNL     1       7.447   4.456  15.481  0.00  0.00    +0.000 C 
ATOM      2  N   UNL     1       6.188   4.691  16.163  0.00  0.00    +0.000 N 
ATOM      3  N   UNL     1       5.182   3.821  15.936  0.00  0.00    +0.000 NA
ATOM      4  C   UNL     1       4.137   4.367  16.564  0.00  0.00    +0.000 A 
ATOM      5  C   UNL     1       4.463   5.538  17.263  0.00  0.00    +0.000 A 
ATOM      6  C   UNL     1       5.843   5.732  17.008  0.00  0.00    +0.000 A 
ENDROOT
BRANCH   5   7
ATOM      7  C   UNL     1       3.516   6.476  17.915  0.00  0.00    +0.000 A 
ATOM      8  N   UNL     1       3.425   7.676  17.290  0.00  0.00    +0.000 NA
ATOM      9  N   UNL     1       2.689   8.422  18.102  0.00  0.00    +0.000 N 
ATOM     10  C   UNL     1       2.495   9.832  17.874  0.00  0.00    +0.000 C 
ATOM     11  C   UNL     1       2.204   7.755  19.176  0.00  0.00    +0.000 A 
ATOM     12  N   UNL     1       1.436   8.355  20.092  0.00  0.00    +0.000 NA
ATOM     13  C   UNL     1       1.071   7.537  21.051  0.00  0.00    +0.000 A 
ATOM     14  N   UNL     1       1.405   6.256  21.127  0.00  0.00    +0.000 NA
ATOM     15  C   UNL     1       2.206   5.635  20.188  0.00  0.00    +0.000 A 
ATOM     16  N   UNL     1       2.370   4.291  20.525  0.00  0.00    +0.000 N 
ATOM     17  C   UNL     1       3.112   3.172  20.097  0.00  0.00    +0.000 C 
ATOM     18  C   UNL     1       2.650   2.446  21.376  0.00  0.00    +0.000 C 
ATOM     19  C   UNL     1       2.166   3.796  21.861  0.00  0.00    +0.000 C 
ATOM     20  C   UNL     1       2.673   6.433  19.107  0.00  0.00    +0.000 A 
ENDBRANCH   5   7
BRANCH   6  21
ATOM     21  C   UNL     1       6.764   6.805  17.471  0.00  0.00    +0.000 A 
ATOM     22  C   UNL     1       7.712   6.499  18.465  0.00  0.00    +0.000 A 
ATOM     23  C   UNL     1       8.543   7.478  19.018  0.00  0.00    +0.000 A 
ATOM     24  C   UNL     1       8.512   8.790  18.545  0.00  0.00    +0.000 A 
ATOM     25  C   UNL     1       7.614   9.106  17.519  0.00  0.00    +0.000 A 
ATOM     26  C   UNL     1       6.743   8.129  17.008  0.00  0.00    +0.000 A 
BRANCH  24  27
ATOM     27  C   UNL     1       9.382   9.851  19.166  0.00  0.00    +0.000 C 
ATOM     28  F   UNL     1       9.681  10.868  18.309  0.00  0.00    +0.000 F 
ATOM     29  F   UNL     1       8.811  10.440  20.254  0.00  0.00    +0.000 F 
ENDBRANCH  24  27
ENDBRANCH   6  21
TORSDOF 3
ENDMDL
MODEL 3
REMARK VINA RESULT:      -7.1      0.707      1.261
REMARK  Name = 
REMARK  5 active torsions:
REMARK  status: ('A' for Active; 'I' for Inactive)
REMARK    1  A    between atoms: C_1  and  N_2
REMARK    2  A    between atoms: C_5  and  C_6
REMARK    3  A    between atoms: N_8  and  C_9
REMARK    4  A    between atoms: C_20  and  C_21
REMARK    5  A    between atoms: C_24  and  C_25
REMARK                            x       y       z     vdW  Elec       q    Type
REMARK                         _______ _______ _______ _____ _____    ______ ____
ROOT
ATOM      1  C   UNL     1       2.327  13.326  20.879  0.00  0.00    +0.000 C 
ATOM      2  N   UNL     1       1.113  13.350  20.085  0.00  0.00    +0.000 N 
ATOM      3  N   UNL     1       0.458  14.525  19.981  0.00  0.00    +0.000 NA
ATOM      4  C   UNL     1      -0.667  14.210  19.333  0.00  0.00    +0.000 A 
ATOM      5  C   UNL     1      -0.722  12.864  18.943  0.00  0.00    +0.000 A 
ATOM      6  C   UNL     1       0.485  12.304  19.429  0.00  0.00    +0.000 A 
ENDROOT
BRANCH   5   7
ATOM      7  C   UNL     1      -1.889  12.152  18.367  0.00  0.00    +0.000 A 
ATOM      8  N   UNL     1      -1.631  11.563  17.174  0.00  0.00    +0.000 NA
ATOM      9  N   UNL     1      -2.812  11.143  16.744  0.00  0.00    +0.000 N 
ATOM     10  C   UNL     1      -2.993  10.603  15.420  0.00  0.00    +0.000 C 
ATOM     11  C   UNL     1      -3.820  11.329  17.631  0.00  0.00    +0.000 A 
ATOM     12  N   UNL     1      -5.075  10.955  17.361  0.00  0.00    +0.000 NA
ATOM     13  C   UNL     1      -5.898  11.222  18.348  0.00  0.00    +0.000 A 
ATOM     14  N   UNL     1      -5.553  11.791  19.493  0.00  0.00    +0.000 NA
ATOM     15  C   UNL     1      -4.259  12.188  19.772  0.00  0.00    +0.000 A 
ATOM     16  N   UNL     1      -4.201  12.737  21.053  0.00  0.00    +0.000 N 
ATOM     17  C   UNL     1      -3.277  13.406  21.881  0.00  0.00    +0.000 C 
ATOM     18  C   UNL     1      -4.443  13.714  22.841  0.00  0.00    +0.000 C 
ATOM     19  C   UNL     1      -5.363  13.253  21.729  0.00  0.00    +0.000 C 
ATOM     20  C   UNL     1      -3.282  11.958  18.765  0.00  0.00    +0.000 A 
ENDBRANCH   5   7
BRANCH   6  21
ATOM     21  C   UNL     1       1.007  10.914  19.335  0.00  0.00    +0.000 A 
ATOM     22  C   UNL     1       1.713  10.534  18.178  0.00  0.00    +0.000 A 
ATOM     23  C   UNL     1       2.146   9.220  17.976  0.00  0.00    +0.000 A 
ATOM     24  C   UNL     1       1.956   8.248  18.958  0.00  0.00    +0.000 A 
ATOM     25  C   UNL     1       1.304   8.615  20.140  0.00  0.00    +0.000 A 
ATOM     26  C   UNL     1       0.822   9.924  20.312  0.00  0.00    +0.000 A 
BRANCH  24  27
ATOM     27  C   UNL     1       2.391   6.825  18.724  0.00  0.00    +0.000 C 
ATOM     28  F   UNL     1       3.114   6.667  17.579  0.00  0.00    +0.000 F 
ATOM     29  F   UNL     1       3.175   6.334  19.725  0.00  0.00    +0.000 F 
ENDBRANCH  24  27
ENDBRANCH   6  21
TORSDOF 3
ENDMDL
MODEL 4
REMARK VINA RESULT:      -6.8      1.218      1.443
REMARK  Name = 
REMARK  5 active torsions:
REMARK  status: ('A' for Active; 'I' for Inactive)
REMARK    1  A    between atoms: C_1  and  N_2
REMARK    2  A    between atoms: C_5  and  C_6
REMARK    3  A    between atoms: N_8  and  C_9
REMARK    4  A    between atoms: C_20  and  C_21
REMARK    5  A    between atoms: C_24  and  C_25
REMARK                            x       y       z     vdW  Elec       q    Type
REMARK                         _______ _______ _______ _____ _____    ______ ____
ROOT
ATOM      1  C   UNL     1       2.587  13.451  20.788  0.00  0.00    +0.000 C 
ATOM      2  N   UNL     1       1.223  13.553  20.306  0.00  0.00    +0.000 N 
ATOM      3  N   UNL     1       0.590  14.734  20.465  0.00  0.00    +0.000 NA
ATOM      4  C   UNL     1      -0.662  14.483  20.073  0.00  0.00    +0.000 A 
ATOM      5  C   UNL     1      -0.839  13.180  19.587  0.00  0.00    +0.000 A 
ATOM      6  C   UNL     1       0.434  12.574  19.724  0.00  0.00    +0.000 A 
ENDROOT
BRANCH   5   7
ATOM      7  C   UNL     1      -2.125  12.528  19.239  0.00  0.00    +0.000 A 
ATOM      8  N   UNL     1      -2.141  11.988  17.997  0.00  0.00    +0.000 NA
ATOM      9  N   UNL     1      -3.400  11.621  17.805  0.00  0.00    +0.000 N 
ATOM     10  C   UNL     1      -3.870  11.147  16.528  0.00  0.00    +0.000 C 
ATOM     11  C   UNL     1      -4.195  11.793  18.888  0.00  0.00    +0.000 A 
ATOM     12  N   UNL     1      -5.492  11.468  18.871  0.00  0.00    +0.000 NA
ATOM     13  C   UNL     1      -6.084  11.712  20.016  0.00  0.00    +0.000 A 
ATOM     14  N   UNL     1      -5.489  12.219  21.087  0.00  0.00    +0.000 NA
ATOM     15  C   UNL     1      -4.152  12.566  21.106  0.00  0.00    +0.000 A 
ATOM     16  N   UNL     1      -3.811  13.055  22.367  0.00  0.00    +0.000 N 
ATOM     17  C   UNL     1      -2.712  13.659  23.011  0.00  0.00    +0.000 C 
ATOM     18  C   UNL     1      -3.643  13.956  24.203  0.00  0.00    +0.000 C 
ATOM     19  C   UNL     1      -4.788  13.571  23.289  0.00  0.00    +0.000 C 
ATOM     20  C   UNL     1      -3.412  12.356  19.910  0.00  0.00    +0.000 A 
ENDBRANCH   5   7
BRANCH   6  21
ATOM     21  C   UNL     1       0.885  11.198  19.384  0.00  0.00    +0.000 A 
ATOM     22  C   UNL     1       0.683  10.169  20.323  0.00  0.00    +0.000 A 
ATOM     23  C   UNL     1       1.168   8.874  20.115  0.00  0.00    +0.000 A 
ATOM     24  C   UNL     1       1.811   8.537  18.924  0.00  0.00    +0.000 A 
ATOM     25  C   UNL     1       1.976   9.530  17.952  0.00  0.00    +0.000 A 
ATOM     26  C   UNL     1       1.536  10.843  18.193  0.00  0.00    +0.000 A 
BRANCH  24  27
ATOM     27  C   UNL     1       2.364   7.152  18.716  0.00  0.00    +0.000 C 
ATOM     28  F   UNL     1       3.301   7.092  17.727  0.00  0.00    +0.000 F 
ATOM     29  F   UNL     1       2.968   6.646  19.828  0.00  0.00    +0.000 F 
ENDBRANCH  24  27
ENDBRANCH   6  21
TORSDOF 3
ENDMDL
MODEL 5
REMARK VINA RESULT:      -6.8      3.623      5.567
REMARK  Name = 
REMARK  5 active torsions:
REMARK  status: ('A' for Active; 'I' for Inactive)
REMARK    1  A    between atoms: C_1  and  N_2
REMARK    2  A    between atoms: C_5  and  C_6
REMARK    3  A    between atoms: N_8  and  C_9
REMARK    4  A    between atoms: C_20  and  C_21
REMARK    5  A    between atoms: C_24  and  C_25
REMARK                            x       y       z     vdW  Elec       q    Type
REMARK                         _______ _______ _______ _____ _____    ______ ____
ROOT
ATOM      1  C   UNL     1      -0.742  15.315  23.180  0.00  0.00    +0.000 C 
ATOM      2  N   UNL     1      -1.269  14.193  22.428  0.00  0.00    +0.000 N 
ATOM      3  N   UNL     1      -2.094  13.341  23.072  0.00  0.00    +0.000 NA
ATOM      4  C   UNL     1      -2.291  12.356  22.191  0.00  0.00    +0.000 A 
ATOM      5  C   UNL     1      -1.671  12.588  20.955  0.00  0.00    +0.000 A 
ATOM      6  C   UNL     1      -1.011  13.831  21.116  0.00  0.00    +0.000 A 
ENDROOT
BRANCH   5   7
ATOM      7  C   UNL     1      -1.545  11.630  19.830  0.00  0.00    +0.000 A 
ATOM      8  N   UNL     1      -0.348  10.996  19.788  0.00  0.00    +0.000 NA
ATOM      9  N   UNL     1      -0.358  10.334  18.640  0.00  0.00    +0.000 N 
ATOM     10  C   UNL     1       0.812   9.657  18.141  0.00  0.00    +0.000 C 
ATOM     11  C   UNL     1      -1.532  10.410  17.969  0.00  0.00    +0.000 A 
ATOM     12  N   UNL     1      -1.718   9.794  16.797  0.00  0.00    +0.000 NA
ATOM     13  C   UNL     1      -2.921   9.993  16.313  0.00  0.00    +0.000 A 
ATOM     14  N   UNL     1      -3.867  10.713  16.899  0.00  0.00    +0.000 NA
ATOM     15  C   UNL     1      -3.677  11.359  18.105  0.00  0.00    +0.000 A 
ATOM     16  N   UNL     1      -4.849  12.019  18.475  0.00  0.00    +0.000 N 
ATOM     17  C   UNL     1      -5.296  12.913  19.469  0.00  0.00    +0.000 C 
ATOM     18  C   UNL     1      -6.591  13.088  18.652  0.00  0.00    +0.000 C 
ATOM     19  C   UNL     1      -5.872  12.373  17.526  0.00  0.00    +0.000 C 
ATOM     20  C   UNL     1      -2.400  11.223  18.717  0.00  0.00    +0.000 A 
ENDBRANCH   5   7
BRANCH   6  21
ATOM     21  C   UNL     1      -0.180  14.609  20.159  0.00  0.00    +0.000 A 
ATOM     22  C   UNL     1       1.161  14.228  19.962  0.00  0.00    +0.000 A 
ATOM     23  C   UNL     1       2.028  14.970  19.154  0.00  0.00    +0.000 A 
ATOM     24  C   UNL     1       1.569  16.083  18.450  0.00  0.00    +0.000 A 
ATOM     25  C   UNL     1       0.226  16.450  18.588  0.00  0.00    +0.000 A 
ATOM     26  C   UNL     1      -0.625  15.732  19.445  0.00  0.00    +0.000 A 
BRANCH  24  27
ATOM     27  C   UNL     1       2.513  16.902  17.610  0.00  0.00    +0.000 C 
ATOM     28  F   UNL     1       3.343  16.141  16.841  0.00  0.00    +0.000 F 
ATOM     29  F   UNL     1       1.871  17.737  16.745  0.00  0.00    +0.000 F 
ENDBRANCH  24  27
ENDBRANCH   6  21
TORSDOF 3
ENDMDL
MODEL 6
REMARK VINA RESULT:      -6.8      3.157      6.408
REMARK  Name = 
REMARK  5 active torsions:
REMARK  status: ('A' for Active; 'I' for Inactive)
REMARK    1  A    between atoms: C_1  and  N_2
REMARK    2  A    between atoms: C_5  and  C_6
REMARK    3  A    between atoms: N_8  and  C_9
REMARK    4  A    between atoms: C_20  and  C_21
REMARK    5  A    between atoms: C_24  and  C_25
REMARK                            x       y       z     vdW  Elec       q    Type
REMARK                         _______ _______ _______ _____ _____    ______ ____
ROOT
ATOM      1  C   UNL     1      -6.693  11.977  20.788  0.00  0.00    +0.000 C 
ATOM      2  N   UNL     1      -5.399  12.509  21.169  0.00  0.00    +0.000 N 
ATOM      3  N   UNL     1      -5.288  13.069  22.391  0.00  0.00    +0.000 NA
ATOM      4  C   UNL     1      -4.057  13.589  22.396  0.00  0.00    +0.000 A 
ATOM      5  C   UNL     1      -3.334  13.309  21.228  0.00  0.00    +0.000 A 
ATOM      6  C   UNL     1      -4.232  12.565  20.424  0.00  0.00    +0.000 A 
ENDROOT
BRANCH   5   7
ATOM      7  C   UNL     1      -2.019  13.876  20.840  0.00  0.00    +0.000 A 
ATOM      8  N   UNL     1      -2.101  15.108  20.283  0.00  0.00    +0.000 NA
ATOM      9  N   UNL     1      -0.876  15.364  19.848  0.00  0.00    +0.000 N 
ATOM     10  C   UNL     1      -0.579  16.521  19.042  0.00  0.00    +0.000 C 
ATOM     11  C   UNL     1       0.034  14.415  20.175  0.00  0.00    +0.000 A 
ATOM     12  N   UNL     1       1.320  14.519  19.822  0.00  0.00    +0.000 NA
ATOM     13  C   UNL     1       2.034  13.499  20.234  0.00  0.00    +0.000 A 
ATOM     14  N   UNL     1       1.565  12.472  20.928  0.00  0.00    +0.000 NA
ATOM     15  C   UNL     1       0.236  12.356  21.287  0.00  0.00    +0.000 A 
ATOM     16  N   UNL     1       0.047  11.184  22.021  0.00  0.00    +0.000 N 
ATOM     17  C   UNL     1      -1.013  10.433  22.566  0.00  0.00    +0.000 C 
ATOM     18  C   UNL     1       0.001   9.305  22.842  0.00  0.00    +0.000 C 
ATOM     19  C   UNL     1       0.962  10.075  21.959  0.00  0.00    +0.000 C 
ATOM     20  C   UNL     1      -0.637  13.402  20.880  0.00  0.00    +0.000 A 
ENDBRANCH   5   7
BRANCH   6  21
ATOM     21  C   UNL     1      -4.051  11.983  19.067  0.00  0.00    +0.000 A 
ATOM     22  C   UNL     1      -2.858  11.293  18.780  0.00  0.00    +0.000 A 
ATOM     23  C   UNL     1      -2.575  10.806  17.501  0.00  0.00    +0.000 A 
ATOM     24  C   UNL     1      -3.510  10.924  16.471  0.00  0.00    +0.000 A 
ATOM     25  C   UNL     1      -4.726  11.559  16.746  0.00  0.00    +0.000 A 
ATOM     26  C   UNL     1      -4.978  12.095  18.020  0.00  0.00    +0.000 A 
BRANCH  24  27
ATOM     27  C   UNL     1      -3.190  10.430  15.085  0.00  0.00    +0.000 C 
ATOM     28  F   UNL     1      -2.366   9.344  15.080  0.00  0.00    +0.000 F 
ATOM     29  F   UNL     1      -4.295  10.059  14.382  0.00  0.00    +0.000 F 
ENDBRANCH  24  27
ENDBRANCH   6  21
TORSDOF 3
ENDMDL
MODEL 7
REMARK VINA RESULT:      -6.7      7.535     10.303
REMARK  Name = 
REMARK  5 active torsions:
REMARK  status: ('A' for Active; 'I' for Inactive)
REMARK    1  A    between atoms: C_1  and  N_2
REMARK    2  A    between atoms: C_5  and  C_6
REMARK    3  A    between atoms: N_8  and  C_9
REMARK    4  A    between atoms: C_20  and  C_21
REMARK    5  A    between atoms: C_24  and  C_25
REMARK                            x       y       z     vdW  Elec       q    Type
REMARK                         _______ _______ _______ _____ _____    ______ ____
ROOT
ATOM      1  C   UNL     1      11.718  14.337  17.122  0.00  0.00    +0.000 C 
ATOM      2  N   UNL     1      10.828  14.858  18.142  0.00  0.00    +0.000 N 
ATOM      3  N   UNL     1      10.930  16.167  18.451  0.00  0.00    +0.000 NA
ATOM      4  C   UNL     1      10.113  16.316  19.497  0.00  0.00    +0.000 A 
ATOM      5  C   UNL     1       9.419  15.143  19.827  0.00  0.00    +0.000 A 
ATOM      6  C   UNL     1       9.886  14.181  18.899  0.00  0.00    +0.000 A 
ENDROOT
BRANCH   5   7
ATOM      7  C   UNL     1       8.575  14.917  21.026  0.00  0.00    +0.000 A 
ATOM      8  N   UNL     1       9.284  14.785  22.173  0.00  0.00    +0.000 NA
ATOM      9  N   UNL     1       8.392  14.418  23.081  0.00  0.00    +0.000 N 
ATOM     10  C   UNL     1       8.777  14.014  24.409  0.00  0.00    +0.000 C 
ATOM     11  C   UNL     1       7.116  14.400  22.624  0.00  0.00    +0.000 A 
ATOM     12  N   UNL     1       6.090  14.060  23.410  0.00  0.00    +0.000 NA
ATOM     13  C   UNL     1       4.940  14.106  22.779  0.00  0.00    +0.000 A 
ATOM     14  N   UNL     1       4.784  14.450  21.509  0.00  0.00    +0.000 NA
ATOM     15  C   UNL     1       5.842  14.792  20.690  0.00  0.00    +0.000 A 
ATOM     16  N   UNL     1       5.368  15.119  19.419  0.00  0.00    +0.000 N 
ATOM     17  C   UNL     1       5.878  15.428  18.142  0.00  0.00    +0.000 C 
ATOM     18  C   UNL     1       4.442  15.300  17.598  0.00  0.00    +0.000 C 
ATOM     19  C   UNL     1       4.086  14.681  18.934  0.00  0.00    +0.000 C 
ATOM     20  C   UNL     1       7.141  14.764  21.268  0.00  0.00    +0.000 A 
ENDBRANCH   5   7
BRANCH   6  21
ATOM     21  C   UNL     1       9.527  12.746  18.740  0.00  0.00    +0.000 A 
ATOM     22  C   UNL     1       8.626  12.383  17.721  0.00  0.00    +0.000 A 
ATOM     23  C   UNL     1       8.167  11.071  17.574  0.00  0.00    +0.000 A 
ATOM     24  C   UNL     1       8.650  10.051  18.394  0.00  0.00    +0.000 A 
ATOM     25  C   UNL     1       9.588  10.378  19.380  0.00  0.00    +0.000 A 
ATOM     26  C   UNL     1      10.001  11.709  19.558  0.00  0.00    +0.000 A 
BRANCH  24  27
ATOM     27  C   UNL     1       8.128   8.645  18.258  0.00  0.00    +0.000 C 
ATOM     28  F   UNL     1       8.122   8.198  16.970  0.00  0.00    +0.000 F 
ATOM     29  F   UNL     1       8.857   7.734  18.962  0.00  0.00    +0.000 F 
ENDBRANCH  24  27
ENDBRANCH   6  21
TORSDOF 3
ENDMDL
MODEL 8
REMARK VINA RESULT:      -6.6      3.533      5.629
REMARK  Name = 
REMARK  5 active torsions:
REMARK  status: ('A' for Active; 'I' for Inactive)
REMARK    1  A    between atoms: C_1  and  N_2
REMARK    2  A    between atoms: C_5  and  C_6
REMARK    3  A    between atoms: N_8  and  C_9
REMARK    4  A    between atoms: C_20  and  C_21
REMARK    5  A    between atoms: C_24  and  C_25
REMARK                            x       y       z     vdW  Elec       q    Type
REMARK                         _______ _______ _______ _____ _____    ______ ____
ROOT
ATOM      1  C   UNL     1      -1.400  15.759  23.178  0.00  0.00    +0.000 C 
ATOM      2  N   UNL     1      -1.874  14.648  22.375  0.00  0.00    +0.000 N 
ATOM      3  N   UNL     1      -2.886  13.905  22.870  0.00  0.00    +0.000 NA
ATOM      4  C   UNL     1      -2.999  12.897  22.002  0.00  0.00    +0.000 A 
ATOM      5  C   UNL     1      -2.131  13.010  20.907  0.00  0.00    +0.000 A 
ATOM      6  C   UNL     1      -1.400  14.198  21.153  0.00  0.00    +0.000 A 
ENDROOT
BRANCH   5   7
ATOM      7  C   UNL     1      -1.879  11.986  19.863  0.00  0.00    +0.000 A 
ATOM      8  N   UNL     1      -0.654  11.413  19.949  0.00  0.00    +0.000 NA
ATOM      9  N   UNL     1      -0.549  10.676  18.852  0.00  0.00    +0.000 N 
ATOM     10  C   UNL     1       0.684  10.028  18.485  0.00  0.00    +0.000 C 
ATOM     11  C   UNL     1      -1.673  10.650  18.097  0.00  0.00    +0.000 A 
ATOM     12  N   UNL     1      -1.743   9.949  16.960  0.00  0.00    +0.000 NA
ATOM     13  C   UNL     1      -2.915  10.054  16.380  0.00  0.00    +0.000 A 
ATOM     14  N   UNL     1      -3.934  10.763  16.846  0.00  0.00    +0.000 NA
ATOM     15  C   UNL     1      -3.863  11.496  18.014  0.00  0.00    +0.000 A 
ATOM     16  N   UNL     1      -5.088  12.119  18.253  0.00  0.00    +0.000 N 
ATOM     17  C   UNL     1      -5.647  13.053  19.149  0.00  0.00    +0.000 C 
ATOM     18  C   UNL     1      -6.885  13.108  18.232  0.00  0.00    +0.000 C 
ATOM     19  C   UNL     1      -6.053  12.358  17.213  0.00  0.00    +0.000 C 
ATOM     20  C   UNL     1      -2.630  11.465  18.723  0.00  0.00    +0.000 A 
ENDBRANCH   5   7
BRANCH   6  21
ATOM     21  C   UNL     1      -0.328  14.851  20.355  0.00  0.00    +0.000 A 
ATOM     22  C   UNL     1      -0.687  15.850  19.431  0.00  0.00    +0.000 A 
ATOM     23  C   UNL     1       0.251  16.438  18.577  0.00  0.00    +0.000 A 
ATOM     24  C   UNL     1       1.603  16.102  18.665  0.00  0.00    +0.000 A 
ATOM     25  C   UNL     1       1.991  15.150  19.613  0.00  0.00    +0.000 A 
ATOM     26  C   UNL     1       1.034  14.523  20.429  0.00  0.00    +0.000 A 
BRANCH  24  27
ATOM     27  C   UNL     1       2.607  16.709  17.721  0.00  0.00    +0.000 C 
ATOM     28  F   UNL     1       3.281  15.779  16.986  0.00  0.00    +0.000 F 
ATOM     29  F   UNL     1       2.044  17.557  16.815  0.00  0.00    +0.000 F 
ENDBRANCH  24  27
ENDBRANCH   6  21
TORSDOF 3
ENDMDL
MODEL 9
REMARK VINA RESULT:      -6.5      3.923      5.383
REMARK  Name = 
REMARK  5 active torsions:
REMARK  status: ('A' for Active; 'I' for Inactive)
REMARK    1  A    between atoms: C_1  and  N_2
REMARK    2  A    between atoms: C_5  and  C_6
REMARK    3  A    between atoms: N_8  and  C_9
REMARK    4  A    between atoms: C_20  and  C_21
REMARK    5  A    between atoms: C_24  and  C_25
REMARK                            x       y       z     vdW  Elec       q    Type
REMARK                         _______ _______ _______ _____ _____    ______ ____
ROOT
ATOM      1  C   UNL     1       1.954  12.539  20.870  0.00  0.00    +0.000 C 
ATOM      2  N   UNL     1       0.737  11.896  20.413  0.00  0.00    +0.000 N 
ATOM      3  N   UNL     1       0.653  10.556  20.536  0.00  0.00    +0.000 NA
ATOM      4  C   UNL     1      -0.486  10.246  19.911  0.00  0.00    +0.000 A 
ATOM      5  C   UNL     1      -1.187  11.369  19.450  0.00  0.00    +0.000 A 
ATOM      6  C   UNL     1      -0.373  12.470  19.814  0.00  0.00    +0.000 A 
ENDROOT
BRANCH   5   7
ATOM      7  C   UNL     1      -2.385  11.373  18.575  0.00  0.00    +0.000 A 
ATOM      8  N   UNL     1      -2.147  10.895  17.329  0.00  0.00    +0.000 NA
ATOM      9  N   UNL     1      -3.262  11.141  16.656  0.00  0.00    +0.000 N 
ATOM     10  C   UNL     1      -3.357  10.928  15.234  0.00  0.00    +0.000 C 
ATOM     11  C   UNL     1      -4.259  11.660  17.412  0.00  0.00    +0.000 A 
ATOM     12  N   UNL     1      -5.455  11.960  16.894  0.00  0.00    +0.000 NA
ATOM     13  C   UNL     1      -6.278  12.451  17.790  0.00  0.00    +0.000 A 
ATOM     14  N   UNL     1      -5.988  12.635  19.070  0.00  0.00    +0.000 NA
ATOM     15  C   UNL     1      -4.751  12.335  19.607  0.00  0.00    +0.000 A 
ATOM     16  N   UNL     1      -4.750  12.620  20.973  0.00  0.00    +0.000 N 
ATOM     17  C   UNL     1      -3.841  12.659  22.049  0.00  0.00    +0.000 C 
ATOM     18  C   UNL     1      -4.939  13.351  22.880  0.00  0.00    +0.000 C 
ATOM     19  C   UNL     1      -5.690  13.528  21.577  0.00  0.00    +0.000 C 
ATOM     20  C   UNL     1      -3.772  11.808  18.721  0.00  0.00    +0.000 A 
ENDBRANCH   5   7
BRANCH   6  21
ATOM     21  C   UNL     1      -0.574  13.928  19.597  0.00  0.00    +0.000 A 
ATOM     22  C   UNL     1      -1.414  14.633  20.480  0.00  0.00    +0.000 A 
ATOM     23  C   UNL     1      -1.729  15.981  20.282  0.00  0.00    +0.000 A 
ATOM     24  C   UNL     1      -1.155  16.699  19.233  0.00  0.00    +0.000 A 
ATOM     25  C   UNL     1      -0.274  16.033  18.374  0.00  0.00    +0.000 A 
ATOM     26  C   UNL     1      -0.008  14.664  18.547  0.00  0.00    +0.000 A 
BRANCH  24  27
ATOM     27  C   UNL     1      -1.522  18.141  19.000  0.00  0.00    +0.000 C 
ATOM     28  F   UNL     1      -1.619  18.462  17.678  0.00  0.00    +0.000 F 
ATOM     29  F   UNL     1      -2.720  18.483  19.552  0.00  0.00    +0.000 F 
ENDBRANCH  24  27
ENDBRANCH   6  21
TORSDOF 3
ENDMDL
