MODEL 1
REMARK VINA RESULT:      -8.2      0.000      0.000
REMARK  Name = 
REMARK  5 active torsions:
REMARK  status: ('A' for Active; 'I' for Inactive)
REMARK    1  A    between atoms: C_1  and  S_2
REMARK    2  A    between atoms: S_2  and  N_5
REMARK    3  A    between atoms: N_5  and  C_6
REMARK    4  A    between atoms: C_10  and  C_11
REMARK    5  A    between atoms: N_18  and  C_19
REMARK                            x       y       z     vdW  Elec       q    Type
REMARK                         _______ _______ _______ _____ _____    ______ ____
ROOT
ATOM      1  C   UNL     1       2.402   6.164  19.672  0.00  0.00    +0.000 A 
ATOM      2  C   UNL     1       1.862   5.416  20.705  0.00  0.00    +0.000 A 
ATOM      3  S   UNL     1       2.397   3.794  20.704  0.00  0.00    +0.000 S 
ATOM      4  C   UNL     1       3.394   4.054  19.339  0.00  0.00    +0.000 A 
ATOM      5  C   UNL     1       4.210   3.168  18.660  0.00  0.00    +0.000 A 
ATOM      6  N   UNL     1       4.928   3.603  17.607  0.00  0.00    +0.000 NA
ATOM      7  C   UNL     1       4.822   4.886  17.227  0.00  0.00    +0.000 A 
ATOM      8  N   UNL     1       5.555   5.350  16.140  0.00  0.00    +0.000 N 
ATOM      9  N   UNL     1       4.043   5.795  17.820  0.00  0.00    +0.000 NA
ATOM     10  C   UNL     1       3.325   5.368  18.891  0.00  0.00    +0.000 A 
ATOM     11  H   UNL     1       5.430   6.342  16.003  0.00  0.00    +0.000 HD
ENDROOT
BRANCH   1  16
ATOM     12  C   UNL     1       1.162   9.686  20.292  0.00  0.00    +0.000 A 
ATOM     13  C   UNL     1       1.152  10.204  19.001  0.00  0.00    +0.000 A 
ATOM     14  C   UNL     1       1.568   9.413  17.934  0.00  0.00    +0.000 A 
ATOM     15  C   UNL     1       1.999   8.104  18.160  0.00  0.00    +0.000 A 
ATOM     16  C   UNL     1       2.019   7.566  19.457  0.00  0.00    +0.000 A 
ATOM     17  C   UNL     1       1.611   8.382  20.528  0.00  0.00    +0.000 A 
BRANCH  12  18
ATOM     18  N   UNL     1       0.715  10.508  21.368  0.00  0.00    +0.000 N 
ATOM     19  H   UNL     1       0.254  11.381  21.102  0.00  0.00    +0.000 HD
BRANCH  18  21
ATOM     20  C   UNL     1      -1.318  11.035  23.044  0.00  0.00    +0.000 C 
ATOM     21  S   UNL     1      -0.123   9.777  22.640  0.00  0.00    +0.000 S 
ATOM     22  O   UNL     1       0.764   9.581  23.767  0.00  0.00    +0.000 OA
ATOM     23  O   UNL     1      -0.832   8.665  22.044  0.00  0.00    +0.000 OA
ENDBRANCH  18  21
ENDBRANCH  12  18
ENDBRANCH   1  16
BRANCH   8  24
ATOM     24  C   UNL     1       6.552   4.559  15.450  0.00  0.00    +0.000 C 
ATOM     25  C   UNL     1       6.209   3.816  14.189  0.00  0.00    +0.000 C 
ATOM     26  C   UNL     1       7.097   5.022  14.126  0.00  0.00    +0.000 C 
ENDBRANCH   8  24
TORSDOF 4
ENDMDL
MODEL 2
REMARK VINA RESULT:      -7.9      4.246      7.940
REMARK  Name = 
REMARK  5 active torsions:
REMARK  status: ('A' for Active; 'I' for Inactive)
REMARK    1  A    between atoms: C_1  and  S_2
REMARK    2  A    between atoms: S_2  and  N_5
REMARK    3  A    between atoms: N_5  and  C_6
REMARK    4  A    between atoms: C_10  and  C_11
REMARK    5  A    between atoms: N_18  and  C_19
REMARK                            x       y       z     vdW  Elec       q    Type
REMARK                         _______ _______ _______ _____ _____    ______ ____
ROOT
ATOM      1  C   UNL     1       3.983   3.830  18.777  0.00  0.00    +0.000 A 
ATOM      2  C   UNL     1       3.683   2.514  18.470  0.00  0.00    +0.000 A 
ATOM      3  S   UNL     1       2.146   2.031  19.037  0.00  0.00    +0.000 S 
ATOM      4  C   UNL     1       1.823   3.582  19.680  0.00  0.00    +0.000 A 
ATOM      5  C   UNL     1       0.710   4.041  20.360  0.00  0.00    +0.000 A 
ATOM      6  N   UNL     1       0.664   5.325  20.765  0.00  0.00    +0.000 NA
ATOM      7  C   UNL     1       1.711   6.127  20.517  0.00  0.00    +0.000 A 
ATOM      8  N   UNL     1       1.681   7.455  20.931  0.00  0.00    +0.000 N 
ATOM      9  N   UNL     1       2.826   5.752  19.884  0.00  0.00    +0.000 NA
ATOM     10  C   UNL     1       2.875   4.463  19.460  0.00  0.00    +0.000 A 
ATOM     11  H   UNL     1       2.500   7.958  20.626  0.00  0.00    +0.000 HD
ENDROOT
BRANCH   1  16
ATOM     12  C   UNL     1       7.148   4.707  16.896  0.00  0.00    +0.000 A 
ATOM     13  C   UNL     1       7.840   5.442  17.853  0.00  0.00    +0.000 A 
ATOM     14  C   UNL     1       7.267   5.669  19.100  0.00  0.00    +0.000 A 
ATOM     15  C   UNL     1       5.998   5.163  19.389  0.00  0.00    +0.000 A 
ATOM     16  C   UNL     1       5.284   4.421  18.434  0.00  0.00    +0.000 A 
ATOM     17  C   UNL     1       5.869   4.214  17.172  0.00  0.00    +0.000 A 
BRANCH  12  18
ATOM     18  N   UNL     1       7.763   4.472  15.631  0.00  0.00    +0.000 N 
ATOM     19  H   UNL     1       8.021   3.503  15.431  0.00  0.00    +0.000 HD
BRANCH  18  21
ATOM     20  C   UNL     1       6.261   3.781  13.513  0.00  0.00    +0.000 C 
ATOM     21  S   UNL     1       7.071   5.179  14.261  0.00  0.00    +0.000 S 
ATOM     22  O   UNL     1       8.110   5.660  13.376  0.00  0.00    +0.000 OA
ATOM     23  O   UNL     1       6.047   6.069  14.764  0.00  0.00    +0.000 OA
ENDBRANCH  18  21
ENDBRANCH  12  18
ENDBRANCH   1  16
BRANCH   8  24
ATOM     24  C   UNL     1       0.515   8.086  21.513  0.00  0.00    +0.000 C 
ATOM     25  C   UNL     1       0.647   9.330  22.346  0.00  0.00    +0.000 C 
ATOM     26  C   UNL     1       0.030   9.408  20.981  0.00  0.00    +0.000 C 
ENDBRANCH   8  24
TORSDOF 4
ENDMDL
MODEL 3
REMARK VINA RESULT:      -7.8      0.985      1.054
REMARK  Name = 
REMARK  5 active torsions:
REMARK  status: ('A' for Active; 'I' for Inactive)
REMARK    1  A    between atoms: C_1  and  S_2
REMARK    2  A    between atoms: S_2  and  N_5
REMARK    3  A    between atoms: N_5  and  C_6
REMARK    4  A    between atoms: C_10  and  C_11
REMARK    5  A    between atoms: N_18  and  C_19
REMARK                            x       y       z     vdW  Elec       q    Type
REMARK                         _______ _______ _______ _____ _____    ______ ____
ROOT
ATOM      1  C   UNL     1       2.311   6.332  19.634  0.00  0.00    +0.000 A 
ATOM      2  C   UNL     1       1.845   5.690  20.768  0.00  0.00    +0.000 A 
ATOM      3  S   UNL     1       2.377   4.071  20.883  0.00  0.00    +0.000 S 
ATOM      4  C   UNL     1       3.275   4.193  19.433  0.00  0.00    +0.000 A 
ATOM      5  C   UNL     1       4.040   3.241  18.784  0.00  0.00    +0.000 A 
ATOM      6  N   UNL     1       4.683   3.569  17.647  0.00  0.00    +0.000 NA
ATOM      7  C   UNL     1       4.551   4.812  17.156  0.00  0.00    +0.000 A 
ATOM      8  N   UNL     1       5.205   5.166  15.981  0.00  0.00    +0.000 N 
ATOM      9  N   UNL     1       3.817   5.778  17.714  0.00  0.00    +0.000 NA
ATOM     10  C   UNL     1       3.175   5.460  18.868  0.00  0.00    +0.000 A 
ATOM     11  H   UNL     1       5.071   6.141  15.760  0.00  0.00    +0.000 HD
ENDROOT
BRANCH   1  16
ATOM     12  C   UNL     1       0.551   9.681  19.741  0.00  0.00    +0.000 A 
ATOM     13  C   UNL     1       1.063  10.296  18.603  0.00  0.00    +0.000 A 
ATOM     14  C   UNL     1       1.995   9.629  17.815  0.00  0.00    +0.000 A 
ATOM     15  C   UNL     1       2.419   8.345  18.168  0.00  0.00    +0.000 A 
ATOM     16  C   UNL     1       1.914   7.711  19.315  0.00  0.00    +0.000 A 
ATOM     17  C   UNL     1       0.985   8.405  20.111  0.00  0.00    +0.000 A 
BRANCH  12  18
ATOM     18  N   UNL     1      -0.416  10.378  20.524  0.00  0.00    +0.000 N 
ATOM     19  H   UNL     1      -1.263   9.855  20.760  0.00  0.00    +0.000 HD
BRANCH  18  21
ATOM     20  C   UNL     1      -1.368  12.101  22.354  0.00  0.00    +0.000 C 
ATOM     21  S   UNL     1       0.119  11.247  21.871  0.00  0.00    +0.000 S 
ATOM     22  O   UNL     1       1.117  12.214  21.470  0.00  0.00    +0.000 OA
ATOM     23  O   UNL     1       0.407  10.250  22.881  0.00  0.00    +0.000 OA
ENDBRANCH  18  21
ENDBRANCH  12  18
ENDBRANCH   1  16
BRANCH   8  24
ATOM     24  C   UNL     1       6.150   4.306  15.300  0.00  0.00    +0.000 C 
ATOM     25  C   UNL     1       5.957   3.940  13.856  0.00  0.00    +0.000 C 
ATOM     26  C   UNL     1       7.062   4.875  14.247  0.00  0.00    +0.000 C 
ENDBRANCH   8  24
TORSDOF 4
ENDMDL
MODEL 4
REMARK VINA RESULT:      -7.7      3.523      7.593
REMARK  Name = 
REMARK  5 active torsions:
REMARK  status: ('A' for Active; 'I' for Inactive)
REMARK    1  A    between atoms: C_1  and  S_2
REMARK    2  A    between atoms: S_2  and  N_5
REMARK    3  A    between atoms: N_5  and  C_6
REMARK    4  A    between atoms: C_10  and  C_11
REMARK    5  A    between atoms: N_18  and  C_19
REMARK                            x       y       z     vdW  Elec       q    Type
REMARK                         _______ _______ _______ _____ _____    ______ ____
ROOT
ATOM      1  C   UNL     1       0.741   9.361  20.307  0.00  0.00    +0.000 A 
ATOM      2  C   UNL     1       0.883   9.915  21.568  0.00  0.00    +0.000 A 
ATOM      3  S   UNL     1      -0.050  11.329  21.784  0.00  0.00    +0.000 S 
ATOM      4  C   UNL     1      -0.700  11.221  20.206  0.00  0.00    +0.000 A 
ATOM      5  C   UNL     1      -1.593  12.056  19.560  0.00  0.00    +0.000 A 
ATOM      6  N   UNL     1      -1.985  11.763  18.306  0.00  0.00    +0.000 NA
ATOM      7  C   UNL     1      -1.484  10.675  17.701  0.00  0.00    +0.000 A 
ATOM      8  N   UNL     1      -1.875  10.360  16.404  0.00  0.00    +0.000 N 
ATOM      9  N   UNL     1      -0.605   9.833  18.251  0.00  0.00    +0.000 NA
ATOM     10  C   UNL     1      -0.214  10.113  19.521  0.00  0.00    +0.000 A 
ATOM     11  H   UNL     1      -1.473   9.488  16.095  0.00  0.00    +0.000 HD
ENDROOT
BRANCH   1  16
ATOM     12  C   UNL     1       2.431   5.975  20.371  0.00  0.00    +0.000 A 
ATOM     13  C   UNL     1       3.102   5.982  19.153  0.00  0.00    +0.000 A 
ATOM     14  C   UNL     1       2.987   7.078  18.304  0.00  0.00    +0.000 A 
ATOM     15  C   UNL     1       2.195   8.168  18.673  0.00  0.00    +0.000 A 
ATOM     16  C   UNL     1       1.509   8.177  19.898  0.00  0.00    +0.000 A 
ATOM     17  C   UNL     1       1.621   7.055  20.738  0.00  0.00    +0.000 A 
BRANCH  12  18
ATOM     18  N   UNL     1       2.578   4.849  21.232  0.00  0.00    +0.000 N 
ATOM     19  H   UNL     1       2.516   5.040  22.235  0.00  0.00    +0.000 HD
BRANCH  18  21
ATOM     20  C   UNL     1       2.914   2.552  19.878  0.00  0.00    +0.000 C 
ATOM     21  S   UNL     1       1.723   3.439  20.860  0.00  0.00    +0.000 S 
ATOM     22  O   UNL     1       0.573   3.761  20.043  0.00  0.00    +0.000 OA
ATOM     23  O   UNL     1       1.573   2.738  22.118  0.00  0.00    +0.000 OA
ENDBRANCH  18  21
ENDBRANCH  12  18
ENDBRANCH   1  16
BRANCH   8  24
ATOM     24  C   UNL     1      -2.914  11.069  15.687  0.00  0.00    +0.000 C 
ATOM     25  C   UNL     1      -3.728  10.379  14.628  0.00  0.00    +0.000 C 
ATOM     26  C   UNL     1      -4.361  10.740  15.939  0.00  0.00    +0.000 C 
ENDBRANCH   8  24
TORSDOF 4
ENDMDL
MODEL 5
REMARK VINA RESULT:      -7.6      4.601      8.352
REMARK  Name = 
REMARK  5 active torsions:
REMARK  status: ('A' for Active; 'I' for Inactive)
REMARK    1  A    between atoms: C_1  and  S_2
REMARK    2  A    between atoms: S_2  and  N_5
REMARK    3  A    between atoms: N_5  and  C_6
REMARK    4  A    between atoms: C_10  and  C_11
REMARK    5  A    between atoms: N_18  and  C_19
REMARK                            x       y       z     vdW  Elec       q    Type
REMARK                         _______ _______ _______ _____ _____    ______ ____
ROOT
ATOM      1  C   UNL     1       3.505   3.674  17.799  0.00  0.00    +0.000 A 
ATOM      2  C   UNL     1       3.314   2.304  17.860  0.00  0.00    +0.000 A 
ATOM      3  S   UNL     1       2.331   1.826  19.172  0.00  0.00    +0.000 S 
ATOM      4  C   UNL     1       2.103   3.443  19.677  0.00  0.00    +0.000 A 
ATOM      5  C   UNL     1       1.387   3.940  20.750  0.00  0.00    +0.000 A 
ATOM      6  N   UNL     1       1.330   5.271  20.949  0.00  0.00    +0.000 NA
ATOM      7  C   UNL     1       1.988   6.087  20.110  0.00  0.00    +0.000 A 
ATOM      8  N   UNL     1       1.942   7.464  20.304  0.00  0.00    +0.000 N 
ATOM      9  N   UNL     1       2.714   5.682  19.065  0.00  0.00    +0.000 NA
ATOM     10  C   UNL     1       2.767   4.342  18.849  0.00  0.00    +0.000 A 
ATOM     11  H   UNL     1       2.425   7.959  19.569  0.00  0.00    +0.000 HD
ENDROOT
BRANCH   1  16
ATOM     12  C   UNL     1       5.898   4.086  14.896  0.00  0.00    +0.000 A 
ATOM     13  C   UNL     1       6.142   5.455  14.935  0.00  0.00    +0.000 A 
ATOM     14  C   UNL     1       5.513   6.244  15.892  0.00  0.00    +0.000 A 
ATOM     15  C   UNL     1       4.633   5.664  16.809  0.00  0.00    +0.000 A 
ATOM     16  C   UNL     1       4.373   4.284  16.782  0.00  0.00    +0.000 A 
ATOM     17  C   UNL     1       5.004   3.501  15.798  0.00  0.00    +0.000 A 
BRANCH  12  18
ATOM     18  N   UNL     1       6.568   3.295  13.917  0.00  0.00    +0.000 N 
ATOM     19  H   UNL     1       6.638   2.295  14.120  0.00  0.00    +0.000 HD
BRANCH  18  21
ATOM     20  C   UNL     1       6.471   1.904  11.620  0.00  0.00    +0.000 C 
ATOM     21  S   UNL     1       6.171   3.526  12.291  0.00  0.00    +0.000 S 
ATOM     22  O   UNL     1       7.088   4.470  11.688  0.00  0.00    +0.000 OA
ATOM     23  O   UNL     1       4.742   3.758  12.274  0.00  0.00    +0.000 OA
ENDBRANCH  18  21
ENDBRANCH  12  18
ENDBRANCH   1  16
BRANCH   8  24
ATOM     24  C   UNL     1       1.106   8.106  21.296  0.00  0.00    +0.000 C 
ATOM     25  C   UNL     1       1.512   9.412  21.918  0.00  0.00    +0.000 C 
ATOM     26  C   UNL     1       0.366   9.370  20.952  0.00  0.00    +0.000 C 
ENDBRANCH   8  24
TORSDOF 4
ENDMDL
MODEL 6
REMARK VINA RESULT:      -7.6      1.319      1.477
REMARK  Name = 
REMARK  5 active torsions:
REMARK  status: ('A' for Active; 'I' for Inactive)
REMARK    1  A    between atoms: C_1  and  S_2
REMARK    2  A    between atoms: S_2  and  N_5
REMARK    3  A    between atoms: N_5  and  C_6
REMARK    4  A    between atoms: C_10  and  C_11
REMARK    5  A    between atoms: N_18  and  C_19
REMARK                            x       y       z     vdW  Elec       q    Type
REMARK                         _______ _______ _______ _____ _____    ______ ____
ROOT
ATOM      1  C   UNL     1       2.355   6.218  19.590  0.00  0.00    +0.000 A 
ATOM      2  C   UNL     1       1.809   5.514  20.649  0.00  0.00    +0.000 A 
ATOM      3  S   UNL     1       2.267   3.869  20.662  0.00  0.00    +0.000 S 
ATOM      4  C   UNL     1       3.239   4.059  19.269  0.00  0.00    +0.000 A 
ATOM      5  C   UNL     1       3.994   3.124  18.585  0.00  0.00    +0.000 A 
ATOM      6  N   UNL     1       4.704   3.507  17.507  0.00  0.00    +0.000 NA
ATOM      7  C   UNL     1       4.649   4.788  17.107  0.00  0.00    +0.000 A 
ATOM      8  N   UNL     1       5.374   5.199  15.993  0.00  0.00    +0.000 N 
ATOM      9  N   UNL     1       3.929   5.742  17.703  0.00  0.00    +0.000 NA
ATOM     10  C   UNL     1       3.219   5.368  18.799  0.00  0.00    +0.000 A 
ATOM     11  H   UNL     1       5.292   6.193  15.843  0.00  0.00    +0.000 HD
ENDROOT
BRANCH   1  16
ATOM     12  C   UNL     1       1.158   9.766  20.141  0.00  0.00    +0.000 A 
ATOM     13  C   UNL     1       1.287  10.300  18.863  0.00  0.00    +0.000 A 
ATOM     14  C   UNL     1       1.783   9.512  17.830  0.00  0.00    +0.000 A 
ATOM     15  C   UNL     1       2.155   8.188  18.076  0.00  0.00    +0.000 A 
ATOM     16  C   UNL     1       2.033   7.634  19.360  0.00  0.00    +0.000 A 
ATOM     17  C   UNL     1       1.546   8.448  20.399  0.00  0.00    +0.000 A 
BRANCH  12  18
ATOM     18  N   UNL     1       0.630  10.587  21.180  0.00  0.00    +0.000 N 
ATOM     19  H   UNL     1       1.318  11.079  21.756  0.00  0.00    +0.000 HD
BRANCH  18  21
ATOM     20  C   UNL     1      -1.487  11.725  22.381  0.00  0.00    +0.000 C 
ATOM     21  S   UNL     1      -0.655  11.621  20.811  0.00  0.00    +0.000 S 
ATOM     22  O   UNL     1      -1.531  10.992  19.846  0.00  0.00    +0.000 OA
ATOM     23  O   UNL     1      -0.048  12.907  20.542  0.00  0.00    +0.000 OA
ENDBRANCH  18  21
ENDBRANCH  12  18
ENDBRANCH   1  16
BRANCH   8  24
ATOM     24  C   UNL     1       6.314   4.350  15.292  0.00  0.00    +0.000 C 
ATOM     25  C   UNL     1       6.022   3.862  13.901  0.00  0.00    +0.000 C 
ATOM     26  C   UNL     1       7.090   4.893  14.122  0.00  0.00    +0.000 C 
ENDBRANCH   8  24
TORSDOF 4
ENDMDL
MODEL 7
REMARK VINA RESULT:      -7.5      3.454      7.627
REMARK  Name = 
REMARK  5 active torsions:
REMARK  status: ('A' for Active; 'I' for Inactive)
REMARK    1  A    between atoms: C_1  and  S_2
REMARK    2  A    between atoms: S_2  and  N_5
REMARK    3  A    between atoms: N_5  and  C_6
REMARK    4  A    between atoms: C_10  and  C_11
REMARK    5  A    between atoms: N_18  and  C_19
REMARK                            x       y       z     vdW  Elec       q    Type
REMARK                         _______ _______ _______ _____ _____    ______ ____
ROOT
ATOM      1  C   UNL     1       1.329   8.595  20.098  0.00  0.00    +0.000 A 
ATOM      2  C   UNL     1       1.520   8.822  21.450  0.00  0.00    +0.000 A 
ATOM      3  S   UNL     1       0.535  10.077  22.060  0.00  0.00    +0.000 S 
ATOM      4  C   UNL     1      -0.202  10.329  20.538  0.00  0.00    +0.000 A 
ATOM      5  C   UNL     1      -1.171  11.243  20.167  0.00  0.00    +0.000 A 
ATOM      6  N   UNL     1      -1.622  11.251  18.898  0.00  0.00    +0.000 NA
ATOM      7  C   UNL     1      -1.107  10.382  18.014  0.00  0.00    +0.000 A 
ATOM      8  N   UNL     1      -1.559  10.379  16.699  0.00  0.00    +0.000 N 
ATOM      9  N   UNL     1      -0.158   9.484  18.292  0.00  0.00    +0.000 NA
ATOM     10  C   UNL     1       0.295   9.460  19.573  0.00  0.00    +0.000 A 
ATOM     11  H   UNL     1      -1.135   9.639  16.161  0.00  0.00    +0.000 HD
ENDROOT
BRANCH   1  16
ATOM     12  C   UNL     1       3.045   5.357  19.149  0.00  0.00    +0.000 A 
ATOM     13  C   UNL     1       3.774   5.751  18.032  0.00  0.00    +0.000 A 
ATOM     14  C   UNL     1       3.690   7.064  17.577  0.00  0.00    +0.000 A 
ATOM     15  C   UNL     1       2.872   7.982  18.239  0.00  0.00    +0.000 A 
ATOM     16  C   UNL     1       2.126   7.600  19.366  0.00  0.00    +0.000 A 
ATOM     17  C   UNL     1       2.208   6.266  19.804  0.00  0.00    +0.000 A 
BRANCH  12  18
ATOM     18  N   UNL     1       3.161   4.012  19.607  0.00  0.00    +0.000 N 
ATOM     19  H   UNL     1       3.182   3.884  20.622  0.00  0.00    +0.000 HD
BRANCH  18  21
ATOM     20  C   UNL     1       3.383   1.736  18.195  0.00  0.00    +0.000 C 
ATOM     21  S   UNL     1       2.173   2.837  18.899  0.00  0.00    +0.000 S 
ATOM     22  O   UNL     1       1.388   3.427  17.837  0.00  0.00    +0.000 OA
ATOM     23  O   UNL     1       1.539   2.152  20.005  0.00  0.00    +0.000 OA
ENDBRANCH  18  21
ENDBRANCH  12  18
ENDBRANCH   1  16
BRANCH   8  24
ATOM     24  C   UNL     1      -2.672  11.181  16.233  0.00  0.00    +0.000 C 
ATOM     25  C   UNL     1      -3.482  10.756  15.041  0.00  0.00    +0.000 C 
ATOM     26  C   UNL     1      -4.082  10.688  16.414  0.00  0.00    +0.000 C 
ENDBRANCH   8  24
TORSDOF 4
ENDMDL
MODEL 8
REMARK VINA RESULT:      -7.4      3.595      7.563
REMARK  Name = 
REMARK  5 active torsions:
REMARK  status: ('A' for Active; 'I' for Inactive)
REMARK    1  A    between atoms: C_1  and  S_2
REMARK    2  A    between atoms: S_2  and  N_5
REMARK    3  A    between atoms: N_5  and  C_6
REMARK    4  A    between atoms: C_10  and  C_11
REMARK    5  A    between atoms: N_18  and  C_19
REMARK                            x       y       z     vdW  Elec       q    Type
REMARK                         _______ _______ _______ _____ _____    ______ ____
ROOT
ATOM      1  C   UNL     1       1.331   8.638  20.043  0.00  0.00    +0.000 A 
ATOM      2  C   UNL     1       1.526   8.813  21.402  0.00  0.00    +0.000 A 
ATOM      3  S   UNL     1       0.523  10.024  22.069  0.00  0.00    +0.000 S 
ATOM      4  C   UNL     1      -0.226  10.326  20.562  0.00  0.00    +0.000 A 
ATOM      5  C   UNL     1      -1.213  11.237  20.234  0.00  0.00    +0.000 A 
ATOM      6  N   UNL     1      -1.672  11.290  18.969  0.00  0.00    +0.000 NA
ATOM      7  C   UNL     1      -1.146  10.467  18.047  0.00  0.00    +0.000 A 
ATOM      8  N   UNL     1      -1.607  10.511  16.735  0.00  0.00    +0.000 N 
ATOM      9  N   UNL     1      -0.181   9.575  18.283  0.00  0.00    +0.000 NA
ATOM     10  C   UNL     1       0.279   9.506  19.559  0.00  0.00    +0.000 A 
ATOM     11  H   UNL     1      -1.173   9.800  16.165  0.00  0.00    +0.000 HD
ENDROOT
BRANCH   1  16
ATOM     12  C   UNL     1       3.110   5.477  18.961  0.00  0.00    +0.000 A 
ATOM     13  C   UNL     1       3.813   5.926  17.847  0.00  0.00    +0.000 A 
ATOM     14  C   UNL     1       3.691   7.250  17.439  0.00  0.00    +0.000 A 
ATOM     15  C   UNL     1       2.860   8.126  18.142  0.00  0.00    +0.000 A 
ATOM     16  C   UNL     1       2.141   7.689  19.267  0.00  0.00    +0.000 A 
ATOM     17  C   UNL     1       2.262   6.343  19.658  0.00  0.00    +0.000 A 
BRANCH  12  18
ATOM     18  N   UNL     1       3.265   4.121  19.371  0.00  0.00    +0.000 N 
ATOM     19  H   UNL     1       3.466   3.972  20.363  0.00  0.00    +0.000 HD
BRANCH  18  21
ATOM     20  C   UNL     1       1.047   2.883  20.248  0.00  0.00    +0.000 C 
ATOM     21  S   UNL     1       2.130   2.987  18.838  0.00  0.00    +0.000 S 
ATOM     22  O   UNL     1       2.771   1.707  18.631  0.00  0.00    +0.000 OA
ATOM     23  O   UNL     1       1.407   3.643  17.769  0.00  0.00    +0.000 OA
ENDBRANCH  18  21
ENDBRANCH  12  18
ENDBRANCH   1  16
BRANCH   8  24
ATOM     24  C   UNL     1      -2.736  11.311  16.309  0.00  0.00    +0.000 C 
ATOM     25  C   UNL     1      -3.598  10.876  15.158  0.00  0.00    +0.000 C 
ATOM     26  C   UNL     1      -4.138  10.827  16.557  0.00  0.00    +0.000 C 
ENDBRANCH   8  24
TORSDOF 4
ENDMDL
MODEL 9
REMARK VINA RESULT:      -7.2      4.459      8.268
REMARK  Name = 
REMARK  5 active torsions:
REMARK  status: ('A' for Active; 'I' for Inactive)
REMARK    1  A    between atoms: C_1  and  S_2
REMARK    2  A    between atoms: S_2  and  N_5
REMARK    3  A    between atoms: N_5  and  C_6
REMARK    4  A    between atoms: C_10  and  C_11
REMARK    5  A    between atoms: N_18  and  C_19
REMARK                            x       y       z     vdW  Elec       q    Type
REMARK                         _______ _______ _______ _____ _____    ______ ____
ROOT
ATOM      1  C   UNL     1       4.261   4.362  18.246  0.00  0.00    +0.000 A 
ATOM      2  C   UNL     1       4.212   3.136  18.888  0.00  0.00    +0.000 A 
ATOM      3  S   UNL     1       3.155   3.129  20.229  0.00  0.00    +0.000 S 
ATOM      4  C   UNL     1       2.706   4.758  19.968  0.00  0.00    +0.000 A 
ATOM      5  C   UNL     1       1.834   5.559  20.683  0.00  0.00    +0.000 A 
ATOM      6  N   UNL     1       1.616   6.825  20.279  0.00  0.00    +0.000 NA
ATOM      7  C   UNL     1       2.267   7.290  19.201  0.00  0.00    +0.000 A 
ATOM      8  N   UNL     1       2.056   8.597  18.773  0.00  0.00    +0.000 N 
ATOM      9  N   UNL     1       3.136   6.585  18.472  0.00  0.00    +0.000 NA
ATOM     10  C   UNL     1       3.352   5.302  18.864  0.00  0.00    +0.000 A 
ATOM     11  H   UNL     1       2.557   8.794  17.920  0.00  0.00    +0.000 HD
ENDROOT
BRANCH   1  16
ATOM     12  C   UNL     1       6.166   3.874  15.012  0.00  0.00    +0.000 A 
ATOM     13  C   UNL     1       6.993   4.993  15.010  0.00  0.00    +0.000 A 
ATOM     14  C   UNL     1       6.915   5.914  16.050  0.00  0.00    +0.000 A 
ATOM     15  C   UNL     1       6.004   5.718  17.091  0.00  0.00    +0.000 A 
ATOM     16  C   UNL     1       5.160   4.596  17.107  0.00  0.00    +0.000 A 
ATOM     17  C   UNL     1       5.239   3.682  16.041  0.00  0.00    +0.000 A 
BRANCH  12  18
ATOM     18  N   UNL     1       6.277   2.935  13.945  0.00  0.00    +0.000 N 
ATOM     19  H   UNL     1       5.836   2.025  14.101  0.00  0.00    +0.000 HD
BRANCH  18  21
ATOM     20  C   UNL     1       5.835   1.922  11.495  0.00  0.00    +0.000 C 
ATOM     21  S   UNL     1       5.959   3.467  12.372  0.00  0.00    +0.000 S 
ATOM     22  O   UNL     1       7.090   4.215  11.867  0.00  0.00    +0.000 OA
ATOM     23  O   UNL     1       4.638   4.056  12.426  0.00  0.00    +0.000 OA
ENDBRANCH  18  21
ENDBRANCH  12  18
ENDBRANCH   1  16
BRANCH   8  24
ATOM     24  C   UNL     1       1.058   9.476  19.346  0.00  0.00    +0.000 C 
ATOM     25  C   UNL     1       1.092  10.955  19.083  0.00  0.00    +0.000 C 
ATOM     26  C   UNL     1       0.019  10.111  18.462  0.00  0.00    +0.000 C 
ENDBRANCH   8  24
TORSDOF 4
ENDMDL
