MODEL 1
REMARK VINA RESULT:      -7.7      0.000      0.000
REMARK  Name = 
REMARK  2 active torsions:
REMARK  status: ('A' for Active; 'I' for Inactive)
REMARK    1  A    between atoms: N_3  and  C_4
REMARK    2  A    between atoms: C_4  and  C_5
REMARK                            x       y       z     vdW  Elec       q    Type
REMARK                         _______ _______ _______ _____ _____    ______ ____
ROOT
ATOM      1  O   UNL     1       2.391   8.743  17.750  0.00  0.00    +0.000 OA
ATOM      2  C   UNL     1       2.062   8.255  18.830  0.00  0.00    +0.000 C 
ATOM      3  N   UNL     1       1.286   8.925  19.715  0.00  0.00    +0.000 N 
ATOM      4  N   UNL     1       2.449   6.990  19.250  0.00  0.00    +0.000 N 
ATOM      5  C   UNL     1       3.383   6.218  18.395  0.00  0.00    +0.000 C 
ATOM      6  C   UNL     1       4.226   5.204  19.206  0.00  0.00    +0.000 C 
ATOM      7  C   UNL     1       3.211   4.312  19.840  0.00  0.00    +0.000 A 
ATOM      8  S   UNL     1       3.187   2.627  19.730  0.00  0.00    +0.000 S 
ATOM      9  C   UNL     1       1.534   2.595  20.198  0.00  0.00    +0.000 A 
ATOM     10  C   UNL     1       1.063   3.845  20.545  0.00  0.00    +0.000 A 
ATOM     11  C   UNL     1       2.052   4.852  20.359  0.00  0.00    +0.000 A 
ATOM     12  C   UNL     1       1.915   6.338  20.472  0.00  0.00    +0.000 C 
ATOM     13  H   UNL     1       1.385   8.675  20.690  0.00  0.00    +0.000 HD
ENDROOT
BRANCH   3  14
ATOM     14  C   UNL     1       0.872  10.308  19.542  0.00  0.00    +0.000 C 
BRANCH  14  15
ATOM     15  C   UNL     1       0.220  10.692  20.828  0.00  0.00    +0.000 A 
ATOM     16  N   UNL     1       0.572  10.225  22.010  0.00  0.00    +0.000 NA
ATOM     17  N   UNL     1      -0.216  10.804  22.959  0.00  0.00    +0.000 NA
ATOM     18  C   UNL     1      -1.039  11.637  22.355  0.00  0.00    +0.000 A 
ATOM     19  N   UNL     1      -0.806  11.592  20.998  0.00  0.00    +0.000 N 
ATOM     20  C   UNL     1      -1.505  12.322  19.963  0.00  0.00    +0.000 C 
ATOM     21  C   UNL     1      -3.007  12.465  20.215  0.00  0.00    +0.000 C 
ATOM     22  C   UNL     1      -3.377  13.575  21.200  0.00  0.00    +0.000 C 
ATOM     23  C   UNL     1      -2.422  13.760  22.379  0.00  0.00    +0.000 C 
ATOM     24  C   UNL     1      -2.060  12.454  23.069  0.00  0.00    +0.000 C 
ENDBRANCH  14  15
ENDBRANCH   3  14
TORSDOF 2
ENDMDL
MODEL 2
REMARK VINA RESULT:      -7.4      2.230      3.589
REMARK  Name = 
REMARK  2 active torsions:
REMARK  status: ('A' for Active; 'I' for Inactive)
REMARK    1  A    between atoms: N_3  and  C_4
REMARK    2  A    between atoms: C_4  and  C_5
REMARK                            x       y       z     vdW  Elec       q    Type
REMARK                         _______ _______ _______ _____ _____    ______ ____
ROOT
ATOM      1  O   UNL     1       2.052   5.295  20.827  0.00  0.00    +0.000 OA
ATOM      2  C   UNL     1       2.405   6.060  19.930  0.00  0.00    +0.000 C 
ATOM      3  N   UNL     1       2.145   7.388  19.974  0.00  0.00    +0.000 N 
ATOM      4  N   UNL     1       3.091   5.647  18.796  0.00  0.00    +0.000 N 
ATOM      5  C   UNL     1       3.333   4.196  18.607  0.00  0.00    +0.000 C 
ATOM      6  C   UNL     1       3.475   3.809  17.116  0.00  0.00    +0.000 C 
ATOM      7  C   UNL     1       4.637   4.617  16.640  0.00  0.00    +0.000 A 
ATOM      8  S   UNL     1       6.001   4.000  15.859  0.00  0.00    +0.000 S 
ATOM      9  C   UNL     1       6.890   5.422  16.233  0.00  0.00    +0.000 A 
ATOM     10  C   UNL     1       6.106   6.387  16.835  0.00  0.00    +0.000 A 
ATOM     11  C   UNL     1       4.777   5.926  17.054  0.00  0.00    +0.000 A 
ATOM     12  C   UNL     1       3.663   6.589  17.801  0.00  0.00    +0.000 C 
ATOM     13  H   UNL     1       2.085   7.871  19.087  0.00  0.00    +0.000 HD
ENDROOT
BRANCH   3  14
ATOM     14  C   UNL     1       1.332   8.019  21.000  0.00  0.00    +0.000 C 
BRANCH  14  15
ATOM     15  C   UNL     1       0.862   9.303  20.402  0.00  0.00    +0.000 A 
ATOM     16  N   UNL     1       1.256   9.767  19.232  0.00  0.00    +0.000 NA
ATOM     17  N   UNL     1       0.611  10.944  18.992  0.00  0.00    +0.000 NA
ATOM     18  C   UNL     1      -0.189  11.189  20.011  0.00  0.00    +0.000 A 
ATOM     19  N   UNL     1      -0.056  10.177  20.938  0.00  0.00    +0.000 N 
ATOM     20  C   UNL     1      -0.723  10.064  22.216  0.00  0.00    +0.000 C 
ATOM     21  C   UNL     1      -0.894  11.400  22.943  0.00  0.00    +0.000 C 
ATOM     22  C   UNL     1      -2.067  12.243  22.443  0.00  0.00    +0.000 C 
ATOM     23  C   UNL     1      -2.320  12.200  20.936  0.00  0.00    +0.000 C 
ATOM     24  C   UNL     1      -1.057  12.395  20.110  0.00  0.00    +0.000 C 
ENDBRANCH  14  15
ENDBRANCH   3  14
TORSDOF 2
ENDMDL
MODEL 3
REMARK VINA RESULT:      -7.4      3.014      8.269
REMARK  Name = 
REMARK  2 active torsions:
REMARK  status: ('A' for Active; 'I' for Inactive)
REMARK    1  A    between atoms: N_3  and  C_4
REMARK    2  A    between atoms: C_4  and  C_5
REMARK                            x       y       z     vdW  Elec       q    Type
REMARK                         _______ _______ _______ _____ _____    ______ ____
ROOT
ATOM      1  O   UNL     1       2.158  10.098  17.630  0.00  0.00    +0.000 OA
ATOM      2  C   UNL     1       1.478   9.666  18.561  0.00  0.00    +0.000 C 
ATOM      3  N   UNL     1       1.651   8.419  19.059  0.00  0.00    +0.000 N 
ATOM      4  N   UNL     1       0.477  10.399  19.182  0.00  0.00    +0.000 N 
ATOM      5  C   UNL     1       0.142  11.738  18.640  0.00  0.00    +0.000 C 
ATOM      6  C   UNL     1      -1.321  12.147  18.935  0.00  0.00    +0.000 C 
ATOM      7  C   UNL     1      -1.410  12.130  20.426  0.00  0.00    +0.000 A 
ATOM      8  S   UNL     1      -1.951  13.408  21.387  0.00  0.00    +0.000 S 
ATOM      9  C   UNL     1      -1.194  12.723  22.768  0.00  0.00    +0.000 A 
ATOM     10  C   UNL     1      -0.648  11.482  22.506  0.00  0.00    +0.000 A 
ATOM     11  C   UNL     1      -0.795  11.120  21.137  0.00  0.00    +0.000 A 
ATOM     12  C   UNL     1      -0.225   9.943  20.409  0.00  0.00    +0.000 C 
ATOM     13  H   UNL     1       0.851   7.991  19.504  0.00  0.00    +0.000 HD
ENDROOT
BRANCH   3  14
ATOM     14  C   UNL     1       2.552   7.435  18.482  0.00  0.00    +0.000 C 
BRANCH  14  15
ATOM     15  C   UNL     1       2.376   6.203  19.305  0.00  0.00    +0.000 A 
ATOM     16  N   UNL     1       1.947   6.196  20.553  0.00  0.00    +0.000 NA
ATOM     17  N   UNL     1       1.887   4.905  20.984  0.00  0.00    +0.000 NA
ATOM     18  C   UNL     1       2.265   4.123  19.992  0.00  0.00    +0.000 A 
ATOM     19  N   UNL     1       2.596   4.905  18.907  0.00  0.00    +0.000 N 
ATOM     20  C   UNL     1       3.090   4.460  17.623  0.00  0.00    +0.000 C 
ATOM     21  C   UNL     1       4.057   3.277  17.710  0.00  0.00    +0.000 C 
ATOM     22  C   UNL     1       3.376   1.919  17.881  0.00  0.00    +0.000 C 
ATOM     23  C   UNL     1       2.133   1.907  18.771  0.00  0.00    +0.000 C 
ATOM     24  C   UNL     1       2.333   2.638  20.090  0.00  0.00    +0.000 C 
ENDBRANCH  14  15
ENDBRANCH   3  14
TORSDOF 2
ENDMDL
MODEL 4
REMARK VINA RESULT:      -7.3      1.639      2.269
REMARK  Name = 
REMARK  2 active torsions:
REMARK  status: ('A' for Active; 'I' for Inactive)
REMARK    1  A    between atoms: N_3  and  C_4
REMARK    2  A    between atoms: C_4  and  C_5
REMARK                            x       y       z     vdW  Elec       q    Type
REMARK                         _______ _______ _______ _____ _____    ______ ____
ROOT
ATOM      1  O   UNL     1       3.170   8.165  16.929  0.00  0.00    +0.000 OA
ATOM      2  C   UNL     1       2.652   7.981  18.030  0.00  0.00    +0.000 C 
ATOM      3  N   UNL     1       1.845   8.902  18.608  0.00  0.00    +0.000 N 
ATOM      4  N   UNL     1       2.843   6.831  18.784  0.00  0.00    +0.000 N 
ATOM      5  C   UNL     1       3.792   5.808  18.283  0.00  0.00    +0.000 C 
ATOM      6  C   UNL     1       4.408   4.964  19.425  0.00  0.00    +0.000 C 
ATOM      7  C   UNL     1       3.229   4.330  20.086  0.00  0.00    +0.000 A 
ATOM      8  S   UNL     1       3.038   2.676  20.364  0.00  0.00    +0.000 S 
ATOM      9  C   UNL     1       1.345   2.879  20.570  0.00  0.00    +0.000 A 
ATOM     10  C   UNL     1       0.970   4.208  20.544  0.00  0.00    +0.000 A 
ATOM     11  C   UNL     1       2.078   5.064  20.283  0.00  0.00    +0.000 A 
ATOM     12  C   UNL     1       2.087   6.539  20.028  0.00  0.00    +0.000 C 
ATOM     13  H   UNL     1       1.788   8.890  19.617  0.00  0.00    +0.000 HD
ENDROOT
BRANCH   3  14
ATOM     14  C   UNL     1       1.608  10.227  18.059  0.00  0.00    +0.000 C 
BRANCH  14  15
ATOM     15  C   UNL     1       0.503  10.805  18.879  0.00  0.00    +0.000 A 
ATOM     16  N   UNL     1       0.674  11.404  20.042  0.00  0.00    +0.000 NA
ATOM     17  N   UNL     1      -0.539  11.827  20.495  0.00  0.00    +0.000 NA
ATOM     18  C   UNL     1      -1.449  11.499  19.600  0.00  0.00    +0.000 A 
ATOM     19  N   UNL     1      -0.834  10.838  18.559  0.00  0.00    +0.000 N 
ATOM     20  C   UNL     1      -1.462  10.277  17.383  0.00  0.00    +0.000 C 
ATOM     21  C   UNL     1      -2.825   9.637  17.657  0.00  0.00    +0.000 C 
ATOM     22  C   UNL     1      -3.979  10.634  17.756  0.00  0.00    +0.000 C 
ATOM     23  C   UNL     1      -3.652  11.963  18.438  0.00  0.00    +0.000 C 
ATOM     24  C   UNL     1      -2.901  11.795  19.750  0.00  0.00    +0.000 C 
ENDBRANCH  14  15
ENDBRANCH   3  14
TORSDOF 2
ENDMDL
MODEL 5
REMARK VINA RESULT:      -7.2      2.499      3.122
REMARK  Name = 
REMARK  2 active torsions:
REMARK  status: ('A' for Active; 'I' for Inactive)
REMARK    1  A    between atoms: N_3  and  C_4
REMARK    2  A    between atoms: C_4  and  C_5
REMARK                            x       y       z     vdW  Elec       q    Type
REMARK                         _______ _______ _______ _____ _____    ______ ____
ROOT
ATOM      1  O   UNL     1       2.704   8.498  17.018  0.00  0.00    +0.000 OA
ATOM      2  C   UNL     1       2.244   8.223  18.126  0.00  0.00    +0.000 C 
ATOM      3  N   UNL     1       1.366   9.035  18.762  0.00  0.00    +0.000 N 
ATOM      4  N   UNL     1       2.576   7.074  18.829  0.00  0.00    +0.000 N 
ATOM      5  C   UNL     1       3.607   6.172  18.262  0.00  0.00    +0.000 C 
ATOM      6  C   UNL     1       4.344   5.357  19.351  0.00  0.00    +0.000 C 
ATOM      7  C   UNL     1       3.259   4.581  20.022  0.00  0.00    +0.000 A 
ATOM      8  S   UNL     1       3.247   2.908  20.243  0.00  0.00    +0.000 S 
ATOM      9  C   UNL     1       1.550   2.928  20.506  0.00  0.00    +0.000 A 
ATOM     10  C   UNL     1       1.041   4.211  20.542  0.00  0.00    +0.000 A 
ATOM     11  C   UNL     1       2.046   5.185  20.282  0.00  0.00    +0.000 A 
ATOM     12  C   UNL     1       1.896   6.661  20.083  0.00  0.00    +0.000 C 
ATOM     13  H   UNL     1       1.344   8.982  19.771  0.00  0.00    +0.000 HD
ENDROOT
BRANCH   3  14
ATOM     14  C   UNL     1       0.977  10.347  18.272  0.00  0.00    +0.000 C 
BRANCH  14  15
ATOM     15  C   UNL     1       1.199  11.281  19.414  0.00  0.00    +0.000 A 
ATOM     16  N   UNL     1       0.734  11.090  20.633  0.00  0.00    +0.000 NA
ATOM     17  N   UNL     1       1.145  12.123  21.422  0.00  0.00    +0.000 NA
ATOM     18  C   UNL     1       1.875  12.936  20.685  0.00  0.00    +0.000 A 
ATOM     19  N   UNL     1       1.929  12.447  19.398  0.00  0.00    +0.000 N 
ATOM     20  C   UNL     1       2.594  13.043  18.260  0.00  0.00    +0.000 C 
ATOM     21  C   UNL     1       2.501  14.569  18.220  0.00  0.00    +0.000 C 
ATOM     22  C   UNL     1       3.496  15.285  19.134  0.00  0.00    +0.000 C 
ATOM     23  C   UNL     1       3.765  14.610  20.478  0.00  0.00    +0.000 C 
ATOM     24  C   UNL     1       2.496  14.187  21.202  0.00  0.00    +0.000 C 
ENDBRANCH  14  15
ENDBRANCH   3  14
TORSDOF 2
ENDMDL
MODEL 6
REMARK VINA RESULT:      -7.1      1.381      2.081
REMARK  Name = 
REMARK  2 active torsions:
REMARK  status: ('A' for Active; 'I' for Inactive)
REMARK    1  A    between atoms: N_3  and  C_4
REMARK    2  A    between atoms: C_4  and  C_5
REMARK                            x       y       z     vdW  Elec       q    Type
REMARK                         _______ _______ _______ _____ _____    ______ ____
ROOT
ATOM      1  O   UNL     1       3.186   8.153  16.926  0.00  0.00    +0.000 OA
ATOM      2  C   UNL     1       2.684   7.958  18.033  0.00  0.00    +0.000 C 
ATOM      3  N   UNL     1       1.897   8.880  18.637  0.00  0.00    +0.000 N 
ATOM      4  N   UNL     1       2.871   6.794  18.765  0.00  0.00    +0.000 N 
ATOM      5  C   UNL     1       3.798   5.767  18.232  0.00  0.00    +0.000 C 
ATOM      6  C   UNL     1       4.421   4.897  19.350  0.00  0.00    +0.000 C 
ATOM      7  C   UNL     1       3.245   4.267  20.020  0.00  0.00    +0.000 A 
ATOM      8  S   UNL     1       3.037   2.611  20.275  0.00  0.00    +0.000 S 
ATOM      9  C   UNL     1       1.350   2.833  20.511  0.00  0.00    +0.000 A 
ATOM     10  C   UNL     1       0.992   4.167  20.512  0.00  0.00    +0.000 A 
ATOM     11  C   UNL     1       2.106   5.012  20.247  0.00  0.00    +0.000 A 
ATOM     12  C   UNL     1       2.131   6.491  20.016  0.00  0.00    +0.000 C 
ATOM     13  H   UNL     1       1.856   8.853  19.647  0.00  0.00    +0.000 HD
ENDROOT
BRANCH   3  14
ATOM     14  C   UNL     1       1.669  10.217  18.114  0.00  0.00    +0.000 C 
BRANCH  14  15
ATOM     15  C   UNL     1       0.338  10.631  18.647  0.00  0.00    +0.000 A 
ATOM     16  N   UNL     1      -0.818  10.264  18.130  0.00  0.00    +0.000 NA
ATOM     17  N   UNL     1      -1.820  10.804  18.878  0.00  0.00    +0.000 NA
ATOM     18  C   UNL     1      -1.273  11.490  19.863  0.00  0.00    +0.000 A 
ATOM     19  N   UNL     1       0.098  11.417  19.750  0.00  0.00    +0.000 N 
ATOM     20  C   UNL     1       1.083  12.050  20.600  0.00  0.00    +0.000 C 
ATOM     21  C   UNL     1       0.685  13.451  21.068  0.00  0.00    +0.000 C 
ATOM     22  C   UNL     1      -0.291  13.468  22.244  0.00  0.00    +0.000 C 
ATOM     23  C   UNL     1      -1.361  12.377  22.234  0.00  0.00    +0.000 C 
ATOM     24  C   UNL     1      -2.057  12.231  20.890  0.00  0.00    +0.000 C 
ENDBRANCH  14  15
ENDBRANCH   3  14
TORSDOF 2
ENDMDL
MODEL 7
REMARK VINA RESULT:      -7.1      1.087      1.231
REMARK  Name = 
REMARK  2 active torsions:
REMARK  status: ('A' for Active; 'I' for Inactive)
REMARK    1  A    between atoms: N_3  and  C_4
REMARK    2  A    between atoms: C_4  and  C_5
REMARK                            x       y       z     vdW  Elec       q    Type
REMARK                         _______ _______ _______ _____ _____    ______ ____
ROOT
ATOM      1  O   UNL     1       1.164   9.930  17.785  0.00  0.00    +0.000 OA
ATOM      2  C   UNL     1       1.372   9.391  18.872  0.00  0.00    +0.000 C 
ATOM      3  N   UNL     1       1.065   9.996  20.044  0.00  0.00    +0.000 N 
ATOM      4  N   UNL     1       1.937   8.131  19.007  0.00  0.00    +0.000 N 
ATOM      5  C   UNL     1       2.401   7.431  17.784  0.00  0.00    +0.000 C 
ATOM      6  C   UNL     1       3.545   6.430  18.074  0.00  0.00    +0.000 C 
ATOM      7  C   UNL     1       2.950   5.471  19.053  0.00  0.00    +0.000 A 
ATOM      8  S   UNL     1       2.919   3.792  18.880  0.00  0.00    +0.000 S 
ATOM      9  C   UNL     1       1.660   3.670  20.042  0.00  0.00    +0.000 A 
ATOM     10  C   UNL     1       1.367   4.886  20.627  0.00  0.00    +0.000 A 
ATOM     11  C   UNL     1       2.140   5.941  20.066  0.00  0.00    +0.000 A 
ATOM     12  C   UNL     1       2.032   7.415  20.304  0.00  0.00    +0.000 C 
ATOM     13  H   UNL     1       1.601   9.717  20.855  0.00  0.00    +0.000 HD
ENDROOT
BRANCH   3  14
ATOM     14  C   UNL     1       0.584  11.363  20.147  0.00  0.00    +0.000 C 
BRANCH  14  15
ATOM     15  C   UNL     1      -0.294  11.387  21.353  0.00  0.00    +0.000 A 
ATOM     16  N   UNL     1      -0.020  10.769  22.486  0.00  0.00    +0.000 NA
ATOM     17  N   UNL     1      -1.023  11.022  23.373  0.00  0.00    +0.000 NA
ATOM     18  C   UNL     1      -1.902  11.808  22.785  0.00  0.00    +0.000 A 
ATOM     19  N   UNL     1      -1.486  12.059  21.495  0.00  0.00    +0.000 N 
ATOM     20  C   UNL     1      -2.167  12.846  20.491  0.00  0.00    +0.000 C 
ATOM     21  C   UNL     1      -3.689  12.692  20.512  0.00  0.00    +0.000 C 
ATOM     22  C   UNL     1      -4.390  13.520  21.589  0.00  0.00    +0.000 C 
ATOM     23  C   UNL     1      -3.654  13.634  22.924  0.00  0.00    +0.000 C 
ATOM     24  C   UNL     1      -3.145  12.298  23.444  0.00  0.00    +0.000 C 
ENDBRANCH  14  15
ENDBRANCH   3  14
TORSDOF 2
ENDMDL
MODEL 8
REMARK VINA RESULT:      -7.1      3.481      8.665
REMARK  Name = 
REMARK  2 active torsions:
REMARK  status: ('A' for Active; 'I' for Inactive)
REMARK    1  A    between atoms: N_3  and  C_4
REMARK    2  A    between atoms: C_4  and  C_5
REMARK                            x       y       z     vdW  Elec       q    Type
REMARK                         _______ _______ _______ _____ _____    ______ ____
ROOT
ATOM      1  O   UNL     1       1.756   7.936  21.718  0.00  0.00    +0.000 OA
ATOM      2  C   UNL     1       1.660   8.039  20.495  0.00  0.00    +0.000 C 
ATOM      3  N   UNL     1       2.088   7.066  19.656  0.00  0.00    +0.000 N 
ATOM      4  N   UNL     1       1.116   9.147  19.860  0.00  0.00    +0.000 N 
ATOM      5  C   UNL     1       0.713  10.308  20.689  0.00  0.00    +0.000 C 
ATOM      6  C   UNL     1       0.762  11.641  19.904  0.00  0.00    +0.000 C 
ATOM      7  C   UNL     1      -0.187  11.431  18.770  0.00  0.00    +0.000 A 
ATOM      8  S   UNL     1      -1.478  12.445  18.377  0.00  0.00    +0.000 S 
ATOM      9  C   UNL     1      -2.213  11.194  17.457  0.00  0.00    +0.000 A 
ATOM     10  C   UNL     1      -1.413  10.072  17.364  0.00  0.00    +0.000 A 
ATOM     11  C   UNL     1      -0.212  10.217  18.115  0.00  0.00    +0.000 A 
ATOM     12  C   UNL     1       0.846   9.199  18.401  0.00  0.00    +0.000 C 
ATOM     13  H   UNL     1       2.356   7.353  18.724  0.00  0.00    +0.000 HD
ENDROOT
BRANCH   3  14
ATOM     14  C   UNL     1       2.802   5.878  20.092  0.00  0.00    +0.000 C 
BRANCH  14  15
ATOM     15  C   UNL     1       3.087   5.106  18.848  0.00  0.00    +0.000 A 
ATOM     16  N   UNL     1       2.196   4.379  18.203  0.00  0.00    +0.000 NA
ATOM     17  N   UNL     1       2.792   3.834  17.105  0.00  0.00    +0.000 NA
ATOM     18  C   UNL     1       4.045   4.242  17.074  0.00  0.00    +0.000 A 
ATOM     19  N   UNL     1       4.282   5.045  18.168  0.00  0.00    +0.000 N 
ATOM     20  C   UNL     1       5.529   5.678  18.540  0.00  0.00    +0.000 C 
ATOM     21  C   UNL     1       6.763   4.817  18.265  0.00  0.00    +0.000 C 
ATOM     22  C   UNL     1       7.229   4.831  16.809  0.00  0.00    +0.000 C 
ATOM     23  C   UNL     1       6.119   4.864  15.758  0.00  0.00    +0.000 C 
ATOM     24  C   UNL     1       5.017   3.847  16.016  0.00  0.00    +0.000 C 
ENDBRANCH  14  15
ENDBRANCH   3  14
TORSDOF 2
ENDMDL
MODEL 9
REMARK VINA RESULT:      -7.1      3.515      8.562
REMARK  Name = 
REMARK  2 active torsions:
REMARK  status: ('A' for Active; 'I' for Inactive)
REMARK    1  A    between atoms: N_3  and  C_4
REMARK    2  A    between atoms: C_4  and  C_5
REMARK                            x       y       z     vdW  Elec       q    Type
REMARK                         _______ _______ _______ _____ _____    ______ ____
ROOT
ATOM      1  O   UNL     1       1.397   4.975  20.987  0.00  0.00    +0.000 OA
ATOM      2  C   UNL     1       1.776   5.812  20.169  0.00  0.00    +0.000 C 
ATOM      3  N   UNL     1       2.449   5.466  19.046  0.00  0.00    +0.000 N 
ATOM      4  N   UNL     1       1.563   7.176  20.313  0.00  0.00    +0.000 N 
ATOM      5  C   UNL     1       0.925   7.662  21.560  0.00  0.00    +0.000 C 
ATOM      6  C   UNL     1       1.326   9.118  21.900  0.00  0.00    +0.000 C 
ATOM      7  C   UNL     1       0.871   9.907  20.717  0.00  0.00    +0.000 A 
ATOM      8  S   UNL     1      -0.129  11.266  20.776  0.00  0.00    +0.000 S 
ATOM      9  C   UNL     1      -0.513  11.087  19.111  0.00  0.00    +0.000 A 
ATOM     10  C   UNL     1       0.213  10.077  18.512  0.00  0.00    +0.000 A 
ATOM     11  C   UNL     1       1.044   9.398  19.447  0.00  0.00    +0.000 A 
ATOM     12  C   UNL     1       1.870   8.165  19.249  0.00  0.00    +0.000 C 
ATOM     13  H   UNL     1       3.062   6.164  18.648  0.00  0.00    +0.000 HD
ENDROOT
BRANCH   3  14
ATOM     14  C   UNL     1       2.892   4.113  18.753  0.00  0.00    +0.000 C 
BRANCH  14  15
ATOM     15  C   UNL     1       4.015   4.264  17.782  0.00  0.00    +0.000 A 
ATOM     16  N   UNL     1       4.024   3.748  16.568  0.00  0.00    +0.000 NA
ATOM     17  N   UNL     1       5.189   4.101  15.955  0.00  0.00    +0.000 NA
ATOM     18  C   UNL     1       5.884   4.845  16.791  0.00  0.00    +0.000 A 
ATOM     19  N   UNL     1       5.182   4.968  17.971  0.00  0.00    +0.000 N 
ATOM     20  C   UNL     1       5.592   5.671  19.166  0.00  0.00    +0.000 C 
ATOM     21  C   UNL     1       7.085   5.547  19.475  0.00  0.00    +0.000 C 
ATOM     22  C   UNL     1       7.976   6.483  18.659  0.00  0.00    +0.000 C 
ATOM     23  C   UNL     1       7.552   6.707  17.208  0.00  0.00    +0.000 C 
ATOM     24  C   UNL     1       7.223   5.416  16.473  0.00  0.00    +0.000 C 
ENDBRANCH  14  15
ENDBRANCH   3  14
TORSDOF 2
ENDMDL
