MODEL 1
REMARK VINA RESULT:      -7.9      0.000      0.000
REMARK  Name = 
REMARK  2 active torsions:
REMARK  status: ('A' for Active; 'I' for Inactive)
REMARK    1  A    between atoms: C_11  and  O_12
REMARK    2  A    between atoms: O_12  and  C_13
REMARK                            x       y       z     vdW  Elec       q    Type
REMARK                         _______ _______ _______ _____ _____    ______ ____
ROOT
ATOM      1  O   UNL     1      -0.075   9.187  23.262  0.00  0.00    +0.000 OA
ATOM      2  C   UNL     1      -0.425  10.077  22.501  0.00  0.00    +0.000 A 
ATOM      3  C   UNL     1      -1.310  11.096  23.123  0.00  0.00    +0.000 A 
ATOM      4  N   UNL     1      -1.766  12.123  22.496  0.00  0.00    +0.000 NA
ATOM      5  N   UNL     1      -1.400  12.274  21.172  0.00  0.00    +0.000 NA
ATOM      6  C   UNL     1      -0.645  11.403  20.575  0.00  0.00    +0.000 A 
ATOM      7  N   UNL     1      -0.124  10.275  21.160  0.00  0.00    +0.000 N 
ATOM      8  C   UNL     1       0.689   9.350  20.414  0.00  0.00    +0.000 A 
ATOM      9  C   UNL     1       1.270   8.197  20.982  0.00  0.00    +0.000 A 
ATOM     10  C   UNL     1       2.103   7.339  20.245  0.00  0.00    +0.000 A 
ATOM     11  C   UNL     1       2.358   7.595  18.909  0.00  0.00    +0.000 A 
ATOM     12  C   UNL     1       1.704   8.662  18.302  0.00  0.00    +0.000 A 
ATOM     13  C   UNL     1       0.934   9.572  19.054  0.00  0.00    +0.000 A 
ATOM     14  C   UNL     1       0.481  10.795  18.330  0.00  0.00    +0.000 C 
ATOM     15  C   UNL     1      -0.360  11.745  19.132  0.00  0.00    +0.000 C 
ENDROOT
BRANCH  11  16
ATOM     16  O   UNL     1       3.250   6.764  18.268  0.00  0.00    +0.000 OA
BRANCH  16  17
ATOM     17  C   UNL     1       3.052   5.396  18.318  0.00  0.00    +0.000 A 
ATOM     18  C   UNL     1       1.876   4.785  17.858  0.00  0.00    +0.000 A 
ATOM     19  C   UNL     1       1.670   3.417  18.040  0.00  0.00    +0.000 A 
ATOM     20  C   UNL     1       2.673   2.634  18.603  0.00  0.00    +0.000 A 
ATOM     21  C   UNL     1       3.890   3.216  18.967  0.00  0.00    +0.000 A 
ATOM     22  C   UNL     1       4.080   4.593  18.825  0.00  0.00    +0.000 A 
ATOM     23 CL   UNL     1       5.600   5.263  19.299  0.00  0.00    +0.000 Cl
ENDBRANCH  16  17
ENDBRANCH  11  16
TORSDOF 2
ENDMDL
MODEL 2
REMARK VINA RESULT:      -7.9      1.677      2.487
REMARK  Name = 
REMARK  2 active torsions:
REMARK  status: ('A' for Active; 'I' for Inactive)
REMARK    1  A    between atoms: C_11  and  O_12
REMARK    2  A    between atoms: O_12  and  C_13
REMARK                            x       y       z     vdW  Elec       q    Type
REMARK                         _______ _______ _______ _____ _____    ______ ____
ROOT
ATOM      1  O   UNL     1       1.089  12.056  18.358  0.00  0.00    +0.000 OA
ATOM      2  C   UNL     1       0.774  11.759  19.500  0.00  0.00    +0.000 A 
ATOM      3  C   UNL     1       0.172  12.875  20.275  0.00  0.00    +0.000 A 
ATOM      4  N   UNL     1      -0.247  12.758  21.487  0.00  0.00    +0.000 NA
ATOM      5  N   UNL     1      -0.126  11.518  22.085  0.00  0.00    +0.000 NA
ATOM      6  C   UNL     1       0.410  10.514  21.459  0.00  0.00    +0.000 A 
ATOM      7  N   UNL     1       0.893  10.550  20.175  0.00  0.00    +0.000 N 
ATOM      8  C   UNL     1       1.492   9.392  19.565  0.00  0.00    +0.000 A 
ATOM      9  C   UNL     1       1.972   9.374  18.240  0.00  0.00    +0.000 A 
ATOM     10  C   UNL     1       2.504   8.214  17.652  0.00  0.00    +0.000 A 
ATOM     11  C   UNL     1       2.597   7.043  18.384  0.00  0.00    +0.000 A 
ATOM     12  C   UNL     1       2.234   7.070  19.726  0.00  0.00    +0.000 A 
ATOM     13  C   UNL     1       1.625   8.206  20.297  0.00  0.00    +0.000 A 
ATOM     14  C   UNL     1       1.076   8.028  21.673  0.00  0.00    +0.000 C 
ATOM     15  C   UNL     1       0.451   9.249  22.281  0.00  0.00    +0.000 C 
ENDROOT
BRANCH  11  16
ATOM     16  O   UNL     1       3.048   5.922  17.724  0.00  0.00    +0.000 OA
BRANCH  16  17
ATOM     17  C   UNL     1       2.696   4.672  18.201  0.00  0.00    +0.000 A 
ATOM     18  C   UNL     1       1.453   4.081  17.925  0.00  0.00    +0.000 A 
ATOM     19  C   UNL     1       1.094   2.874  18.526  0.00  0.00    +0.000 A 
ATOM     20  C   UNL     1       2.005   2.205  19.337  0.00  0.00    +0.000 A 
ATOM     21  C   UNL     1       3.284   2.733  19.532  0.00  0.00    +0.000 A 
ATOM     22  C   UNL     1       3.630   3.963  18.965  0.00  0.00    +0.000 A 
ATOM     23 CL   UNL     1       5.220   4.576  19.245  0.00  0.00    +0.000 Cl
ENDBRANCH  16  17
ENDBRANCH  11  16
TORSDOF 2
ENDMDL
MODEL 3
REMARK VINA RESULT:      -7.9      1.983      2.762
REMARK  Name = 
REMARK  2 active torsions:
REMARK  status: ('A' for Active; 'I' for Inactive)
REMARK    1  A    between atoms: C_11  and  O_12
REMARK    2  A    between atoms: O_12  and  C_13
REMARK                            x       y       z     vdW  Elec       q    Type
REMARK                         _______ _______ _______ _____ _____    ______ ____
ROOT
ATOM      1  O   UNL     1       0.362   8.352  22.294  0.00  0.00    +0.000 OA
ATOM      2  C   UNL     1       0.446   9.137  21.362  0.00  0.00    +0.000 A 
ATOM      3  C   UNL     1      -0.266  10.423  21.583  0.00  0.00    +0.000 A 
ATOM      4  N   UNL     1      -0.277  11.388  20.731  0.00  0.00    +0.000 NA
ATOM      5  N   UNL     1       0.419  11.204  19.551  0.00  0.00    +0.000 NA
ATOM      6  C   UNL     1       1.042  10.092  19.300  0.00  0.00    +0.000 A 
ATOM      7  N   UNL     1       1.097   9.009  20.141  0.00  0.00    +0.000 N 
ATOM      8  C   UNL     1       1.796   7.806  19.771  0.00  0.00    +0.000 A 
ATOM      9  C   UNL     1       1.905   6.683  20.616  0.00  0.00    +0.000 A 
ATOM     10  C   UNL     1       2.638   5.541  20.251  0.00  0.00    +0.000 A 
ATOM     11  C   UNL     1       3.259   5.478  19.016  0.00  0.00    +0.000 A 
ATOM     12  C   UNL     1       3.069   6.528  18.124  0.00  0.00    +0.000 A 
ATOM     13  C   UNL     1       2.405   7.709  18.515  0.00  0.00    +0.000 A 
ATOM     14  C   UNL     1       2.470   8.842  17.547  0.00  0.00    +0.000 C 
ATOM     15  C   UNL     1       1.739  10.087  17.961  0.00  0.00    +0.000 C 
ENDROOT
BRANCH  11  16
ATOM     16  O   UNL     1       4.031   4.368  18.754  0.00  0.00    +0.000 OA
BRANCH  16  17
ATOM     17  C   UNL     1       4.956   4.417  17.727  0.00  0.00    +0.000 A 
ATOM     18  C   UNL     1       4.642   4.050  16.410  0.00  0.00    +0.000 A 
ATOM     19  C   UNL     1       5.636   4.000  15.432  0.00  0.00    +0.000 A 
ATOM     20  C   UNL     1       6.933   4.398  15.741  0.00  0.00    +0.000 A 
ATOM     21  C   UNL     1       7.231   4.867  17.022  0.00  0.00    +0.000 A 
ATOM     22  C   UNL     1       6.247   4.877  18.014  0.00  0.00    +0.000 A 
ATOM     23 CL   UNL     1       6.671   5.457  19.584  0.00  0.00    +0.000 Cl
ENDBRANCH  16  17
ENDBRANCH  11  16
TORSDOF 2
ENDMDL
MODEL 4
REMARK VINA RESULT:      -7.9      1.778      2.691
REMARK  Name = 
REMARK  2 active torsions:
REMARK  status: ('A' for Active; 'I' for Inactive)
REMARK    1  A    between atoms: C_11  and  O_12
REMARK    2  A    between atoms: O_12  and  C_13
REMARK                            x       y       z     vdW  Elec       q    Type
REMARK                         _______ _______ _______ _____ _____    ______ ____
ROOT
ATOM      1  O   UNL     1      -0.479  11.671  18.153  0.00  0.00    +0.000 OA
ATOM      2  C   UNL     1      -0.817  11.746  19.324  0.00  0.00    +0.000 A 
ATOM      3  C   UNL     1      -1.720  12.888  19.626  0.00  0.00    +0.000 A 
ATOM      4  N   UNL     1      -2.204  13.125  20.794  0.00  0.00    +0.000 NA
ATOM      5  N   UNL     1      -1.858  12.259  21.814  0.00  0.00    +0.000 NA
ATOM      6  C   UNL     1      -1.058  11.257  21.609  0.00  0.00    +0.000 A 
ATOM      7  N   UNL     1      -0.486  10.936  20.403  0.00  0.00    +0.000 N 
ATOM      8  C   UNL     1       0.409   9.816  20.271  0.00  0.00    +0.000 A 
ATOM      9  C   UNL     1       0.993   9.431  19.047  0.00  0.00    +0.000 A 
ATOM     10  C   UNL     1       1.821   8.302  18.936  0.00  0.00    +0.000 A 
ATOM     11  C   UNL     1       2.113   7.540  20.054  0.00  0.00    +0.000 A 
ATOM     12  C   UNL     1       1.640   7.968  21.289  0.00  0.00    +0.000 A 
ATOM     13  C   UNL     1       0.743   9.051  21.394  0.00  0.00    +0.000 A 
ATOM     14  C   UNL     1       0.132   9.261  22.739  0.00  0.00    +0.000 C 
ATOM     15  C   UNL     1      -0.802  10.432  22.847  0.00  0.00    +0.000 C 
ENDROOT
BRANCH  11  16
ATOM     16  O   UNL     1       2.861   6.400  19.861  0.00  0.00    +0.000 OA
BRANCH  16  17
ATOM     17  C   UNL     1       2.214   5.210  19.580  0.00  0.00    +0.000 A 
ATOM     18  C   UNL     1       1.245   4.657  20.431  0.00  0.00    +0.000 A 
ATOM     19  C   UNL     1       0.707   3.397  20.169  0.00  0.00    +0.000 A 
ATOM     20  C   UNL     1       1.067   2.717  19.009  0.00  0.00    +0.000 A 
ATOM     21  C   UNL     1       1.950   3.307  18.102  0.00  0.00    +0.000 A 
ATOM     22  C   UNL     1       2.523   4.550  18.385  0.00  0.00    +0.000 A 
ATOM     23 CL   UNL     1       3.616   5.230  17.234  0.00  0.00    +0.000 Cl
ENDBRANCH  16  17
ENDBRANCH  11  16
TORSDOF 2
ENDMDL
MODEL 5
REMARK VINA RESULT:      -7.8      1.917      2.749
REMARK  Name = 
REMARK  2 active torsions:
REMARK  status: ('A' for Active; 'I' for Inactive)
REMARK    1  A    between atoms: C_11  and  O_12
REMARK    2  A    between atoms: O_12  and  C_13
REMARK                            x       y       z     vdW  Elec       q    Type
REMARK                         _______ _______ _______ _____ _____    ______ ____
ROOT
ATOM      1  O   UNL     1      -0.198   8.878  22.285  0.00  0.00    +0.000 OA
ATOM      2  C   UNL     1       0.022   9.591  21.317  0.00  0.00    +0.000 A 
ATOM      3  C   UNL     1      -0.652  10.914  21.371  0.00  0.00    +0.000 A 
ATOM      4  N   UNL     1      -0.527  11.816  20.460  0.00  0.00    +0.000 NA
ATOM      5  N   UNL     1       0.284  11.522  19.381  0.00  0.00    +0.000 NA
ATOM      6  C   UNL     1       0.881  10.374  19.276  0.00  0.00    +0.000 A 
ATOM      7  N   UNL     1       0.796   9.352  20.189  0.00  0.00    +0.000 N 
ATOM      8  C   UNL     1       1.477   8.101  19.980  0.00  0.00    +0.000 A 
ATOM      9  C   UNL     1       1.444   7.037  20.905  0.00  0.00    +0.000 A 
ATOM     10  C   UNL     1       2.160   5.846  20.702  0.00  0.00    +0.000 A 
ATOM     11  C   UNL     1       2.910   5.673  19.551  0.00  0.00    +0.000 A 
ATOM     12  C   UNL     1       2.864   6.663  18.576  0.00  0.00    +0.000 A 
ATOM     13  C   UNL     1       2.215   7.892  18.810  0.00  0.00    +0.000 A 
ATOM     14  C   UNL     1       2.435   8.950  17.782  0.00  0.00    +0.000 C 
ATOM     15  C   UNL     1       1.719  10.247  18.027  0.00  0.00    +0.000 C 
ENDROOT
BRANCH  11  16
ATOM     16  O   UNL     1       3.655   4.519  19.453  0.00  0.00    +0.000 OA
BRANCH  16  17
ATOM     17  C   UNL     1       4.665   4.448  18.511  0.00  0.00    +0.000 A 
ATOM     18  C   UNL     1       5.974   4.882  18.773  0.00  0.00    +0.000 A 
ATOM     19  C   UNL     1       6.930   4.905  17.758  0.00  0.00    +0.000 A 
ATOM     20  C   UNL     1       6.612   4.414  16.495  0.00  0.00    +0.000 A 
ATOM     21  C   UNL     1       5.344   3.881  16.254  0.00  0.00    +0.000 A 
ATOM     22  C   UNL     1       4.372   3.898  17.258  0.00  0.00    +0.000 A 
ATOM     23 CL   UNL     1       2.816   3.236  16.905  0.00  0.00    +0.000 Cl
ENDBRANCH  16  17
ENDBRANCH  11  16
TORSDOF 2
ENDMDL
MODEL 6
REMARK VINA RESULT:      -7.7      1.920      2.606
REMARK  Name = 
REMARK  2 active torsions:
REMARK  status: ('A' for Active; 'I' for Inactive)
REMARK    1  A    between atoms: C_11  and  O_12
REMARK    2  A    between atoms: O_12  and  C_13
REMARK                            x       y       z     vdW  Elec       q    Type
REMARK                         _______ _______ _______ _____ _____    ______ ____
ROOT
ATOM      1  O   UNL     1       0.388   8.844  22.777  0.00  0.00    +0.000 OA
ATOM      2  C   UNL     1       0.259   9.778  22.000  0.00  0.00    +0.000 A 
ATOM      3  C   UNL     1      -0.453  10.951  22.571  0.00  0.00    +0.000 A 
ATOM      4  N   UNL     1      -0.668  12.041  21.921  0.00  0.00    +0.000 NA
ATOM      5  N   UNL     1      -0.202  12.109  20.622  0.00  0.00    +0.000 NA
ATOM      6  C   UNL     1       0.410  11.107  20.068  0.00  0.00    +0.000 A 
ATOM      7  N   UNL     1       0.672   9.905  20.680  0.00  0.00    +0.000 N 
ATOM      8  C   UNL     1       1.339   8.838  19.982  0.00  0.00    +0.000 A 
ATOM      9  C   UNL     1       1.656   7.601  20.579  0.00  0.00    +0.000 A 
ATOM     10  C   UNL     1       2.355   6.595  19.891  0.00  0.00    +0.000 A 
ATOM     11  C   UNL     1       2.733   6.787  18.573  0.00  0.00    +0.000 A 
ATOM     12  C   UNL     1       2.331   7.954  17.932  0.00  0.00    +0.000 A 
ATOM     13  C   UNL     1       1.703   8.999  18.640  0.00  0.00    +0.000 A 
ATOM     14  C   UNL     1       1.533  10.279  17.894  0.00  0.00    +0.000 C 
ATOM     15  C   UNL     1       0.840  11.378  18.647  0.00  0.00    +0.000 C 
ENDROOT
BRANCH  11  16
ATOM     16  O   UNL     1       3.489   5.798  17.984  0.00  0.00    +0.000 OA
BRANCH  16  17
ATOM     17  C   UNL     1       4.865   5.831  18.120  0.00  0.00    +0.000 A 
ATOM     18  C   UNL     1       5.523   5.350  19.262  0.00  0.00    +0.000 A 
ATOM     19  C   UNL     1       6.901   5.513  19.408  0.00  0.00    +0.000 A 
ATOM     20  C   UNL     1       7.645   6.080  18.377  0.00  0.00    +0.000 A 
ATOM     21  C   UNL     1       7.013   6.465  17.192  0.00  0.00    +0.000 A 
ATOM     22  C   UNL     1       5.627   6.341  17.062  0.00  0.00    +0.000 A 
ATOM     23 CL   UNL     1       4.895   6.841  15.580  0.00  0.00    +0.000 Cl
ENDBRANCH  16  17
ENDBRANCH  11  16
TORSDOF 2
ENDMDL
MODEL 7
REMARK VINA RESULT:      -7.7      1.565      2.393
REMARK  Name = 
REMARK  2 active torsions:
REMARK  status: ('A' for Active; 'I' for Inactive)
REMARK    1  A    between atoms: C_11  and  O_12
REMARK    2  A    between atoms: O_12  and  C_13
REMARK                            x       y       z     vdW  Elec       q    Type
REMARK                         _______ _______ _______ _____ _____    ______ ____
ROOT
ATOM      1  O   UNL     1      -0.425  11.698  18.220  0.00  0.00    +0.000 OA
ATOM      2  C   UNL     1      -0.544  11.404  19.400  0.00  0.00    +0.000 A 
ATOM      3  C   UNL     1      -1.419  12.326  20.171  0.00  0.00    +0.000 A 
ATOM      4  N   UNL     1      -1.688  12.175  21.421  0.00  0.00    +0.000 NA
ATOM      5  N   UNL     1      -1.127  11.089  22.066  0.00  0.00    +0.000 NA
ATOM      6  C   UNL     1      -0.341  10.264  21.444  0.00  0.00    +0.000 A 
ATOM      7  N   UNL     1       0.011  10.354  20.120  0.00  0.00    +0.000 N 
ATOM      8  C   UNL     1       0.908   9.404  19.516  0.00  0.00    +0.000 A 
ATOM      9  C   UNL     1       1.271   9.439  18.154  0.00  0.00    +0.000 A 
ATOM     10  C   UNL     1       2.108   8.469  17.578  0.00  0.00    +0.000 A 
ATOM     11  C   UNL     1       2.630   7.449  18.355  0.00  0.00    +0.000 A 
ATOM     12  C   UNL     1       2.375   7.462  19.722  0.00  0.00    +0.000 A 
ATOM     13  C   UNL     1       1.472   8.384  20.290  0.00  0.00    +0.000 A 
ATOM     14  C   UNL     1       1.112   8.146  21.718  0.00  0.00    +0.000 C 
ATOM     15  C   UNL     1       0.169   9.147  22.321  0.00  0.00    +0.000 C 
ENDROOT
BRANCH  11  16
ATOM     16  O   UNL     1       3.372   6.483  17.713  0.00  0.00    +0.000 OA
BRANCH  16  17
ATOM     17  C   UNL     1       2.973   5.162  17.794  0.00  0.00    +0.000 A 
ATOM     18  C   UNL     1       1.635   4.788  17.990  0.00  0.00    +0.000 A 
ATOM     19  C   UNL     1       1.294   3.449  18.187  0.00  0.00    +0.000 A 
ATOM     20  C   UNL     1       2.275   2.465  18.104  0.00  0.00    +0.000 A 
ATOM     21  C   UNL     1       3.592   2.818  17.803  0.00  0.00    +0.000 A 
ATOM     22  C   UNL     1       3.942   4.162  17.648  0.00  0.00    +0.000 A 
ATOM     23 CL   UNL     1       5.587   4.545  17.286  0.00  0.00    +0.000 Cl
ENDBRANCH  16  17
ENDBRANCH  11  16
TORSDOF 2
ENDMDL
MODEL 8
REMARK VINA RESULT:      -7.7      4.960      6.985
REMARK  Name = 
REMARK  2 active torsions:
REMARK  status: ('A' for Active; 'I' for Inactive)
REMARK    1  A    between atoms: C_11  and  O_12
REMARK    2  A    between atoms: O_12  and  C_13
REMARK                            x       y       z     vdW  Elec       q    Type
REMARK                         _______ _______ _______ _____ _____    ______ ____
ROOT
ATOM      1  O   UNL     1       4.281   2.042  19.776  0.00  0.00    +0.000 OA
ATOM      2  C   UNL     1       3.587   3.009  20.050  0.00  0.00    +0.000 A 
ATOM      3  C   UNL     1       2.727   2.820  21.248  0.00  0.00    +0.000 A 
ATOM      4  N   UNL     1       1.942   3.728  21.713  0.00  0.00    +0.000 NA
ATOM      5  N   UNL     1       1.910   4.941  21.051  0.00  0.00    +0.000 NA
ATOM      6  C   UNL     1       2.627   5.152  19.989  0.00  0.00    +0.000 A 
ATOM      7  N   UNL     1       3.480   4.240  19.417  0.00  0.00    +0.000 N 
ATOM      8  C   UNL     1       4.221   4.552  18.223  0.00  0.00    +0.000 A 
ATOM      9  C   UNL     1       5.131   3.660  17.621  0.00  0.00    +0.000 A 
ATOM     10  C   UNL     1       5.881   4.009  16.486  0.00  0.00    +0.000 A 
ATOM     11  C   UNL     1       5.722   5.254  15.902  0.00  0.00    +0.000 A 
ATOM     12  C   UNL     1       4.749   6.105  16.413  0.00  0.00    +0.000 A 
ATOM     13  C   UNL     1       4.052   5.793  17.599  0.00  0.00    +0.000 A 
ATOM     14  C   UNL     1       3.208   6.886  18.164  0.00  0.00    +0.000 C 
ATOM     15  C   UNL     1       2.452   6.536  19.413  0.00  0.00    +0.000 C 
ENDROOT
BRANCH  11  16
ATOM     16  O   UNL     1       6.548   5.564  14.845  0.00  0.00    +0.000 OA
BRANCH  16  17
ATOM     17  C   UNL     1       6.494   4.793  13.698  0.00  0.00    +0.000 A 
ATOM     18  C   UNL     1       5.418   3.937  13.415  0.00  0.00    +0.000 A 
ATOM     19  C   UNL     1       5.461   3.089  12.308  0.00  0.00    +0.000 A 
ATOM     20  C   UNL     1       6.538   3.150  11.429  0.00  0.00    +0.000 A 
ATOM     21  C   UNL     1       7.563   4.074  11.645  0.00  0.00    +0.000 A 
ATOM     22  C   UNL     1       7.542   4.895  12.776  0.00  0.00    +0.000 A 
ATOM     23 CL   UNL     1       8.838   6.013  13.001  0.00  0.00    +0.000 Cl
ENDBRANCH  16  17
ENDBRANCH  11  16
TORSDOF 2
ENDMDL
MODEL 9
REMARK VINA RESULT:      -7.6      4.033      7.172
REMARK  Name = 
REMARK  2 active torsions:
REMARK  status: ('A' for Active; 'I' for Inactive)
REMARK    1  A    between atoms: C_11  and  O_12
REMARK    2  A    between atoms: O_12  and  C_13
REMARK                            x       y       z     vdW  Elec       q    Type
REMARK                         _______ _______ _______ _____ _____    ______ ____
ROOT
ATOM      1  O   UNL     1       2.054   4.364  21.506  0.00  0.00    +0.000 OA
ATOM      2  C   UNL     1       2.732   4.134  20.515  0.00  0.00    +0.000 A 
ATOM      3  C   UNL     1       3.291   2.758  20.467  0.00  0.00    +0.000 A 
ATOM      4  N   UNL     1       4.010   2.314  19.496  0.00  0.00    +0.000 NA
ATOM      5  N   UNL     1       4.266   3.177  18.447  0.00  0.00    +0.000 NA
ATOM      6  C   UNL     1       3.818   4.395  18.449  0.00  0.00    +0.000 A 
ATOM      7  N   UNL     1       3.056   4.956  19.444  0.00  0.00    +0.000 N 
ATOM      8  C   UNL     1       2.619   6.326  19.372  0.00  0.00    +0.000 A 
ATOM      9  C   UNL     1       1.809   6.933  20.354  0.00  0.00    +0.000 A 
ATOM     10  C   UNL     1       1.353   8.256  20.234  0.00  0.00    +0.000 A 
ATOM     11  C   UNL     1       1.718   9.022  19.140  0.00  0.00    +0.000 A 
ATOM     12  C   UNL     1       2.607   8.479  18.219  0.00  0.00    +0.000 A 
ATOM     13  C   UNL     1       3.002   7.127  18.291  0.00  0.00    +0.000 A 
ATOM     14  C   UNL     1       3.768   6.610  17.120  0.00  0.00    +0.000 C 
ATOM     15  C   UNL     1       4.206   5.177  17.218  0.00  0.00    +0.000 C 
ENDROOT
BRANCH  11  16
ATOM     16  O   UNL     1       1.168  10.280  19.040  0.00  0.00    +0.000 OA
BRANCH  16  17
ATOM     17  C   UNL     1      -0.159  10.409  18.675  0.00  0.00    +0.000 A 
ATOM     18  C   UNL     1      -0.714   9.713  17.590  0.00  0.00    +0.000 A 
ATOM     19  C   UNL     1      -2.025   9.964  17.183  0.00  0.00    +0.000 A 
ATOM     20  C   UNL     1      -2.819  10.847  17.908  0.00  0.00    +0.000 A 
ATOM     21  C   UNL     1      -2.309  11.464  19.053  0.00  0.00    +0.000 A 
ATOM     22  C   UNL     1      -0.983  11.246  19.436  0.00  0.00    +0.000 A 
ATOM     23 CL   UNL     1      -0.398  12.041  20.854  0.00  0.00    +0.000 Cl
ENDBRANCH  16  17
ENDBRANCH  11  16
TORSDOF 2
ENDMDL
