MODEL 1
REMARK VINA RESULT:      -8.0      0.000      0.000
REMARK  Name = 
REMARK  6 active torsions:
REMARK  status: ('A' for Active; 'I' for Inactive)
REMARK    1  A    between atoms: C_1  and  O_2
REMARK    2  A    between atoms: O_2  and  C_3
REMARK    3  A    between atoms: C_6  and  C_7
REMARK    4  A    between atoms: C_9  and  S_10
REMARK    5  A    between atoms: S_10  and  N_13
REMARK    6  A    between atoms: C_21  and  C_22
REMARK                            x       y       z     vdW  Elec       q    Type
REMARK                         _______ _______ _______ _____ _____    ______ ____
ROOT
ATOM      1  S   UNL     1       5.021   4.688  17.993  0.00  0.00    +0.000 S 
ATOM      2  O   UNL     1       5.154   3.288  18.345  0.00  0.00    +0.000 OA
ATOM      3  O   UNL     1       5.584   5.684  18.885  0.00  0.00    +0.000 OA
ENDROOT
BRANCH   1   4
ATOM      4  N   UNL     1       3.327   4.963  17.851  0.00  0.00    +0.000 N 
ATOM      5  C   UNL     1       2.464   4.083  18.577  0.00  0.00    +0.000 A 
ATOM      6  C   UNL     1       1.969   2.874  18.125  0.00  0.00    +0.000 A 
ATOM      7  C   UNL     1       0.924   2.302  18.853  0.00  0.00    +0.000 A 
ATOM      8  C   UNL     1       0.461   2.899  20.043  0.00  0.00    +0.000 A 
ATOM      9  C   UNL     1       0.966   4.131  20.473  0.00  0.00    +0.000 A 
ATOM     10  C   UNL     1       1.909   4.748  19.676  0.00  0.00    +0.000 A 
ATOM     11  C   UNL     1       2.369   6.184  19.682  0.00  0.00    +0.000 C 
ATOM     12  C   UNL     1       2.732   6.304  18.184  0.00  0.00    +0.000 C 
ATOM     13  C   UNL     1       3.456   7.518  17.696  0.00  0.00    +0.000 C 
ENDBRANCH   1   4
BRANCH   1  20
ATOM     14  C   UNL     1       7.070   5.500  16.227  0.00  0.00    +0.000 A 
ATOM     15  C   UNL     1       7.663   5.517  14.953  0.00  0.00    +0.000 A 
ATOM     16  C   UNL     1       7.059   4.885  13.862  0.00  0.00    +0.000 A 
ATOM     17  C   UNL     1       5.852   4.214  14.019  0.00  0.00    +0.000 A 
ATOM     18  C   UNL     1       5.246   3.462  12.868  0.00  0.00    +0.000 C 
ATOM     19  C   UNL     1       5.239   4.213  15.283  0.00  0.00    +0.000 A 
ATOM     20  C   UNL     1       5.829   4.867  16.388  0.00  0.00    +0.000 A 
BRANCH  14  22
ATOM     21  C   UNL     1       7.670   7.488  17.393  0.00  0.00    +0.000 C 
ATOM     22  O   UNL     1       7.666   6.065  17.317  0.00  0.00    +0.000 OA
ENDBRANCH  14  22
ENDBRANCH   1  20
TORSDOF 3
ENDMDL
MODEL 2
REMARK VINA RESULT:      -7.3      1.489      3.136
REMARK  Name = 
REMARK  6 active torsions:
REMARK  status: ('A' for Active; 'I' for Inactive)
REMARK    1  A    between atoms: C_1  and  O_2
REMARK    2  A    between atoms: O_2  and  C_3
REMARK    3  A    between atoms: C_6  and  C_7
REMARK    4  A    between atoms: C_9  and  S_10
REMARK    5  A    between atoms: S_10  and  N_13
REMARK    6  A    between atoms: C_21  and  C_22
REMARK                            x       y       z     vdW  Elec       q    Type
REMARK                         _______ _______ _______ _____ _____    ______ ____
ROOT
ATOM      1  S   UNL     1       4.230   2.943  18.820  0.00  0.00    +0.000 S 
ATOM      2  O   UNL     1       3.760   1.793  18.072  0.00  0.00    +0.000 OA
ATOM      3  O   UNL     1       5.032   2.717  20.008  0.00  0.00    +0.000 OA
ENDROOT
BRANCH   1   4
ATOM      4  N   UNL     1       2.810   3.809  19.265  0.00  0.00    +0.000 N 
ATOM      5  C   UNL     1       2.791   5.211  18.981  0.00  0.00    +0.000 A 
ATOM      6  C   UNL     1       3.260   6.215  19.807  0.00  0.00    +0.000 A 
ATOM      7  C   UNL     1       2.897   7.524  19.487  0.00  0.00    +0.000 A 
ATOM      8  C   UNL     1       2.154   7.804  18.322  0.00  0.00    +0.000 A 
ATOM      9  C   UNL     1       1.676   6.771  17.509  0.00  0.00    +0.000 A 
ATOM     10  C   UNL     1       1.934   5.474  17.906  0.00  0.00    +0.000 A 
ATOM     11  C   UNL     1       1.282   4.192  17.455  0.00  0.00    +0.000 C 
ATOM     12  C   UNL     1       1.458   3.385  18.761  0.00  0.00    +0.000 C 
ATOM     13  C   UNL     1       1.148   1.922  18.771  0.00  0.00    +0.000 C 
ENDBRANCH   1   4
BRANCH   1  20
ATOM     14  C   UNL     1       6.274   4.742  18.068  0.00  0.00    +0.000 A 
ATOM     15  C   UNL     1       7.048   5.388  17.089  0.00  0.00    +0.000 A 
ATOM     16  C   UNL     1       6.815   5.182  15.726  0.00  0.00    +0.000 A 
ATOM     17  C   UNL     1       5.808   4.319  15.309  0.00  0.00    +0.000 A 
ATOM     18  C   UNL     1       5.613   4.031  13.847  0.00  0.00    +0.000 C 
ATOM     19  C   UNL     1       5.013   3.689  16.280  0.00  0.00    +0.000 A 
ATOM     20  C   UNL     1       5.224   3.907  17.660  0.00  0.00    +0.000 A 
BRANCH  14  22
ATOM     21  C   UNL     1       7.695   5.596  19.778  0.00  0.00    +0.000 C 
ATOM     22  O   UNL     1       6.516   4.888  19.403  0.00  0.00    +0.000 OA
ENDBRANCH  14  22
ENDBRANCH   1  20
TORSDOF 3
ENDMDL
MODEL 3
REMARK VINA RESULT:      -7.3      1.683      2.887
REMARK  Name = 
REMARK  6 active torsions:
REMARK  status: ('A' for Active; 'I' for Inactive)
REMARK    1  A    between atoms: C_1  and  O_2
REMARK    2  A    between atoms: O_2  and  C_3
REMARK    3  A    between atoms: C_6  and  C_7
REMARK    4  A    between atoms: C_9  and  S_10
REMARK    5  A    between atoms: S_10  and  N_13
REMARK    6  A    between atoms: C_21  and  C_22
REMARK                            x       y       z     vdW  Elec       q    Type
REMARK                         _______ _______ _______ _____ _____    ______ ____
ROOT
ATOM      1  S   UNL     1       3.860   3.226  17.610  0.00  0.00    +0.000 S 
ATOM      2  O   UNL     1       2.612   3.707  17.050  0.00  0.00    +0.000 OA
ATOM      3  O   UNL     1       4.060   1.795  17.732  0.00  0.00    +0.000 OA
ENDROOT
BRANCH   1   4
ATOM      4  N   UNL     1       3.962   3.937  19.175  0.00  0.00    +0.000 N 
ATOM      5  C   UNL     1       3.050   5.000  19.464  0.00  0.00    +0.000 A 
ATOM      6  C   UNL     1       3.255   6.342  19.205  0.00  0.00    +0.000 A 
ATOM      7  C   UNL     1       2.385   7.248  19.814  0.00  0.00    +0.000 A 
ATOM      8  C   UNL     1       1.297   6.796  20.589  0.00  0.00    +0.000 A 
ATOM      9  C   UNL     1       1.118   5.434  20.850  0.00  0.00    +0.000 A 
ATOM     10  C   UNL     1       2.059   4.558  20.347  0.00  0.00    +0.000 A 
ATOM     11  C   UNL     1       2.329   3.126  20.734  0.00  0.00    +0.000 C 
ATOM     12  C   UNL     1       3.841   3.095  20.415  0.00  0.00    +0.000 C 
ATOM     13  C   UNL     1       4.572   1.790  20.434  0.00  0.00    +0.000 C 
ENDBRANCH   1   4
BRANCH   1  20
ATOM     14  C   UNL     1       6.342   4.443  17.025  0.00  0.00    +0.000 A 
ATOM     15  C   UNL     1       7.334   4.842  16.114  0.00  0.00    +0.000 A 
ATOM     16  C   UNL     1       7.177   4.647  14.739  0.00  0.00    +0.000 A 
ATOM     17  C   UNL     1       6.029   4.041  14.241  0.00  0.00    +0.000 A 
ATOM     18  C   UNL     1       5.898   3.753  12.773  0.00  0.00    +0.000 C 
ATOM     19  C   UNL     1       5.021   3.661  15.143  0.00  0.00    +0.000 A 
ATOM     20  C   UNL     1       5.158   3.873  16.534  0.00  0.00    +0.000 A 
BRANCH  14  22
ATOM     21  C   UNL     1       7.380   5.594  18.834  0.00  0.00    +0.000 C 
ATOM     22  O   UNL     1       6.495   4.576  18.375  0.00  0.00    +0.000 OA
ENDBRANCH  14  22
ENDBRANCH   1  20
TORSDOF 3
ENDMDL
MODEL 4
REMARK VINA RESULT:      -7.3      2.421      5.901
REMARK  Name = 
REMARK  6 active torsions:
REMARK  status: ('A' for Active; 'I' for Inactive)
REMARK    1  A    between atoms: C_1  and  O_2
REMARK    2  A    between atoms: O_2  and  C_3
REMARK    3  A    between atoms: C_6  and  C_7
REMARK    4  A    between atoms: C_9  and  S_10
REMARK    5  A    between atoms: S_10  and  N_13
REMARK    6  A    between atoms: C_21  and  C_22
REMARK                            x       y       z     vdW  Elec       q    Type
REMARK                         _______ _______ _______ _____ _____    ______ ____
ROOT
ATOM      1  S   UNL     1       2.513   3.399  17.750  0.00  0.00    +0.000 S 
ATOM      2  O   UNL     1       1.970   2.317  18.550  0.00  0.00    +0.000 OA
ATOM      3  O   UNL     1       2.020   3.576  16.398  0.00  0.00    +0.000 OA
ENDROOT
BRANCH   1   4
ATOM      4  N   UNL     1       4.210   3.115  17.691  0.00  0.00    +0.000 N 
ATOM      5  C   UNL     1       4.995   4.035  16.927  0.00  0.00    +0.000 A 
ATOM      6  C   UNL     1       5.268   3.944  15.575  0.00  0.00    +0.000 A 
ATOM      7  C   UNL     1       6.277   4.768  15.073  0.00  0.00    +0.000 A 
ATOM      8  C   UNL     1       6.922   5.708  15.902  0.00  0.00    +0.000 A 
ATOM      9  C   UNL     1       6.640   5.771  17.271  0.00  0.00    +0.000 A 
ATOM     10  C   UNL     1       5.732   4.864  17.779  0.00  0.00    +0.000 A 
ATOM     11  C   UNL     1       5.488   4.461  19.211  0.00  0.00    +0.000 C 
ATOM     12  C   UNL     1       5.020   3.011  18.954  0.00  0.00    +0.000 C 
ATOM     13  C   UNL     1       4.441   2.212  20.078  0.00  0.00    +0.000 C 
ENDBRANCH   1   4
BRANCH   1  20
ATOM     14  C   UNL     1       1.755   4.909  20.014  0.00  0.00    +0.000 A 
ATOM     15  C   UNL     1       1.581   6.138  20.673  0.00  0.00    +0.000 A 
ATOM     16  C   UNL     1       1.834   7.351  20.027  0.00  0.00    +0.000 A 
ATOM     17  C   UNL     1       2.276   7.366  18.709  0.00  0.00    +0.000 A 
ATOM     18  C   UNL     1       2.630   8.664  18.042  0.00  0.00    +0.000 C 
ATOM     19  C   UNL     1       2.429   6.144  18.034  0.00  0.00    +0.000 A 
ATOM     20  C   UNL     1       2.154   4.911  18.670  0.00  0.00    +0.000 A 
BRANCH  14  22
ATOM     21  C   UNL     1       2.144   3.551  21.932  0.00  0.00    +0.000 C 
ATOM     22  O   UNL     1       1.564   3.711  20.640  0.00  0.00    +0.000 OA
ENDBRANCH  14  22
ENDBRANCH   1  20
TORSDOF 3
ENDMDL
MODEL 5
REMARK VINA RESULT:      -7.1      1.545      3.019
REMARK  Name = 
REMARK  6 active torsions:
REMARK  status: ('A' for Active; 'I' for Inactive)
REMARK    1  A    between atoms: C_1  and  O_2
REMARK    2  A    between atoms: O_2  and  C_3
REMARK    3  A    between atoms: C_6  and  C_7
REMARK    4  A    between atoms: C_9  and  S_10
REMARK    5  A    between atoms: S_10  and  N_13
REMARK    6  A    between atoms: C_21  and  C_22
REMARK                            x       y       z     vdW  Elec       q    Type
REMARK                         _______ _______ _______ _____ _____    ______ ____
ROOT
ATOM      1  S   UNL     1       4.373   3.410  18.579  0.00  0.00    +0.000 S 
ATOM      2  O   UNL     1       3.242   2.804  17.902  0.00  0.00    +0.000 OA
ATOM      3  O   UNL     1       5.160   2.593  19.481  0.00  0.00    +0.000 OA
ENDROOT
BRANCH   1   4
ATOM      4  N   UNL     1       3.719   4.738  19.458  0.00  0.00    +0.000 N 
ATOM      5  C   UNL     1       3.313   5.881  18.700  0.00  0.00    +0.000 A 
ATOM      6  C   UNL     1       4.118   6.945  18.338  0.00  0.00    +0.000 A 
ATOM      7  C   UNL     1       3.481   8.089  17.853  0.00  0.00    +0.000 A 
ATOM      8  C   UNL     1       2.084   8.113  17.665  0.00  0.00    +0.000 A 
ATOM      9  C   UNL     1       1.288   7.030  18.052  0.00  0.00    +0.000 A 
ATOM     10  C   UNL     1       1.917   5.955  18.648  0.00  0.00    +0.000 A 
ATOM     11  C   UNL     1       1.321   4.834  19.461  0.00  0.00    +0.000 C 
ATOM     12  C   UNL     1       2.538   4.553  20.372  0.00  0.00    +0.000 C 
ATOM     13  C   UNL     1       2.535   3.347  21.255  0.00  0.00    +0.000 C 
ENDBRANCH   1   4
BRANCH   1  20
ATOM     14  C   UNL     1       6.745   4.518  17.519  0.00  0.00    +0.000 A 
ATOM     15  C   UNL     1       7.561   4.869  16.430  0.00  0.00    +0.000 A 
ATOM     16  C   UNL     1       7.140   4.672  15.113  0.00  0.00    +0.000 A 
ATOM     17  C   UNL     1       5.895   4.112  14.850  0.00  0.00    +0.000 A 
ATOM     18  C   UNL     1       5.476   3.822  13.437  0.00  0.00    +0.000 C 
ATOM     19  C   UNL     1       5.062   3.781  15.931  0.00  0.00    +0.000 A 
ATOM     20  C   UNL     1       5.468   3.995  17.268  0.00  0.00    +0.000 A 
BRANCH  14  22
ATOM     21  C   UNL     1       7.800   5.873  19.169  0.00  0.00    +0.000 C 
ATOM     22  O   UNL     1       7.157   4.652  18.814  0.00  0.00    +0.000 OA
ENDBRANCH  14  22
ENDBRANCH   1  20
TORSDOF 3
ENDMDL
MODEL 6
REMARK VINA RESULT:      -6.6      2.261      3.317
REMARK  Name = 
REMARK  6 active torsions:
REMARK  status: ('A' for Active; 'I' for Inactive)
REMARK    1  A    between atoms: C_1  and  O_2
REMARK    2  A    between atoms: O_2  and  C_3
REMARK    3  A    between atoms: C_6  and  C_7
REMARK    4  A    between atoms: C_9  and  S_10
REMARK    5  A    between atoms: S_10  and  N_13
REMARK    6  A    between atoms: C_21  and  C_22
REMARK                            x       y       z     vdW  Elec       q    Type
REMARK                         _______ _______ _______ _____ _____    ______ ____
ROOT
ATOM      1  S   UNL     1       4.343   5.001  16.746  0.00  0.00    +0.000 S 
ATOM      2  O   UNL     1       4.439   5.824  15.555  0.00  0.00    +0.000 OA
ATOM      3  O   UNL     1       4.409   3.560  16.600  0.00  0.00    +0.000 OA
ENDROOT
BRANCH   1   4
ATOM      4  N   UNL     1       2.836   5.419  17.468  0.00  0.00    +0.000 N 
ATOM      5  C   UNL     1       2.292   4.493  18.413  0.00  0.00    +0.000 A 
ATOM      6  C   UNL     1       1.475   3.417  18.119  0.00  0.00    +0.000 A 
ATOM      7  C   UNL     1       0.818   2.807  19.190  0.00  0.00    +0.000 A 
ATOM      8  C   UNL     1       1.051   3.227  20.515  0.00  0.00    +0.000 A 
ATOM      9  C   UNL     1       1.870   4.328  20.786  0.00  0.00    +0.000 A 
ATOM     10  C   UNL     1       2.414   5.001  19.711  0.00  0.00    +0.000 A 
ATOM     11  C   UNL     1       3.025   6.378  19.659  0.00  0.00    +0.000 C 
ATOM     12  C   UNL     1       2.664   6.723  18.196  0.00  0.00    +0.000 C 
ATOM     13  C   UNL     1       3.246   7.947  17.563  0.00  0.00    +0.000 C 
ENDBRANCH   1   4
BRANCH   1  20
ATOM     14  C   UNL     1       6.246   4.694  18.811  0.00  0.00    +0.000 A 
ATOM     15  C   UNL     1       7.369   5.141  19.527  0.00  0.00    +0.000 A 
ATOM     16  C   UNL     1       7.985   6.359  19.227  0.00  0.00    +0.000 A 
ATOM     17  C   UNL     1       7.498   7.158  18.199  0.00  0.00    +0.000 A 
ATOM     18  C   UNL     1       8.210   8.425  17.820  0.00  0.00    +0.000 C 
ATOM     19  C   UNL     1       6.360   6.732  17.494  0.00  0.00    +0.000 A 
ATOM     20  C   UNL     1       5.715   5.512  17.802  0.00  0.00    +0.000 A 
BRANCH  14  22
ATOM     21  C   UNL     1       5.176   3.246  20.370  0.00  0.00    +0.000 C 
ATOM     22  O   UNL     1       5.660   3.485  19.051  0.00  0.00    +0.000 OA
ENDBRANCH  14  22
ENDBRANCH   1  20
TORSDOF 3
ENDMDL
MODEL 7
REMARK VINA RESULT:      -6.5      1.763      2.207
REMARK  Name = 
REMARK  6 active torsions:
REMARK  status: ('A' for Active; 'I' for Inactive)
REMARK    1  A    between atoms: C_1  and  O_2
REMARK    2  A    between atoms: O_2  and  C_3
REMARK    3  A    between atoms: C_6  and  C_7
REMARK    4  A    between atoms: C_9  and  S_10
REMARK    5  A    between atoms: S_10  and  N_13
REMARK    6  A    between atoms: C_21  and  C_22
REMARK                            x       y       z     vdW  Elec       q    Type
REMARK                         _______ _______ _______ _____ _____    ______ ____
ROOT
ATOM      1  S   UNL     1       3.925   6.790  17.542  0.00  0.00    +0.000 S 
ATOM      2  O   UNL     1       4.531   7.455  18.680  0.00  0.00    +0.000 OA
ATOM      3  O   UNL     1       3.353   7.605  16.486  0.00  0.00    +0.000 OA
ENDROOT
BRANCH   1   4
ATOM      4  N   UNL     1       2.690   5.789  18.203  0.00  0.00    +0.000 N 
ATOM      5  C   UNL     1       2.930   4.379  18.204  0.00  0.00    +0.000 A 
ATOM      6  C   UNL     1       2.630   3.502  17.178  0.00  0.00    +0.000 A 
ATOM      7  C   UNL     1       2.673   2.138  17.474  0.00  0.00    +0.000 A 
ATOM      8  C   UNL     1       3.087   1.687  18.744  0.00  0.00    +0.000 A 
ATOM      9  C   UNL     1       3.371   2.593  19.771  0.00  0.00    +0.000 A 
ATOM     10  C   UNL     1       3.202   3.937  19.503  0.00  0.00    +0.000 A 
ATOM     11  C   UNL     1       3.091   5.093  20.464  0.00  0.00    +0.000 C 
ATOM     12  C   UNL     1       2.188   6.006  19.604  0.00  0.00    +0.000 C 
ATOM     13  C   UNL     1       1.942   7.417  20.036  0.00  0.00    +0.000 C 
ENDBRANCH   1   4
BRANCH   1  20
ATOM     14  C   UNL     1       6.300   5.261  17.559  0.00  0.00    +0.000 A 
ATOM     15  C   UNL     1       7.226   4.417  16.923  0.00  0.00    +0.000 A 
ATOM     16  C   UNL     1       7.082   4.062  15.579  0.00  0.00    +0.000 A 
ATOM     17  C   UNL     1       6.004   4.535  14.840  0.00  0.00    +0.000 A 
ATOM     18  C   UNL     1       5.802   4.084  13.421  0.00  0.00    +0.000 C 
ATOM     19  C   UNL     1       5.087   5.399  15.459  0.00  0.00    +0.000 A 
ATOM     20  C   UNL     1       5.234   5.783  16.812  0.00  0.00    +0.000 A 
BRANCH  14  22
ATOM     21  C   UNL     1       7.696   5.810  19.409  0.00  0.00    +0.000 C 
ATOM     22  O   UNL     1       6.392   5.580  18.883  0.00  0.00    +0.000 OA
ENDBRANCH  14  22
ENDBRANCH   1  20
TORSDOF 3
ENDMDL
MODEL 8
REMARK VINA RESULT:      -6.4     10.830     13.018
REMARK  Name = 
REMARK  6 active torsions:
REMARK  status: ('A' for Active; 'I' for Inactive)
REMARK    1  A    between atoms: C_1  and  O_2
REMARK    2  A    between atoms: O_2  and  C_3
REMARK    3  A    between atoms: C_6  and  C_7
REMARK    4  A    between atoms: C_9  and  S_10
REMARK    5  A    between atoms: S_10  and  N_13
REMARK    6  A    between atoms: C_21  and  C_22
REMARK                            x       y       z     vdW  Elec       q    Type
REMARK                         _______ _______ _______ _____ _____    ______ ____
ROOT
ATOM      1  S   UNL     1      -4.439  13.270  23.577  0.00  0.00    +0.000 S 
ATOM      2  O   UNL     1      -4.915  12.093  24.278  0.00  0.00    +0.000 OA
ATOM      3  O   UNL     1      -4.189  14.478  24.341  0.00  0.00    +0.000 OA
ENDROOT
BRANCH   1   4
ATOM      4  N   UNL     1      -5.636  13.604  22.385  0.00  0.00    +0.000 N 
ATOM      5  C   UNL     1      -5.814  12.629  21.354  0.00  0.00    +0.000 A 
ATOM      6  C   UNL     1      -5.118  12.569  20.162  0.00  0.00    +0.000 A 
ATOM      7  C   UNL     1      -5.626  11.727  19.170  0.00  0.00    +0.000 A 
ATOM      8  C   UNL     1      -6.752  10.915  19.418  0.00  0.00    +0.000 A 
ATOM      9  C   UNL     1      -7.449  11.004  20.628  0.00  0.00    +0.000 A 
ATOM     10  C   UNL     1      -7.012  11.932  21.551  0.00  0.00    +0.000 A 
ATOM     11  C   UNL     1      -7.731  12.493  22.752  0.00  0.00    +0.000 C 
ATOM     12  C   UNL     1      -7.060  13.886  22.778  0.00  0.00    +0.000 C 
ATOM     13  C   UNL     1      -7.285  14.790  23.948  0.00  0.00    +0.000 C 
ENDBRANCH   1   4
BRANCH   1  20
ATOM     14  C   UNL     1      -2.182  13.611  21.914  0.00  0.00    +0.000 A 
ATOM     15  C   UNL     1      -0.938  13.180  21.422  0.00  0.00    +0.000 A 
ATOM     16  C   UNL     1      -0.380  11.964  21.824  0.00  0.00    +0.000 A 
ATOM     17  C   UNL     1      -1.046  11.152  22.734  0.00  0.00    +0.000 A 
ATOM     18  C   UNL     1      -0.408   9.886  23.232  0.00  0.00    +0.000 C 
ATOM     19  C   UNL     1      -2.301  11.563  23.213  0.00  0.00    +0.000 A 
ATOM     20  C   UNL     1      -2.887  12.780  22.797  0.00  0.00    +0.000 A 
BRANCH  14  22
ATOM     21  C   UNL     1      -1.823  15.838  21.149  0.00  0.00    +0.000 C 
ATOM     22  O   UNL     1      -2.722  14.818  21.576  0.00  0.00    +0.000 OA
ENDBRANCH  14  22
ENDBRANCH   1  20
TORSDOF 3
ENDMDL
MODEL 9
REMARK VINA RESULT:      -6.3      8.252     10.259
REMARK  Name = 
REMARK  6 active torsions:
REMARK  status: ('A' for Active; 'I' for Inactive)
REMARK    1  A    between atoms: C_1  and  O_2
REMARK    2  A    between atoms: O_2  and  C_3
REMARK    3  A    between atoms: C_6  and  C_7
REMARK    4  A    between atoms: C_9  and  S_10
REMARK    5  A    between atoms: S_10  and  N_13
REMARK    6  A    between atoms: C_21  and  C_22
REMARK                            x       y       z     vdW  Elec       q    Type
REMARK                         _______ _______ _______ _____ _____    ______ ____
ROOT
ATOM      1  S   UNL     1      -1.799  12.049  18.848  0.00  0.00    +0.000 S 
ATOM      2  O   UNL     1      -1.827  13.142  19.801  0.00  0.00    +0.000 OA
ATOM      3  O   UNL     1      -1.485  12.344  17.463  0.00  0.00    +0.000 OA
ENDROOT
BRANCH   1   4
ATOM      4  N   UNL     1      -3.365  11.337  18.923  0.00  0.00    +0.000 N 
ATOM      5  C   UNL     1      -4.457  12.205  19.243  0.00  0.00    +0.000 A 
ATOM      6  C   UNL     1      -4.902  12.519  20.514  0.00  0.00    +0.000 A 
ATOM      7  C   UNL     1      -6.145  13.146  20.616  0.00  0.00    +0.000 A 
ATOM      8  C   UNL     1      -6.865  13.514  19.461  0.00  0.00    +0.000 A 
ATOM      9  C   UNL     1      -6.403  13.173  18.186  0.00  0.00    +0.000 A 
ATOM     10  C   UNL     1      -5.235  12.441  18.104  0.00  0.00    +0.000 A 
ATOM     11  C   UNL     1      -4.686  11.649  16.945  0.00  0.00    +0.000 C 
ATOM     12  C   UNL     1      -3.924  10.575  17.753  0.00  0.00    +0.000 C 
ATOM     13  C   UNL     1      -3.005   9.632  17.044  0.00  0.00    +0.000 C 
ENDBRANCH   1   4
BRANCH   1  20
ATOM     14  C   UNL     1      -0.457  10.525  20.811  0.00  0.00    +0.000 A 
ATOM     15  C   UNL     1       0.492   9.558  21.184  0.00  0.00    +0.000 A 
ATOM     16  C   UNL     1       1.311   8.939  20.235  0.00  0.00    +0.000 A 
ATOM     17  C   UNL     1       1.196   9.266  18.889  0.00  0.00    +0.000 A 
ATOM     18  C   UNL     1       2.015   8.541  17.859  0.00  0.00    +0.000 C 
ATOM     19  C   UNL     1       0.268  10.250  18.509  0.00  0.00    +0.000 A 
ATOM     20  C   UNL     1      -0.550  10.898  19.463  0.00  0.00    +0.000 A 
BRANCH  14  22
ATOM     21  C   UNL     1      -1.112  10.778  23.087  0.00  0.00    +0.000 C 
ATOM     22  O   UNL     1      -1.302  11.104  21.713  0.00  0.00    +0.000 OA
ENDBRANCH  14  22
ENDBRANCH   1  20
TORSDOF 3
ENDMDL
