MODEL 1
REMARK VINA RESULT:      -7.6      0.000      0.000
REMARK  Name = 
REMARK  7 active torsions:
REMARK  status: ('A' for Active; 'I' for Inactive)
REMARK    1  A    between atoms: C_1  and  N_2
REMARK    2  A    between atoms: N_5  and  C_6
REMARK    3  A    between atoms: C_6  and  C_7
REMARK    4  A    between atoms: C_17  and  S_18
REMARK    5  A    between atoms: S_18  and  N_21
REMARK    6  A    between atoms: N_21  and  C_22
REMARK    7  A    between atoms: C_22  and  C_23
REMARK                            x       y       z     vdW  Elec       q    Type
REMARK                         _______ _______ _______ _____ _____    ______ ____
ROOT
ATOM      1  C   UNL     1       0.278   8.951  22.600  0.00  0.00    +0.000 C 
ATOM      2  N   UNL     1       0.534   9.094  21.173  0.00  0.00    +0.000 N 
ATOM      3  C   UNL     1      -0.120  10.114  20.491  0.00  0.00    +0.000 A 
ATOM      4  O   UNL     1      -1.006  10.783  21.028  0.00  0.00    +0.000 OA
ATOM      5  N   UNL     1       0.270  10.343  19.177  0.00  0.00    +0.000 N 
ATOM      6  C   UNL     1       1.176   9.563  18.478  0.00  0.00    +0.000 A 
ATOM      7  O   UNL     1       1.558   9.802  17.335  0.00  0.00    +0.000 OA
ATOM      8  C   UNL     1       1.677   8.360  19.160  0.00  0.00    +0.000 A 
ATOM      9  C   UNL     1       2.436   7.425  18.439  0.00  0.00    +0.000 A 
ATOM     10  C   UNL     1       2.882   6.271  19.078  0.00  0.00    +0.000 A 
ATOM     11  C   UNL     1       2.621   6.069  20.432  0.00  0.00    +0.000 A 
ATOM     12  C   UNL     1       1.874   7.015  21.144  0.00  0.00    +0.000 A 
ATOM     13  C   UNL     1       1.373   8.163  20.507  0.00  0.00    +0.000 A 
ENDROOT
BRANCH  10  14
ATOM     14  S   UNL     1       3.727   5.029  18.132  0.00  0.00    +0.000 S 
ATOM     15  O   UNL     1       4.217   5.665  16.935  0.00  0.00    +0.000 OA
ATOM     16  O   UNL     1       4.611   4.300  19.013  0.00  0.00    +0.000 OA
BRANCH  14  17
ATOM     17  N   UNL     1       2.441   4.023  17.656  0.00  0.00    +0.000 NA
ATOM     18  H   UNL     1       2.391   3.980  16.635  0.00  0.00    +0.000 HD
BRANCH  17  19
ATOM     19  C   UNL     1       2.283   2.746  18.381  0.00  0.00    +0.000 C 
ATOM     20  C   UNL     1       3.364   1.737  18.073  0.00  0.00    +0.000 C 
ATOM     21  C   UNL     1       1.787   2.717  19.809  0.00  0.00    +0.000 C 
ATOM     22  C   UNL     1       0.873   2.302  18.698  0.00  0.00    +0.000 C 
ENDBRANCH  17  19
ENDBRANCH  14  17
ENDBRANCH  10  14
BRANCH   5  23
ATOM     23  C   UNL     1      -0.295  11.503  18.495  0.00  0.00    +0.000 C 
BRANCH  23  24
ATOM     24  C   UNL     1      -1.673  11.221  17.951  0.00  0.00    +0.000 A 
ATOM     25  C   UNL     1      -1.880  10.322  16.902  0.00  0.00    +0.000 A 
ATOM     26  C   UNL     1      -3.160  10.155  16.380  0.00  0.00    +0.000 A 
ATOM     27  C   UNL     1      -4.196  10.896  16.924  0.00  0.00    +0.000 A 
ATOM     28  N   UNL     1      -4.041  11.758  17.950  0.00  0.00    +0.000 NA
ATOM     29  C   UNL     1      -2.788  11.900  18.439  0.00  0.00    +0.000 A 
ENDBRANCH  23  24
ENDBRANCH   5  23
TORSDOF 5
ENDMDL
MODEL 2
REMARK VINA RESULT:      -7.6      2.022      2.455
REMARK  Name = 
REMARK  7 active torsions:
REMARK  status: ('A' for Active; 'I' for Inactive)
REMARK    1  A    between atoms: C_1  and  N_2
REMARK    2  A    between atoms: N_5  and  C_6
REMARK    3  A    between atoms: C_6  and  C_7
REMARK    4  A    between atoms: C_17  and  S_18
REMARK    5  A    between atoms: S_18  and  N_21
REMARK    6  A    between atoms: N_21  and  C_22
REMARK    7  A    between atoms: C_22  and  C_23
REMARK                            x       y       z     vdW  Elec       q    Type
REMARK                         _______ _______ _______ _____ _____    ______ ____
ROOT
ATOM      1  C   UNL     1       0.596   8.428  22.447  0.00  0.00    +0.000 C 
ATOM      2  N   UNL     1       0.858   8.614  21.026  0.00  0.00    +0.000 N 
ATOM      3  C   UNL     1       0.234   9.677  20.381  0.00  0.00    +0.000 A 
ATOM      4  O   UNL     1      -0.631  10.352  20.942  0.00  0.00    +0.000 OA
ATOM      5  N   UNL     1       0.633   9.941  19.077  0.00  0.00    +0.000 N 
ATOM      6  C   UNL     1       1.516   9.160  18.349  0.00  0.00    +0.000 A 
ATOM      7  O   UNL     1       1.906   9.429  17.216  0.00  0.00    +0.000 OA
ATOM      8  C   UNL     1       1.981   7.919  18.988  0.00  0.00    +0.000 A 
ATOM      9  C   UNL     1       2.713   6.989  18.235  0.00  0.00    +0.000 A 
ATOM     10  C   UNL     1       3.124   5.800  18.831  0.00  0.00    +0.000 A 
ATOM     11  C   UNL     1       2.856   5.557  20.178  0.00  0.00    +0.000 A 
ATOM     12  C   UNL     1       2.136   6.499  20.923  0.00  0.00    +0.000 A 
ATOM     13  C   UNL     1       1.670   7.683  20.327  0.00  0.00    +0.000 A 
ENDROOT
BRANCH  10  14
ATOM     14  S   UNL     1       3.933   4.568  17.842  0.00  0.00    +0.000 S 
ATOM     15  O   UNL     1       4.826   3.844  18.710  0.00  0.00    +0.000 OA
ATOM     16  O   UNL     1       2.935   3.885  17.049  0.00  0.00    +0.000 OA
BRANCH  14  17
ATOM     17  N   UNL     1       4.908   5.524  16.829  0.00  0.00    +0.000 NA
ATOM     18  H   UNL     1       5.059   6.442  17.255  0.00  0.00    +0.000 HD
BRANCH  17  19
ATOM     19  C   UNL     1       6.087   4.874  16.222  0.00  0.00    +0.000 C 
ATOM     20  C   UNL     1       7.281   4.803  17.145  0.00  0.00    +0.000 C 
ATOM     21  C   UNL     1       5.934   3.684  15.302  0.00  0.00    +0.000 C 
ATOM     22  C   UNL     1       6.268   5.026  14.729  0.00  0.00    +0.000 C 
ENDBRANCH  17  19
ENDBRANCH  14  17
ENDBRANCH  10  14
BRANCH   5  23
ATOM     23  C   UNL     1       0.103  11.141  18.436  0.00  0.00    +0.000 C 
BRANCH  23  24
ATOM     24  C   UNL     1      -1.326  10.958  17.990  0.00  0.00    +0.000 A 
ATOM     25  C   UNL     1      -1.695   9.943  17.102  0.00  0.00    +0.000 A 
ATOM     26  C   UNL     1      -3.011   9.864  16.656  0.00  0.00    +0.000 A 
ATOM     27  C   UNL     1      -3.920  10.804  17.112  0.00  0.00    +0.000 A 
ATOM     28  N   UNL     1      -3.609  11.785  17.983  0.00  0.00    +0.000 NA
ATOM     29  C   UNL     1      -2.323  11.839  18.402  0.00  0.00    +0.000 A 
ENDBRANCH  23  24
ENDBRANCH   5  23
TORSDOF 5
ENDMDL
MODEL 3
REMARK VINA RESULT:      -7.5      2.074      2.798
REMARK  Name = 
REMARK  7 active torsions:
REMARK  status: ('A' for Active; 'I' for Inactive)
REMARK    1  A    between atoms: C_1  and  N_2
REMARK    2  A    between atoms: N_5  and  C_6
REMARK    3  A    between atoms: C_6  and  C_7
REMARK    4  A    between atoms: C_17  and  S_18
REMARK    5  A    between atoms: S_18  and  N_21
REMARK    6  A    between atoms: N_21  and  C_22
REMARK    7  A    between atoms: C_22  and  C_23
REMARK                            x       y       z     vdW  Elec       q    Type
REMARK                         _______ _______ _______ _____ _____    ______ ____
ROOT
ATOM      1  C   UNL     1       0.585   8.266  22.270  0.00  0.00    +0.000 C 
ATOM      2  N   UNL     1       0.865   8.637  20.889  0.00  0.00    +0.000 N 
ATOM      3  C   UNL     1       0.180   9.724  20.355  0.00  0.00    +0.000 A 
ATOM      4  O   UNL     1      -0.743  10.267  20.964  0.00  0.00    +0.000 OA
ATOM      5  N   UNL     1       0.588  10.168  19.103  0.00  0.00    +0.000 N 
ATOM      6  C   UNL     1       1.540   9.541  18.316  0.00  0.00    +0.000 A 
ATOM      7  O   UNL     1       1.935   9.969  17.235  0.00  0.00    +0.000 OA
ATOM      8  C   UNL     1       2.079   8.268  18.819  0.00  0.00    +0.000 A 
ATOM      9  C   UNL     1       2.892   7.487  17.984  0.00  0.00    +0.000 A 
ATOM     10  C   UNL     1       3.374   6.266  18.450  0.00  0.00    +0.000 A 
ATOM     11  C   UNL     1       3.094   5.847  19.750  0.00  0.00    +0.000 A 
ATOM     12  C   UNL     1       2.293   6.642  20.578  0.00  0.00    +0.000 A 
ATOM     13  C   UNL     1       1.756   7.854  20.111  0.00  0.00    +0.000 A 
ENDROOT
BRANCH  10  14
ATOM     14  S   UNL     1       4.291   5.219  17.348  0.00  0.00    +0.000 S 
ATOM     15  O   UNL     1       3.495   4.039  17.121  0.00  0.00    +0.000 OA
ATOM     16  O   UNL     1       4.778   6.021  16.249  0.00  0.00    +0.000 OA
BRANCH  14  17
ATOM     17  N   UNL     1       5.596   4.744  18.328  0.00  0.00    +0.000 NA
ATOM     18  H   UNL     1       5.506   3.756  18.574  0.00  0.00    +0.000 HD
BRANCH  17  19
ATOM     19  C   UNL     1       6.940   5.208  17.930  0.00  0.00    +0.000 C 
ATOM     20  C   UNL     1       7.501   4.479  16.731  0.00  0.00    +0.000 C 
ATOM     21  C   UNL     1       7.314   6.671  18.005  0.00  0.00    +0.000 C 
ATOM     22  C   UNL     1       7.849   5.716  19.025  0.00  0.00    +0.000 C 
ENDBRANCH  17  19
ENDBRANCH  14  17
ENDBRANCH  10  14
BRANCH   5  23
ATOM     23  C   UNL     1      -0.013  11.396  18.592  0.00  0.00    +0.000 C 
BRANCH  23  24
ATOM     24  C   UNL     1      -1.420  11.172  18.096  0.00  0.00    +0.000 A 
ATOM     25  C   UNL     1      -2.494  11.936  18.561  0.00  0.00    +0.000 A 
ATOM     26  C   UNL     1      -3.786  11.639  18.135  0.00  0.00    +0.000 A 
ATOM     27  C   UNL     1      -3.964  10.584  17.256  0.00  0.00    +0.000 A 
ATOM     28  N   UNL     1      -2.952   9.837  16.769  0.00  0.00    +0.000 NA
ATOM     29  C   UNL     1      -1.707  10.147  17.198  0.00  0.00    +0.000 A 
ENDBRANCH  23  24
ENDBRANCH   5  23
TORSDOF 5
ENDMDL
MODEL 4
REMARK VINA RESULT:      -7.4      2.587      3.933
REMARK  Name = 
REMARK  7 active torsions:
REMARK  status: ('A' for Active; 'I' for Inactive)
REMARK    1  A    between atoms: C_1  and  N_2
REMARK    2  A    between atoms: N_5  and  C_6
REMARK    3  A    between atoms: C_6  and  C_7
REMARK    4  A    between atoms: C_17  and  S_18
REMARK    5  A    between atoms: S_18  and  N_21
REMARK    6  A    between atoms: N_21  and  C_22
REMARK    7  A    between atoms: C_22  and  C_23
REMARK                            x       y       z     vdW  Elec       q    Type
REMARK                         _______ _______ _______ _____ _____    ______ ____
ROOT
ATOM      1  C   UNL     1      -0.078   8.889  22.429  0.00  0.00    +0.000 C 
ATOM      2  N   UNL     1       0.453   9.114  21.091  0.00  0.00    +0.000 N 
ATOM      3  C   UNL     1       0.111  10.296  20.443  0.00  0.00    +0.000 A 
ATOM      4  O   UNL     1      -0.735  11.064  20.907  0.00  0.00    +0.000 OA
ATOM      5  N   UNL     1       0.767  10.570  19.249  0.00  0.00    +0.000 N 
ATOM      6  C   UNL     1       1.643   9.705  18.615  0.00  0.00    +0.000 A 
ATOM      7  O   UNL     1       2.261   9.975  17.588  0.00  0.00    +0.000 OA
ATOM      8  C   UNL     1       1.807   8.372  19.216  0.00  0.00    +0.000 A 
ATOM      9  C   UNL     1       2.519   7.385  18.518  0.00  0.00    +0.000 A 
ATOM     10  C   UNL     1       2.645   6.114  19.073  0.00  0.00    +0.000 A 
ATOM     11  C   UNL     1       2.112   5.838  20.332  0.00  0.00    +0.000 A 
ATOM     12  C   UNL     1       1.415   6.836  21.024  0.00  0.00    +0.000 A 
ATOM     13  C   UNL     1       1.234   8.111  20.460  0.00  0.00    +0.000 A 
ENDROOT
BRANCH  10  14
ATOM     14  S   UNL     1       3.431   4.832  18.132  0.00  0.00    +0.000 S 
ATOM     15  O   UNL     1       4.211   4.045  19.053  0.00  0.00    +0.000 OA
ATOM     16  O   UNL     1       2.445   4.222  17.269  0.00  0.00    +0.000 OA
BRANCH  14  17
ATOM     17  N   UNL     1       4.537   5.720  17.194  0.00  0.00    +0.000 NA
ATOM     18  H   UNL     1       4.599   6.679  17.543  0.00  0.00    +0.000 HD
BRANCH  17  19
ATOM     19  C   UNL     1       5.810   5.057  16.848  0.00  0.00    +0.000 C 
ATOM     20  C   UNL     1       5.649   3.897  15.893  0.00  0.00    +0.000 C 
ATOM     21  C   UNL     1       7.078   5.857  16.654  0.00  0.00    +0.000 C 
ATOM     22  C   UNL     1       6.895   5.051  17.901  0.00  0.00    +0.000 C 
ENDBRANCH  17  19
ENDBRANCH  14  17
ENDBRANCH  10  14
BRANCH   5  23
ATOM     23  C   UNL     1       0.534  11.873  18.632  0.00  0.00    +0.000 C 
BRANCH  23  24
ATOM     24  C   UNL     1       1.627  12.857  18.963  0.00  0.00    +0.000 A 
ATOM     25  C   UNL     1       2.377  13.487  17.966  0.00  0.00    +0.000 A 
ATOM     26  C   UNL     1       3.429  14.326  18.321  0.00  0.00    +0.000 A 
ATOM     27  C   UNL     1       3.701  14.509  19.666  0.00  0.00    +0.000 A 
ATOM     28  N   UNL     1       2.989  13.936  20.658  0.00  0.00    +0.000 NA
ATOM     29  C   UNL     1       1.971  13.127  20.286  0.00  0.00    +0.000 A 
ENDBRANCH  23  24
ENDBRANCH   5  23
TORSDOF 5
ENDMDL
MODEL 5
REMARK VINA RESULT:      -7.4      2.687      4.056
REMARK  Name = 
REMARK  7 active torsions:
REMARK  status: ('A' for Active; 'I' for Inactive)
REMARK    1  A    between atoms: C_1  and  N_2
REMARK    2  A    between atoms: N_5  and  C_6
REMARK    3  A    between atoms: C_6  and  C_7
REMARK    4  A    between atoms: C_17  and  S_18
REMARK    5  A    between atoms: S_18  and  N_21
REMARK    6  A    between atoms: N_21  and  C_22
REMARK    7  A    between atoms: C_22  and  C_23
REMARK                            x       y       z     vdW  Elec       q    Type
REMARK                         _______ _______ _______ _____ _____    ______ ____
ROOT
ATOM      1  C   UNL     1       0.220   8.179  22.077  0.00  0.00    +0.000 C 
ATOM      2  N   UNL     1       0.725   8.632  20.788  0.00  0.00    +0.000 N 
ATOM      3  C   UNL     1       0.246   9.837  20.286  0.00  0.00    +0.000 A 
ATOM      4  O   UNL     1      -0.687  10.435  20.827  0.00  0.00    +0.000 OA
ATOM      5  N   UNL     1       0.868  10.336  19.148  0.00  0.00    +0.000 N 
ATOM      6  C   UNL     1       1.844   9.667  18.427  0.00  0.00    +0.000 A 
ATOM      7  O   UNL     1       2.429  10.136  17.454  0.00  0.00    +0.000 OA
ATOM      8  C   UNL     1       2.164   8.298  18.860  0.00  0.00    +0.000 A 
ATOM      9  C   UNL     1       2.992   7.499  18.058  0.00  0.00    +0.000 A 
ATOM     10  C   UNL     1       3.267   6.191  18.452  0.00  0.00    +0.000 A 
ATOM     11  C   UNL     1       2.767   5.698  19.657  0.00  0.00    +0.000 A 
ATOM     12  C   UNL     1       1.952   6.510  20.455  0.00  0.00    +0.000 A 
ATOM     13  C   UNL     1       1.622   7.816  20.051  0.00  0.00    +0.000 A 
ENDROOT
BRANCH  10  14
ATOM     14  S   UNL     1       4.204   5.140  17.373  0.00  0.00    +0.000 S 
ATOM     15  O   UNL     1       3.438   3.935  17.181  0.00  0.00    +0.000 OA
ATOM     16  O   UNL     1       4.665   5.925  16.250  0.00  0.00    +0.000 OA
BRANCH  14  17
ATOM     17  N   UNL     1       5.526   4.724  18.357  0.00  0.00    +0.000 NA
ATOM     18  H   UNL     1       5.458   3.742  18.636  0.00  0.00    +0.000 HD
BRANCH  17  19
ATOM     19  C   UNL     1       6.858   5.201  17.933  0.00  0.00    +0.000 C 
ATOM     20  C   UNL     1       7.399   4.485  16.718  0.00  0.00    +0.000 C 
ATOM     21  C   UNL     1       7.221   6.667  18.009  0.00  0.00    +0.000 C 
ATOM     22  C   UNL     1       7.786   5.710  19.012  0.00  0.00    +0.000 C 
ENDBRANCH  17  19
ENDBRANCH  14  17
ENDBRANCH  10  14
BRANCH   5  23
ATOM     23  C   UNL     1       0.483  11.669  18.695  0.00  0.00    +0.000 C 
BRANCH  23  24
ATOM     24  C   UNL     1       1.441  12.729  19.180  0.00  0.00    +0.000 A 
ATOM     25  C   UNL     1       2.199  13.498  18.293  0.00  0.00    +0.000 A 
ATOM     26  C   UNL     1       3.128  14.407  18.790  0.00  0.00    +0.000 A 
ATOM     27  C   UNL     1       3.272  14.519  20.163  0.00  0.00    +0.000 A 
ATOM     28  N   UNL     1       2.546  13.810  21.052  0.00  0.00    +0.000 NA
ATOM     29  C   UNL     1       1.649  12.935  20.542  0.00  0.00    +0.000 A 
ENDBRANCH  23  24
ENDBRANCH   5  23
TORSDOF 5
ENDMDL
MODEL 6
REMARK VINA RESULT:      -7.4      1.868      3.122
REMARK  Name = 
REMARK  7 active torsions:
REMARK  status: ('A' for Active; 'I' for Inactive)
REMARK    1  A    between atoms: C_1  and  N_2
REMARK    2  A    between atoms: N_5  and  C_6
REMARK    3  A    between atoms: C_6  and  C_7
REMARK    4  A    between atoms: C_17  and  S_18
REMARK    5  A    between atoms: S_18  and  N_21
REMARK    6  A    between atoms: N_21  and  C_22
REMARK    7  A    between atoms: C_22  and  C_23
REMARK                            x       y       z     vdW  Elec       q    Type
REMARK                         _______ _______ _______ _____ _____    ______ ____
ROOT
ATOM      1  C   UNL     1      -0.111   9.142  22.353  0.00  0.00    +0.000 C 
ATOM      2  N   UNL     1       0.392   9.329  20.998  0.00  0.00    +0.000 N 
ATOM      3  C   UNL     1      -0.015  10.462  20.302  0.00  0.00    +0.000 A 
ATOM      4  O   UNL     1      -0.890  11.210  20.743  0.00  0.00    +0.000 OA
ATOM      5  N   UNL     1       0.612  10.711  19.087  0.00  0.00    +0.000 N 
ATOM      6  C   UNL     1       1.520   9.859  18.480  0.00  0.00    +0.000 A 
ATOM      7  O   UNL     1       2.111  10.110  17.433  0.00  0.00    +0.000 OA
ATOM      8  C   UNL     1       1.755   8.565  19.139  0.00  0.00    +0.000 A 
ATOM      9  C   UNL     1       2.504   7.582  18.477  0.00  0.00    +0.000 A 
ATOM     10  C   UNL     1       2.698   6.345  19.088  0.00  0.00    +0.000 A 
ATOM     11  C   UNL     1       2.195   6.104  20.366  0.00  0.00    +0.000 A 
ATOM     12  C   UNL     1       1.460   7.098  21.022  0.00  0.00    +0.000 A 
ATOM     13  C   UNL     1       1.211   8.335  20.403  0.00  0.00    +0.000 A 
ENDROOT
BRANCH  10  14
ATOM     14  S   UNL     1       3.532   5.058  18.195  0.00  0.00    +0.000 S 
ATOM     15  O   UNL     1       4.029   5.641  16.974  0.00  0.00    +0.000 OA
ATOM     16  O   UNL     1       4.409   4.358  19.106  0.00  0.00    +0.000 OA
BRANCH  14  17
ATOM     17  N   UNL     1       2.238   4.045  17.758  0.00  0.00    +0.000 NA
ATOM     18  H   UNL     1       2.124   4.044  16.742  0.00  0.00    +0.000 HD
BRANCH  17  19
ATOM     19  C   UNL     1       2.151   2.736  18.436  0.00  0.00    +0.000 C 
ATOM     20  C   UNL     1       3.275   1.792  18.078  0.00  0.00    +0.000 C 
ATOM     21  C   UNL     1       1.676   2.630  19.868  0.00  0.00    +0.000 C 
ATOM     22  C   UNL     1       0.768   2.213  18.753  0.00  0.00    +0.000 C 
ENDBRANCH  17  19
ENDBRANCH  14  17
ENDBRANCH  10  14
BRANCH   5  23
ATOM     23  C   UNL     1       0.309  11.971  18.414  0.00  0.00    +0.000 C 
BRANCH  23  24
ATOM     24  C   UNL     1       1.236  13.079  18.848  0.00  0.00    +0.000 A 
ATOM     25  C   UNL     1       0.898  13.960  19.879  0.00  0.00    +0.000 A 
ATOM     26  C   UNL     1       1.750  15.016  20.190  0.00  0.00    +0.000 A 
ATOM     27  C   UNL     1       2.916  15.159  19.456  0.00  0.00    +0.000 A 
ATOM     28  N   UNL     1       3.288  14.320  18.469  0.00  0.00    +0.000 NA
ATOM     29  C   UNL     1       2.443  13.301  18.188  0.00  0.00    +0.000 A 
ENDBRANCH  23  24
ENDBRANCH   5  23
TORSDOF 5
ENDMDL
MODEL 7
REMARK VINA RESULT:      -7.4      2.283      3.418
REMARK  Name = 
REMARK  7 active torsions:
REMARK  status: ('A' for Active; 'I' for Inactive)
REMARK    1  A    between atoms: C_1  and  N_2
REMARK    2  A    between atoms: N_5  and  C_6
REMARK    3  A    between atoms: C_6  and  C_7
REMARK    4  A    between atoms: C_17  and  S_18
REMARK    5  A    between atoms: S_18  and  N_21
REMARK    6  A    between atoms: N_21  and  C_22
REMARK    7  A    between atoms: C_22  and  C_23
REMARK                            x       y       z     vdW  Elec       q    Type
REMARK                         _______ _______ _______ _____ _____    ______ ____
ROOT
ATOM      1  C   UNL     1       0.068   9.775  22.632  0.00  0.00    +0.000 C 
ATOM      2  N   UNL     1       0.483   9.881  21.239  0.00  0.00    +0.000 N 
ATOM      3  C   UNL     1       0.157  11.043  20.548  0.00  0.00    +0.000 A 
ATOM      4  O   UNL     1      -0.590  11.894  21.035  0.00  0.00    +0.000 OA
ATOM      5  N   UNL     1       0.712  11.198  19.284  0.00  0.00    +0.000 N 
ATOM      6  C   UNL     1       1.467  10.237  18.632  0.00  0.00    +0.000 A 
ATOM      7  O   UNL     1       2.001  10.402  17.537  0.00  0.00    +0.000 OA
ATOM      8  C   UNL     1       1.602   8.935  19.302  0.00  0.00    +0.000 A 
ATOM      9  C   UNL     1       2.181   7.861  18.610  0.00  0.00    +0.000 A 
ATOM     10  C   UNL     1       2.277   6.620  19.235  0.00  0.00    +0.000 A 
ATOM     11  C   UNL     1       1.850   6.458  20.552  0.00  0.00    +0.000 A 
ATOM     12  C   UNL     1       1.287   7.542  21.237  0.00  0.00    +0.000 A 
ATOM     13  C   UNL     1       1.135   8.790  20.608  0.00  0.00    +0.000 A 
ENDROOT
BRANCH  10  14
ATOM     14  S   UNL     1       2.887   5.231  18.313  0.00  0.00    +0.000 S 
ATOM     15  O   UNL     1       1.774   4.686  17.579  0.00  0.00    +0.000 OA
ATOM     16  O   UNL     1       4.110   5.621  17.647  0.00  0.00    +0.000 OA
BRANCH  14  17
ATOM     17  N   UNL     1       3.242   4.123  19.552  0.00  0.00    +0.000 NA
ATOM     18  H   UNL     1       3.403   4.621  20.431  0.00  0.00    +0.000 HD
BRANCH  17  19
ATOM     19  C   UNL     1       2.410   2.905  19.624  0.00  0.00    +0.000 C 
ATOM     20  C   UNL     1       2.892   1.788  18.729  0.00  0.00    +0.000 C 
ATOM     21  C   UNL     1       1.814   2.445  20.935  0.00  0.00    +0.000 C 
ATOM     22  C   UNL     1       0.937   3.091  19.909  0.00  0.00    +0.000 C 
ENDBRANCH  17  19
ENDBRANCH  14  17
ENDBRANCH  10  14
BRANCH   5  23
ATOM     23  C   UNL     1       0.505  12.475  18.606  0.00  0.00    +0.000 C 
BRANCH  23  24
ATOM     24  C   UNL     1       1.601  13.463  18.917  0.00  0.00    +0.000 A 
ATOM     25  C   UNL     1       2.762  13.543  18.143  0.00  0.00    +0.000 A 
ATOM     26  C   UNL     1       3.780  14.415  18.517  0.00  0.00    +0.000 A 
ATOM     27  C   UNL     1       3.606  15.182  19.657  0.00  0.00    +0.000 A 
ATOM     28  N   UNL     1       2.493  15.149  20.419  0.00  0.00    +0.000 NA
ATOM     29  C   UNL     1       1.518  14.295  20.032  0.00  0.00    +0.000 A 
ENDBRANCH  23  24
ENDBRANCH   5  23
TORSDOF 5
ENDMDL
MODEL 8
REMARK VINA RESULT:      -7.3      1.974      2.571
REMARK  Name = 
REMARK  7 active torsions:
REMARK  status: ('A' for Active; 'I' for Inactive)
REMARK    1  A    between atoms: C_1  and  N_2
REMARK    2  A    between atoms: N_5  and  C_6
REMARK    3  A    between atoms: C_6  and  C_7
REMARK    4  A    between atoms: C_17  and  S_18
REMARK    5  A    between atoms: S_18  and  N_21
REMARK    6  A    between atoms: N_21  and  C_22
REMARK    7  A    between atoms: C_22  and  C_23
REMARK                            x       y       z     vdW  Elec       q    Type
REMARK                         _______ _______ _______ _____ _____    ______ ____
ROOT
ATOM      1  C   UNL     1       0.393   8.555  22.500  0.00  0.00    +0.000 C 
ATOM      2  N   UNL     1       0.693   8.720  21.084  0.00  0.00    +0.000 N 
ATOM      3  C   UNL     1       0.109   9.789  20.414  0.00  0.00    +0.000 A 
ATOM      4  O   UNL     1      -0.754  10.490  20.946  0.00  0.00    +0.000 OA
ATOM      5  N   UNL     1       0.545  10.031  19.116  0.00  0.00    +0.000 N 
ATOM      6  C   UNL     1       1.426   9.221  18.418  0.00  0.00    +0.000 A 
ATOM      7  O   UNL     1       1.849   9.470  17.292  0.00  0.00    +0.000 OA
ATOM      8  C   UNL     1       1.847   7.977  19.080  0.00  0.00    +0.000 A 
ATOM      9  C   UNL     1       2.575   7.023  18.354  0.00  0.00    +0.000 A 
ATOM     10  C   UNL     1       2.944   5.831  18.972  0.00  0.00    +0.000 A 
ATOM     11  C   UNL     1       2.639   5.609  20.314  0.00  0.00    +0.000 A 
ATOM     12  C   UNL     1       1.924   6.575  21.033  0.00  0.00    +0.000 A 
ATOM     13  C   UNL     1       1.499   7.763  20.413  0.00  0.00    +0.000 A 
ENDROOT
BRANCH  10  14
ATOM     14  S   UNL     1       3.748   4.571  18.015  0.00  0.00    +0.000 S 
ATOM     15  O   UNL     1       4.605   3.837  18.911  0.00  0.00    +0.000 OA
ATOM     16  O   UNL     1       2.754   3.901  17.207  0.00  0.00    +0.000 OA
BRANCH  14  17
ATOM     17  N   UNL     1       4.766   5.494  17.014  0.00  0.00    +0.000 NA
ATOM     18  H   UNL     1       4.842   6.447  17.378  0.00  0.00    +0.000 HD
BRANCH  17  19
ATOM     19  C   UNL     1       6.019   4.857  16.559  0.00  0.00    +0.000 C 
ATOM     20  C   UNL     1       5.802   3.721  15.588  0.00  0.00    +0.000 C 
ATOM     21  C   UNL     1       7.260   5.679  16.295  0.00  0.00    +0.000 C 
ATOM     22  C   UNL     1       7.177   4.839  17.531  0.00  0.00    +0.000 C 
ENDBRANCH  17  19
ENDBRANCH  14  17
ENDBRANCH  10  14
BRANCH   5  23
ATOM     23  C   UNL     1       0.057  11.235  18.451  0.00  0.00    +0.000 C 
BRANCH  23  24
ATOM     24  C   UNL     1      -1.362  11.077  17.965  0.00  0.00    +0.000 A 
ATOM     25  C   UNL     1      -2.388  11.916  18.406  0.00  0.00    +0.000 A 
ATOM     26  C   UNL     1      -3.696  11.681  17.992  0.00  0.00    +0.000 A 
ATOM     27  C   UNL     1      -3.938  10.610  17.149  0.00  0.00    +0.000 A 
ATOM     28  N   UNL     1      -2.973   9.789  16.685  0.00  0.00    +0.000 NA
ATOM     29  C   UNL     1      -1.711  10.042  17.101  0.00  0.00    +0.000 A 
ENDBRANCH  23  24
ENDBRANCH   5  23
TORSDOF 5
ENDMDL
MODEL 9
REMARK VINA RESULT:      -7.3      1.287      1.430
REMARK  Name = 
REMARK  7 active torsions:
REMARK  status: ('A' for Active; 'I' for Inactive)
REMARK    1  A    between atoms: C_1  and  N_2
REMARK    2  A    between atoms: N_5  and  C_6
REMARK    3  A    between atoms: C_6  and  C_7
REMARK    4  A    between atoms: C_17  and  S_18
REMARK    5  A    between atoms: S_18  and  N_21
REMARK    6  A    between atoms: N_21  and  C_22
REMARK    7  A    between atoms: C_22  and  C_23
REMARK                            x       y       z     vdW  Elec       q    Type
REMARK                         _______ _______ _______ _____ _____    ______ ____
ROOT
ATOM      1  C   UNL     1      -0.301  10.097  23.002  0.00  0.00    +0.000 C 
ATOM      2  N   UNL     1      -0.110  10.114  21.558  0.00  0.00    +0.000 N 
ATOM      3  C   UNL     1      -0.815  11.057  20.818  0.00  0.00    +0.000 A 
ATOM      4  O   UNL     1      -1.689  11.758  21.332  0.00  0.00    +0.000 OA
ATOM      5  N   UNL     1      -0.487  11.173  19.472  0.00  0.00    +0.000 N 
ATOM      6  C   UNL     1       0.402  10.346  18.805  0.00  0.00    +0.000 A 
ATOM      7  O   UNL     1       0.729  10.487  17.629  0.00  0.00    +0.000 OA
ATOM      8  C   UNL     1       0.957   9.218  19.569  0.00  0.00    +0.000 A 
ATOM      9  C   UNL     1       1.702   8.235  18.901  0.00  0.00    +0.000 A 
ATOM     10  C   UNL     1       2.198   7.150  19.620  0.00  0.00    +0.000 A 
ATOM     11  C   UNL     1       2.002   7.067  20.997  0.00  0.00    +0.000 A 
ATOM     12  C   UNL     1       1.268   8.063  21.655  0.00  0.00    +0.000 A 
ATOM     13  C   UNL     1       0.716   9.140  20.940  0.00  0.00    +0.000 A 
ENDROOT
BRANCH  10  14
ATOM     14  S   UNL     1       3.026   5.841  18.752  0.00  0.00    +0.000 S 
ATOM     15  O   UNL     1       2.050   5.215  17.896  0.00  0.00    +0.000 OA
ATOM     16  O   UNL     1       4.271   6.352  18.225  0.00  0.00    +0.000 OA
BRANCH  14  17
ATOM     17  N   UNL     1       3.346   4.742  20.008  0.00  0.00    +0.000 NA
ATOM     18  H   UNL     1       3.451   5.244  20.893  0.00  0.00    +0.000 HD
BRANCH  17  19
ATOM     19  C   UNL     1       2.542   3.504  20.041  0.00  0.00    +0.000 C 
ATOM     20  C   UNL     1       3.006   2.454  19.060  0.00  0.00    +0.000 C 
ATOM     21  C   UNL     1       2.012   2.952  21.345  0.00  0.00    +0.000 C 
ATOM     22  C   UNL     1       1.079   3.640  20.399  0.00  0.00    +0.000 C 
ENDBRANCH  17  19
ENDBRANCH  14  17
ENDBRANCH  10  14
BRANCH   5  23
ATOM     23  C   UNL     1      -1.105  12.257  18.715  0.00  0.00    +0.000 C 
BRANCH  23  24
ATOM     24  C   UNL     1      -2.379  11.817  18.038  0.00  0.00    +0.000 A 
ATOM     25  C   UNL     1      -2.387  11.337  16.725  0.00  0.00    +0.000 A 
ATOM     26  C   UNL     1      -3.597  11.019  16.116  0.00  0.00    +0.000 A 
ATOM     27  C   UNL     1      -4.766  11.193  16.838  0.00  0.00    +0.000 A 
ATOM     28  N   UNL     1      -4.799  11.635  18.112  0.00  0.00    +0.000 NA
ATOM     29  C   UNL     1      -3.609  11.935  18.682  0.00  0.00    +0.000 A 
ENDBRANCH  23  24
ENDBRANCH   5  23
TORSDOF 5
ENDMDL
