MODEL 1
REMARK VINA RESULT:      -9.3      0.000      0.000
REMARK  Name = 
REMARK  5 active torsions:
REMARK  status: ('A' for Active; 'I' for Inactive)
REMARK    1  A    between atoms: O_1  and  C_2
REMARK    2  A    between atoms: C_6  and  C_7
REMARK    3  A    between atoms: N_13  and  C_14
REMARK    4  A    between atoms: C_14  and  C_15
REMARK    5  A    between atoms: C_16  and  C_17
REMARK                            x       y       z     vdW  Elec       q    Type
REMARK                         _______ _______ _______ _____ _____    ______ ____
ROOT
ATOM      1  C   UNL     1       5.016   4.999  17.081  0.00  0.00    +0.000 C 
ATOM      2  C   UNL     1       4.801   4.171  15.744  0.00  0.00    +0.000 C 
ATOM      3  C   UNL     1       6.103   3.846  14.962  0.00  0.00    +0.000 C 
ATOM      4  C   UNL     1       6.997   5.053  15.060  0.00  0.00    +0.000 C 
ATOM      5  C   UNL     1       7.248   5.382  16.579  0.00  0.00    +0.000 C 
ATOM      6  C   UNL     1       6.364   4.549  17.586  0.00  0.00    +0.000 C 
ATOM      7  N   UNL     1       6.783   6.759  16.765  0.00  0.00    +0.000 NA
ATOM      8  C   UNL     1       5.321   6.550  16.967  0.00  0.00    +0.000 C 
ENDROOT
BRANCH   1  13
ATOM      9  C   UNL     1       2.448   5.170  19.943  0.00  0.00    +0.000 A 
ATOM     10  C   UNL     1       1.465   4.287  19.469  0.00  0.00    +0.000 A 
ATOM     11  C   UNL     1       1.634   3.646  18.244  0.00  0.00    +0.000 A 
ATOM     12  C   UNL     1       2.783   3.877  17.489  0.00  0.00    +0.000 A 
ATOM     13  C   UNL     1       3.772   4.779  17.936  0.00  0.00    +0.000 A 
ATOM     14  C   UNL     1       3.591   5.423  19.173  0.00  0.00    +0.000 A 
BRANCH   9  15
ATOM     15  O   UNL     1       2.306   5.772  21.141  0.00  0.00    +0.000 OA
ATOM     16  H   UNL     1       2.452   6.721  21.256  0.00  0.00    +0.000 HD
ENDBRANCH   9  15
ENDBRANCH   1  13
BRANCH   7  17
ATOM     17  C   UNL     1       7.506   7.343  17.931  0.00  0.00    +0.000 C 
BRANCH  17  18
ATOM     18  C   UNL     1       8.147   8.685  17.720  0.00  0.00    +0.000 C 
ATOM     19  C   UNL     1       8.792   9.363  18.682  0.00  0.00    +0.000 C 
BRANCH  19  20
ATOM     20  C   UNL     1       9.271  10.771  18.514  0.00  0.00    +0.000 A 
ATOM     21  C   UNL     1      10.527  11.224  18.991  0.00  0.00    +0.000 A 
ATOM     22  C   UNL     1      10.942  12.537  18.766  0.00  0.00    +0.000 A 
ATOM     23  C   UNL     1      10.126  13.424  18.068  0.00  0.00    +0.000 A 
ATOM     24  C   UNL     1       8.885  12.994  17.587  0.00  0.00    +0.000 A 
ATOM     25  C   UNL     1       8.466  11.684  17.809  0.00  0.00    +0.000 A 
ENDBRANCH  19  20
ENDBRANCH  17  18
ENDBRANCH   7  17
TORSDOF 5
ENDMDL
MODEL 2
REMARK VINA RESULT:      -9.3      0.358      1.002
REMARK  Name = 
REMARK  5 active torsions:
REMARK  status: ('A' for Active; 'I' for Inactive)
REMARK    1  A    between atoms: O_1  and  C_2
REMARK    2  A    between atoms: C_6  and  C_7
REMARK    3  A    between atoms: N_13  and  C_14
REMARK    4  A    between atoms: C_14  and  C_15
REMARK    5  A    between atoms: C_16  and  C_17
REMARK                            x       y       z     vdW  Elec       q    Type
REMARK                         _______ _______ _______ _____ _____    ______ ____
ROOT
ATOM      1  C   UNL     1       4.993   4.996  17.136  0.00  0.00    +0.000 C 
ATOM      2  C   UNL     1       4.826   4.087  15.846  0.00  0.00    +0.000 C 
ATOM      3  C   UNL     1       6.149   3.772  15.095  0.00  0.00    +0.000 C 
ATOM      4  C   UNL     1       6.993   5.019  15.132  0.00  0.00    +0.000 C 
ATOM      5  C   UNL     1       7.213   5.441  16.632  0.00  0.00    +0.000 C 
ATOM      6  C   UNL     1       6.353   4.630  17.678  0.00  0.00    +0.000 C 
ATOM      7  N   UNL     1       6.691   6.806  16.737  0.00  0.00    +0.000 NA
ATOM      8  C   UNL     1       5.237   6.549  16.939  0.00  0.00    +0.000 C 
ENDROOT
BRANCH   1  13
ATOM      9  C   UNL     1       2.510   4.992  20.077  0.00  0.00    +0.000 A 
ATOM     10  C   UNL     1       1.436   4.286  19.515  0.00  0.00    +0.000 A 
ATOM     11  C   UNL     1       1.516   3.817  18.205  0.00  0.00    +0.000 A 
ATOM     12  C   UNL     1       2.668   4.045  17.454  0.00  0.00    +0.000 A 
ATOM     13  C   UNL     1       3.751   4.773  17.992  0.00  0.00    +0.000 A 
ATOM     14  C   UNL     1       3.658   5.244  19.313  0.00  0.00    +0.000 A 
BRANCH   9  15
ATOM     15  O   UNL     1       2.452   5.423  21.353  0.00  0.00    +0.000 OA
ATOM     16  H   UNL     1       3.059   5.097  22.031  0.00  0.00    +0.000 HD
ENDBRANCH   9  15
ENDBRANCH   1  13
BRANCH   7  17
ATOM     17  C   UNL     1       7.378   7.484  17.875  0.00  0.00    +0.000 C 
BRANCH  17  18
ATOM     18  C   UNL     1       8.138   8.738  17.550  0.00  0.00    +0.000 C 
ATOM     19  C   UNL     1       8.654   9.559  18.477  0.00  0.00    +0.000 C 
BRANCH  19  20
ATOM     20  C   UNL     1       9.253  10.891  18.152  0.00  0.00    +0.000 A 
ATOM     21  C   UNL     1       8.476  12.047  17.890  0.00  0.00    +0.000 A 
ATOM     22  C   UNL     1       9.089  13.275  17.637  0.00  0.00    +0.000 A 
ATOM     23  C   UNL     1      10.478  13.382  17.637  0.00  0.00    +0.000 A 
ATOM     24  C   UNL     1      11.261  12.253  17.897  0.00  0.00    +0.000 A 
ATOM     25  C   UNL     1      10.654  11.025  18.150  0.00  0.00    +0.000 A 
ENDBRANCH  19  20
ENDBRANCH  17  18
ENDBRANCH   7  17
TORSDOF 5
ENDMDL
MODEL 3
REMARK VINA RESULT:      -9.2      0.920      1.670
REMARK  Name = 
REMARK  5 active torsions:
REMARK  status: ('A' for Active; 'I' for Inactive)
REMARK    1  A    between atoms: O_1  and  C_2
REMARK    2  A    between atoms: C_6  and  C_7
REMARK    3  A    between atoms: N_13  and  C_14
REMARK    4  A    between atoms: C_14  and  C_15
REMARK    5  A    between atoms: C_16  and  C_17
REMARK                            x       y       z     vdW  Elec       q    Type
REMARK                         _______ _______ _______ _____ _____    ______ ____
ROOT
ATOM      1  C   UNL     1       5.034   5.010  17.182  0.00  0.00    +0.000 C 
ATOM      2  C   UNL     1       4.783   4.182  15.851  0.00  0.00    +0.000 C 
ATOM      3  C   UNL     1       6.063   3.860  15.033  0.00  0.00    +0.000 C 
ATOM      4  C   UNL     1       6.957   5.070  15.105  0.00  0.00    +0.000 C 
ATOM      5  C   UNL     1       7.250   5.398  16.616  0.00  0.00    +0.000 C 
ATOM      6  C   UNL     1       6.397   4.563  17.648  0.00  0.00    +0.000 C 
ATOM      7  N   UNL     1       6.787   6.774  16.817  0.00  0.00    +0.000 NA
ATOM      8  C   UNL     1       5.333   6.562  17.061  0.00  0.00    +0.000 C 
ENDROOT
BRANCH   1  13
ATOM      9  C   UNL     1       1.708   3.682  18.592  0.00  0.00    +0.000 A 
ATOM     10  C   UNL     1       1.581   4.464  19.750  0.00  0.00    +0.000 A 
ATOM     11  C   UNL     1       2.556   5.407  20.067  0.00  0.00    +0.000 A 
ATOM     12  C   UNL     1       3.657   5.579  19.229  0.00  0.00    +0.000 A 
ATOM     13  C   UNL     1       3.816   4.787  18.072  0.00  0.00    +0.000 A 
ATOM     14  C   UNL     1       2.828   3.836  17.763  0.00  0.00    +0.000 A 
BRANCH   9  15
ATOM     15  O   UNL     1       0.754   2.787  18.263  0.00  0.00    +0.000 OA
ATOM     16  H   UNL     1       0.589   2.530  17.345  0.00  0.00    +0.000 HD
ENDBRANCH   9  15
ENDBRANCH   1  13
BRANCH   7  17
ATOM     17  C   UNL     1       7.542   7.359  17.962  0.00  0.00    +0.000 C 
BRANCH  17  18
ATOM     18  C   UNL     1       8.160   8.710  17.740  0.00  0.00    +0.000 C 
ATOM     19  C   UNL     1       8.812   9.399  18.690  0.00  0.00    +0.000 C 
BRANCH  19  20
ATOM     20  C   UNL     1       9.267  10.812  18.513  0.00  0.00    +0.000 A 
ATOM     21  C   UNL     1       8.524  11.782  17.792  0.00  0.00    +0.000 A 
ATOM     22  C   UNL     1       8.976  13.099  17.697  0.00  0.00    +0.000 A 
ATOM     23  C   UNL     1      10.167  13.481  18.310  0.00  0.00    +0.000 A 
ATOM     24  C   UNL     1      10.912  12.539  19.027  0.00  0.00    +0.000 A 
ATOM     25  C   UNL     1      10.466  11.223  19.125  0.00  0.00    +0.000 A 
ENDBRANCH  19  20
ENDBRANCH  17  18
ENDBRANCH   7  17
TORSDOF 5
ENDMDL
MODEL 4
REMARK VINA RESULT:      -9.1      0.969      1.384
REMARK  Name = 
REMARK  5 active torsions:
REMARK  status: ('A' for Active; 'I' for Inactive)
REMARK    1  A    between atoms: O_1  and  C_2
REMARK    2  A    between atoms: C_6  and  C_7
REMARK    3  A    between atoms: N_13  and  C_14
REMARK    4  A    between atoms: C_14  and  C_15
REMARK    5  A    between atoms: C_16  and  C_17
REMARK                            x       y       z     vdW  Elec       q    Type
REMARK                         _______ _______ _______ _____ _____    ______ ____
ROOT
ATOM      1  C   UNL     1       5.005   5.036  17.246  0.00  0.00    +0.000 C 
ATOM      2  C   UNL     1       4.811   4.149  15.944  0.00  0.00    +0.000 C 
ATOM      3  C   UNL     1       6.113   3.877  15.142  0.00  0.00    +0.000 C 
ATOM      4  C   UNL     1       6.933   5.140  15.176  0.00  0.00    +0.000 C 
ATOM      5  C   UNL     1       7.197   5.536  16.676  0.00  0.00    +0.000 C 
ATOM      6  C   UNL     1       6.389   4.687  17.733  0.00  0.00    +0.000 C 
ATOM      7  N   UNL     1       6.652   6.888  16.828  0.00  0.00    +0.000 NA
ATOM      8  C   UNL     1       5.211   6.597  17.073  0.00  0.00    +0.000 C 
ENDROOT
BRANCH   1  13
ATOM      9  C   UNL     1       1.683   3.660  18.620  0.00  0.00    +0.000 A 
ATOM     10  C   UNL     1       1.584   4.366  19.828  0.00  0.00    +0.000 A 
ATOM     11  C   UNL     1       2.575   5.275  20.190  0.00  0.00    +0.000 A 
ATOM     12  C   UNL     1       3.666   5.487  19.348  0.00  0.00    +0.000 A 
ATOM     13  C   UNL     1       3.797   4.770  18.139  0.00  0.00    +0.000 A 
ATOM     14  C   UNL     1       2.792   3.853  17.785  0.00  0.00    +0.000 A 
BRANCH   9  15
ATOM     15  O   UNL     1       0.713   2.800  18.249  0.00  0.00    +0.000 OA
ATOM     16  H   UNL     1      -0.201   3.087  18.116  0.00  0.00    +0.000 HD
ENDBRANCH   9  15
ENDBRANCH   1  13
BRANCH   7  17
ATOM     17  C   UNL     1       7.364   7.556  17.955  0.00  0.00    +0.000 C 
BRANCH  17  18
ATOM     18  C   UNL     1       8.092   8.829  17.630  0.00  0.00    +0.000 C 
ATOM     19  C   UNL     1       8.787   9.542  18.530  0.00  0.00    +0.000 C 
BRANCH  19  20
ATOM     20  C   UNL     1       9.358  10.894  18.242  0.00  0.00    +0.000 A 
ATOM     21  C   UNL     1      10.748  11.171  18.270  0.00  0.00    +0.000 A 
ATOM     22  C   UNL     1      11.228  12.441  17.948  0.00  0.00    +0.000 A 
ATOM     23  C   UNL     1      10.346  13.459  17.593  0.00  0.00    +0.000 A 
ATOM     24  C   UNL     1       8.971  13.203  17.557  0.00  0.00    +0.000 A 
ATOM     25  C   UNL     1       8.486  11.938  17.878  0.00  0.00    +0.000 A 
ENDBRANCH  19  20
ENDBRANCH  17  18
ENDBRANCH   7  17
TORSDOF 5
ENDMDL
MODEL 5
REMARK VINA RESULT:      -9.0      1.266      1.541
REMARK  Name = 
REMARK  5 active torsions:
REMARK  status: ('A' for Active; 'I' for Inactive)
REMARK    1  A    between atoms: O_1  and  C_2
REMARK    2  A    between atoms: C_6  and  C_7
REMARK    3  A    between atoms: N_13  and  C_14
REMARK    4  A    between atoms: C_14  and  C_15
REMARK    5  A    between atoms: C_16  and  C_17
REMARK                            x       y       z     vdW  Elec       q    Type
REMARK                         _______ _______ _______ _____ _____    ______ ____
ROOT
ATOM      1  C   UNL     1       5.105   4.857  16.674  0.00  0.00    +0.000 C 
ATOM      2  C   UNL     1       4.908   4.195  15.244  0.00  0.00    +0.000 C 
ATOM      3  C   UNL     1       6.222   3.953  14.453  0.00  0.00    +0.000 C 
ATOM      4  C   UNL     1       7.123   5.132  14.709  0.00  0.00    +0.000 C 
ATOM      5  C   UNL     1       7.348   5.275  16.260  0.00  0.00    +0.000 C 
ATOM      6  C   UNL     1       6.440   4.337  17.146  0.00  0.00    +0.000 C 
ATOM      7  N   UNL     1       6.890   6.625  16.600  0.00  0.00    +0.000 NA
ATOM      8  C   UNL     1       5.424   6.407  16.751  0.00  0.00    +0.000 C 
ENDROOT
BRANCH   1  13
ATOM      9  C   UNL     1       2.114   3.021  18.256  0.00  0.00    +0.000 A 
ATOM     10  C   UNL     1       1.495   4.073  18.948  0.00  0.00    +0.000 A 
ATOM     11  C   UNL     1       2.036   5.356  18.901  0.00  0.00    +0.000 A 
ATOM     12  C   UNL     1       3.192   5.597  18.160  0.00  0.00    +0.000 A 
ATOM     13  C   UNL     1       3.844   4.548  17.475  0.00  0.00    +0.000 A 
ATOM     14  C   UNL     1       3.291   3.257  17.532  0.00  0.00    +0.000 A 
BRANCH   9  15
ATOM     15  O   UNL     1       1.580   1.784  18.273  0.00  0.00    +0.000 OA
ATOM     16  H   UNL     1       1.969   1.052  17.773  0.00  0.00    +0.000 HD
ENDBRANCH   9  15
ENDBRANCH   1  13
BRANCH   7  17
ATOM     17  C   UNL     1       7.596   7.060  17.840  0.00  0.00    +0.000 C 
BRANCH  17  18
ATOM     18  C   UNL     1       8.052   8.490  17.887  0.00  0.00    +0.000 C 
ATOM     19  C   UNL     1       8.844   8.990  18.849  0.00  0.00    +0.000 C 
BRANCH  19  20
ATOM     20  C   UNL     1       9.148  10.448  18.986  0.00  0.00    +0.000 A 
ATOM     21  C   UNL     1       9.644  11.027  20.181  0.00  0.00    +0.000 A 
ATOM     22  C   UNL     1       9.953  12.387  20.239  0.00  0.00    +0.000 A 
ATOM     23  C   UNL     1       9.779  13.197  19.120  0.00  0.00    +0.000 A 
ATOM     24  C   UNL     1       9.293  12.642  17.930  0.00  0.00    +0.000 A 
ATOM     25  C   UNL     1       8.982  11.286  17.868  0.00  0.00    +0.000 A 
ENDBRANCH  19  20
ENDBRANCH  17  18
ENDBRANCH   7  17
TORSDOF 5
ENDMDL
MODEL 6
REMARK VINA RESULT:      -8.8      2.686      4.651
REMARK  Name = 
REMARK  5 active torsions:
REMARK  status: ('A' for Active; 'I' for Inactive)
REMARK    1  A    between atoms: O_1  and  C_2
REMARK    2  A    between atoms: C_6  and  C_7
REMARK    3  A    between atoms: N_13  and  C_14
REMARK    4  A    between atoms: C_14  and  C_15
REMARK    5  A    between atoms: C_16  and  C_17
REMARK                            x       y       z     vdW  Elec       q    Type
REMARK                         _______ _______ _______ _____ _____    ______ ____
ROOT
ATOM      1  C   UNL     1       6.050   5.126  15.872  0.00  0.00    +0.000 C 
ATOM      2  C   UNL     1       5.366   3.862  16.546  0.00  0.00    +0.000 C 
ATOM      3  C   UNL     1       4.490   4.181  17.788  0.00  0.00    +0.000 C 
ATOM      4  C   UNL     1       5.192   5.263  18.566  0.00  0.00    +0.000 C 
ATOM      5  C   UNL     1       5.414   6.505  17.625  0.00  0.00    +0.000 C 
ATOM      6  C   UNL     1       5.071   6.250  16.106  0.00  0.00    +0.000 C 
ATOM      7  N   UNL     1       6.861   6.740  17.620  0.00  0.00    +0.000 NA
ATOM      8  C   UNL     1       7.311   5.771  16.582  0.00  0.00    +0.000 C 
ENDROOT
BRANCH   1  13
ATOM      9  C   UNL     1       6.136   3.309  12.479  0.00  0.00    +0.000 A 
ATOM     10  C   UNL     1       7.164   4.010  11.831  0.00  0.00    +0.000 A 
ATOM     11  C   UNL     1       7.820   5.052  12.483  0.00  0.00    +0.000 A 
ATOM     12  C   UNL     1       7.458   5.396  13.784  0.00  0.00    +0.000 A 
ATOM     13  C   UNL     1       6.411   4.720  14.446  0.00  0.00    +0.000 A 
ATOM     14  C   UNL     1       5.754   3.672  13.779  0.00  0.00    +0.000 A 
BRANCH   9  15
ATOM     15  O   UNL     1       5.517   2.281  11.866  0.00  0.00    +0.000 OA
ATOM     16  H   UNL     1       5.309   1.459  12.331  0.00  0.00    +0.000 HD
ENDBRANCH   9  15
ENDBRANCH   1  13
BRANCH   7  17
ATOM     17  C   UNL     1       7.100   8.176  17.293  0.00  0.00    +0.000 C 
BRANCH  17  18
ATOM     18  C   UNL     1       8.236   8.848  18.009  0.00  0.00    +0.000 C 
ATOM     19  C   UNL     1       8.296  10.169  18.239  0.00  0.00    +0.000 C 
BRANCH  19  20
ATOM     20  C   UNL     1       9.506  10.851  18.794  0.00  0.00    +0.000 A 
ATOM     21  C   UNL     1       9.656  11.170  20.167  0.00  0.00    +0.000 A 
ATOM     22  C   UNL     1      10.827  11.767  20.636  0.00  0.00    +0.000 A 
ATOM     23  C   UNL     1      11.869  12.059  19.759  0.00  0.00    +0.000 A 
ATOM     24  C   UNL     1      11.740  11.749  18.401  0.00  0.00    +0.000 A 
ATOM     25  C   UNL     1      10.573  11.154  17.928  0.00  0.00    +0.000 A 
ENDBRANCH  19  20
ENDBRANCH  17  18
ENDBRANCH   7  17
TORSDOF 5
ENDMDL
MODEL 7
REMARK VINA RESULT:      -8.6      1.196      1.368
REMARK  Name = 
REMARK  5 active torsions:
REMARK  status: ('A' for Active; 'I' for Inactive)
REMARK    1  A    between atoms: O_1  and  C_2
REMARK    2  A    between atoms: C_6  and  C_7
REMARK    3  A    between atoms: N_13  and  C_14
REMARK    4  A    between atoms: C_14  and  C_15
REMARK    5  A    between atoms: C_16  and  C_17
REMARK                            x       y       z     vdW  Elec       q    Type
REMARK                         _______ _______ _______ _____ _____    ______ ____
ROOT
ATOM      1  C   UNL     1       5.069   5.221  17.631  0.00  0.00    +0.000 C 
ATOM      2  C   UNL     1       4.529   4.429  16.366  0.00  0.00    +0.000 C 
ATOM      3  C   UNL     1       5.624   3.988  15.356  0.00  0.00    +0.000 C 
ATOM      4  C   UNL     1       6.631   5.104  15.273  0.00  0.00    +0.000 C 
ATOM      5  C   UNL     1       7.193   5.394  16.714  0.00  0.00    +0.000 C 
ATOM      6  C   UNL     1       6.440   4.640  17.878  0.00  0.00    +0.000 C 
ATOM      7  N   UNL     1       6.904   6.807  16.972  0.00  0.00    +0.000 NA
ATOM      8  C   UNL     1       5.494   6.736  17.448  0.00  0.00    +0.000 C 
ENDROOT
BRANCH   1  13
ATOM      9  C   UNL     1       2.769   3.862  20.401  0.00  0.00    +0.000 A 
ATOM     10  C   UNL     1       1.964   4.984  20.650  0.00  0.00    +0.000 A 
ATOM     11  C   UNL     1       2.161   6.160  19.930  0.00  0.00    +0.000 A 
ATOM     12  C   UNL     1       3.158   6.221  18.956  0.00  0.00    +0.000 A 
ATOM     13  C   UNL     1       3.994   5.112  18.707  0.00  0.00    +0.000 A 
ATOM     14  C   UNL     1       3.787   3.931  19.441  0.00  0.00    +0.000 A 
BRANCH   9  15
ATOM     15  O   UNL     1       2.564   2.711  21.073  0.00  0.00    +0.000 OA
ATOM     16  H   UNL     1       2.465   1.864  20.618  0.00  0.00    +0.000 HD
ENDBRANCH   9  15
ENDBRANCH   1  13
BRANCH   7  17
ATOM     17  C   UNL     1       7.887   7.309  17.976  0.00  0.00    +0.000 C 
BRANCH  17  18
ATOM     18  C   UNL     1       8.127   8.792  17.998  0.00  0.00    +0.000 C 
ATOM     19  C   UNL     1       9.000   9.395  18.820  0.00  0.00    +0.000 C 
BRANCH  19  20
ATOM     20  C   UNL     1       9.104  10.881  18.959  0.00  0.00    +0.000 A 
ATOM     21  C   UNL     1       9.490  11.521  20.164  0.00  0.00    +0.000 A 
ATOM     22  C   UNL     1       9.616  12.909  20.224  0.00  0.00    +0.000 A 
ATOM     23  C   UNL     1       9.362  13.689  19.098  0.00  0.00    +0.000 A 
ATOM     24  C   UNL     1       8.982  13.074  17.900  0.00  0.00    +0.000 A 
ATOM     25  C   UNL     1       8.856  11.689  17.835  0.00  0.00    +0.000 A 
ENDBRANCH  19  20
ENDBRANCH  17  18
ENDBRANCH   7  17
TORSDOF 5
ENDMDL
MODEL 8
REMARK VINA RESULT:      -8.5      1.393      1.817
REMARK  Name = 
REMARK  5 active torsions:
REMARK  status: ('A' for Active; 'I' for Inactive)
REMARK    1  A    between atoms: O_1  and  C_2
REMARK    2  A    between atoms: C_6  and  C_7
REMARK    3  A    between atoms: N_13  and  C_14
REMARK    4  A    between atoms: C_14  and  C_15
REMARK    5  A    between atoms: C_16  and  C_17
REMARK                            x       y       z     vdW  Elec       q    Type
REMARK                         _______ _______ _______ _____ _____    ______ ____
ROOT
ATOM      1  C   UNL     1       5.302   4.535  16.834  0.00  0.00    +0.000 C 
ATOM      2  C   UNL     1       4.948   3.992  15.386  0.00  0.00    +0.000 C 
ATOM      3  C   UNL     1       6.109   4.075  14.357  0.00  0.00    +0.000 C 
ATOM      4  C   UNL     1       6.837   5.369  14.606  0.00  0.00    +0.000 C 
ATOM      5  C   UNL     1       7.327   5.399  16.102  0.00  0.00    +0.000 C 
ATOM      6  C   UNL     1       6.770   4.227  17.000  0.00  0.00    +0.000 C 
ATOM      7  N   UNL     1       6.728   6.601  16.688  0.00  0.00    +0.000 NA
ATOM      8  C   UNL     1       5.373   6.103  17.057  0.00  0.00    +0.000 C 
ENDROOT
BRANCH   1  13
ATOM      9  C   UNL     1       2.022   3.233  18.370  0.00  0.00    +0.000 A 
ATOM     10  C   UNL     1       2.469   2.815  19.632  0.00  0.00    +0.000 A 
ATOM     11  C   UNL     1       3.810   2.956  19.981  0.00  0.00    +0.000 A 
ATOM     12  C   UNL     1       4.710   3.518  19.076  0.00  0.00    +0.000 A 
ATOM     13  C   UNL     1       4.286   3.923  17.792  0.00  0.00    +0.000 A 
ATOM     14  C   UNL     1       2.931   3.774  17.450  0.00  0.00    +0.000 A 
BRANCH   9  15
ATOM     15  O   UNL     1       0.720   3.127  18.036  0.00  0.00    +0.000 OA
ATOM     16  H   UNL     1       0.438   2.946  17.129  0.00  0.00    +0.000 HD
ENDBRANCH   9  15
ENDBRANCH   1  13
BRANCH   7  17
ATOM     17  C   UNL     1       7.577   7.035  17.835  0.00  0.00    +0.000 C 
BRANCH  17  18
ATOM     18  C   UNL     1       7.944   8.490  17.886  0.00  0.00    +0.000 C 
ATOM     19  C   UNL     1       8.855   9.001  18.729  0.00  0.00    +0.000 C 
BRANCH  19  20
ATOM     20  C   UNL     1       9.086  10.470  18.896  0.00  0.00    +0.000 A 
ATOM     21  C   UNL     1       8.919  11.406  17.844  0.00  0.00    +0.000 A 
ATOM     22  C   UNL     1       9.105  12.770  18.069  0.00  0.00    +0.000 A 
ATOM     23  C   UNL     1       9.458  13.234  19.334  0.00  0.00    +0.000 A 
ATOM     24  C   UNL     1       9.625  12.326  20.385  0.00  0.00    +0.000 A 
ATOM     25  C   UNL     1       9.441  10.962  20.166  0.00  0.00    +0.000 A 
ENDBRANCH  19  20
ENDBRANCH  17  18
ENDBRANCH   7  17
TORSDOF 5
ENDMDL
MODEL 9
REMARK VINA RESULT:      -8.4      4.837      6.590
REMARK  Name = 
REMARK  5 active torsions:
REMARK  status: ('A' for Active; 'I' for Inactive)
REMARK    1  A    between atoms: O_1  and  C_2
REMARK    2  A    between atoms: C_6  and  C_7
REMARK    3  A    between atoms: N_13  and  C_14
REMARK    4  A    between atoms: C_14  and  C_15
REMARK    5  A    between atoms: C_16  and  C_17
REMARK                            x       y       z     vdW  Elec       q    Type
REMARK                         _______ _______ _______ _____ _____    ______ ____
ROOT
ATOM      1  C   UNL     1       2.470   5.278  19.423  0.00  0.00    +0.000 C 
ATOM      2  C   UNL     1       1.198   4.414  19.814  0.00  0.00    +0.000 C 
ATOM      3  C   UNL     1       1.513   2.974  20.302  0.00  0.00    +0.000 C 
ATOM      4  C   UNL     1       2.646   2.453  19.458  0.00  0.00    +0.000 C 
ATOM      5  C   UNL     1       3.870   3.435  19.584  0.00  0.00    +0.000 C 
ATOM      6  C   UNL     1       3.556   4.782  20.345  0.00  0.00    +0.000 C 
ATOM      7  N   UNL     1       4.167   3.870  18.217  0.00  0.00    +0.000 NA
ATOM      8  C   UNL     1       3.190   4.981  18.043  0.00  0.00    +0.000 C 
ENDROOT
BRANCH   1  13
ATOM      9  C   UNL     1       1.769   8.939  18.464  0.00  0.00    +0.000 A 
ATOM     10  C   UNL     1       1.255   9.435  19.672  0.00  0.00    +0.000 A 
ATOM     11  C   UNL     1       1.141   8.597  20.779  0.00  0.00    +0.000 A 
ATOM     12  C   UNL     1       1.542   7.265  20.689  0.00  0.00    +0.000 A 
ATOM     13  C   UNL     1       2.039   6.740  19.477  0.00  0.00    +0.000 A 
ATOM     14  C   UNL     1       2.149   7.594  18.365  0.00  0.00    +0.000 A 
BRANCH   9  15
ATOM     15  O   UNL     1       1.910   9.751  17.397  0.00  0.00    +0.000 OA
ATOM     16  H   UNL     1       1.497   9.553  16.545  0.00  0.00    +0.000 HD
ENDBRANCH   9  15
ENDBRANCH   1  13
BRANCH   7  17
ATOM     17  C   UNL     1       5.602   4.274  18.156  0.00  0.00    +0.000 C 
BRANCH  17  18
ATOM     18  C   UNL     1       6.207   4.403  16.788  0.00  0.00    +0.000 C 
ATOM     19  C   UNL     1       5.502   4.310  15.649  0.00  0.00    +0.000 C 
BRANCH  19  20
ATOM     20  C   UNL     1       6.134   4.261  14.294  0.00  0.00    +0.000 A 
ATOM     21  C   UNL     1       5.652   3.441  13.242  0.00  0.00    +0.000 A 
ATOM     22  C   UNL     1       6.254   3.470  11.984  0.00  0.00    +0.000 A 
ATOM     23  C   UNL     1       7.341   4.307  11.742  0.00  0.00    +0.000 A 
ATOM     24  C   UNL     1       7.829   5.125  12.766  0.00  0.00    +0.000 A 
ATOM     25  C   UNL     1       7.232   5.100  14.025  0.00  0.00    +0.000 A 
ENDBRANCH  19  20
ENDBRANCH  17  18
ENDBRANCH   7  17
TORSDOF 5
ENDMDL
