MODEL 1
REMARK VINA RESULT:      -5.8      0.000      0.000
REMARK  Name = 
REMARK  9 active torsions:
REMARK  status: ('A' for Active; 'I' for Inactive)
REMARK    1  A    between atoms: C_1  and  C_2
REMARK    2  A    between atoms: C_2  and  C_3
REMARK    3  A    between atoms: C_3  and  N_4
REMARK    4  A    between atoms: N_4  and  C_5
REMARK    5  A    between atoms: C_5  and  C_6
REMARK    6  A    between atoms: C_5  and  C_7
REMARK    7  A    between atoms: C_7  and  C_8
REMARK    8  A    between atoms: C_11  and  O_12
REMARK    9  A    between atoms: C_13  and  O_14
REMARK                            x       y       z     vdW  Elec       q    Type
REMARK                         _______ _______ _______ _____ _____    ______ ____
ROOT
ATOM      1  C   UNL     1       4.936   5.420  18.283  0.00  0.00    +0.000 A 
ATOM      2  C   UNL     1       4.524   6.109  17.125  0.00  0.00    +0.000 A 
ATOM      3  C   UNL     1       5.319   6.098  15.977  0.00  0.00    +0.000 A 
ATOM      4  C   UNL     1       6.544   5.414  15.970  0.00  0.00    +0.000 A 
ATOM      5  C   UNL     1       6.951   4.700  17.113  0.00  0.00    +0.000 A 
ATOM      6  C   UNL     1       6.128   4.676  18.248  0.00  0.00    +0.000 A 
ENDROOT
BRANCH   4   7
ATOM      7  O   UNL     1       7.338   5.451  14.881  0.00  0.00    +0.000 OA
ATOM      8  H   UNL     1       7.066   5.075  14.031  0.00  0.00    +0.000 HD
ENDBRANCH   4   7
BRANCH   5   9
ATOM      9  O   UNL     1       8.142   4.074  17.163  0.00  0.00    +0.000 OA
ATOM     10  H   UNL     1       8.917   4.392  16.678  0.00  0.00    +0.000 HD
ENDBRANCH   5   9
BRANCH   1  11
ATOM     11  C   UNL     1       4.162   5.540  19.576  0.00  0.00    +0.000 C 
BRANCH  11  12
ATOM     12  C   UNL     1       2.618   5.300  19.451  0.00  0.00    +0.000 C 
ATOM     13  C   UNL     1       1.762   6.122  20.431  0.00  0.00    +0.000 C 
BRANCH  12  14
ATOM     14  N   UNL     1       2.241   3.857  19.445  0.00  0.00    +0.000 NA
ATOM     15  H   UNL     1       3.099   3.282  19.622  0.00  0.00    +0.000 HD
BRANCH  14  16
ATOM     16  C   UNL     1       1.615   3.364  18.204  0.00  0.00    +0.000 C 
BRANCH  16  18
ATOM     17  C   UNL     1       3.539   1.770  18.255  0.00  0.00    +0.000 C 
ATOM     18  C   UNL     1       2.589   2.558  17.344  0.00  0.00    +0.000 C 
ENDBRANCH  16  18
ENDBRANCH  14  16
ENDBRANCH  12  14
ENDBRANCH  11  12
ENDBRANCH   1  11
TORSDOF 7
ENDMDL
MODEL 2
REMARK VINA RESULT:      -5.8      3.461      5.596
REMARK  Name = 
REMARK  9 active torsions:
REMARK  status: ('A' for Active; 'I' for Inactive)
REMARK    1  A    between atoms: C_1  and  C_2
REMARK    2  A    between atoms: C_2  and  C_3
REMARK    3  A    between atoms: C_3  and  N_4
REMARK    4  A    between atoms: N_4  and  C_5
REMARK    5  A    between atoms: C_5  and  C_6
REMARK    6  A    between atoms: C_5  and  C_7
REMARK    7  A    between atoms: C_7  and  C_8
REMARK    8  A    between atoms: C_11  and  O_12
REMARK    9  A    between atoms: C_13  and  O_14
REMARK                            x       y       z     vdW  Elec       q    Type
REMARK                         _______ _______ _______ _____ _____    ______ ____
ROOT
ATOM      1  C   UNL     1       3.939   4.216  17.879  0.00  0.00    +0.000 A 
ATOM      2  C   UNL     1       2.863   3.446  17.395  0.00  0.00    +0.000 A 
ATOM      3  C   UNL     1       1.687   3.328  18.139  0.00  0.00    +0.000 A 
ATOM      4  C   UNL     1       1.571   3.962  19.385  0.00  0.00    +0.000 A 
ATOM      5  C   UNL     1       2.630   4.756  19.865  0.00  0.00    +0.000 A 
ATOM      6  C   UNL     1       3.790   4.909  19.094  0.00  0.00    +0.000 A 
ENDROOT
BRANCH   4   7
ATOM      7  O   UNL     1       0.458   3.801  20.130  0.00  0.00    +0.000 OA
ATOM      8  H   UNL     1       0.480   3.802  21.098  0.00  0.00    +0.000 HD
ENDBRANCH   4   7
BRANCH   5   9
ATOM      9  O   UNL     1       2.576   5.339  21.078  0.00  0.00    +0.000 OA
ATOM     10  H   UNL     1       2.591   6.299  21.195  0.00  0.00    +0.000 HD
ENDBRANCH   5   9
BRANCH   1  11
ATOM     11  C   UNL     1       5.267   4.238  17.159  0.00  0.00    +0.000 C 
BRANCH  11  12
ATOM     12  C   UNL     1       5.305   5.118  15.862  0.00  0.00    +0.000 C 
ATOM     13  C   UNL     1       5.463   4.322  14.554  0.00  0.00    +0.000 C 
BRANCH  12  14
ATOM     14  N   UNL     1       6.262   6.258  15.948  0.00  0.00    +0.000 NA
ATOM     15  H   UNL     1       7.235   5.896  15.804  0.00  0.00    +0.000 HD
BRANCH  14  16
ATOM     16  C   UNL     1       6.245   7.014  17.214  0.00  0.00    +0.000 C 
BRANCH  16  18
ATOM     17  C   UNL     1       7.834   6.120  18.922  0.00  0.00    +0.000 C 
ATOM     18  C   UNL     1       7.641   7.166  17.818  0.00  0.00    +0.000 C 
ENDBRANCH  16  18
ENDBRANCH  14  16
ENDBRANCH  12  14
ENDBRANCH  11  12
ENDBRANCH   1  11
TORSDOF 7
ENDMDL
MODEL 3
REMARK VINA RESULT:      -5.7      1.322      1.845
REMARK  Name = 
REMARK  9 active torsions:
REMARK  status: ('A' for Active; 'I' for Inactive)
REMARK    1  A    between atoms: C_1  and  C_2
REMARK    2  A    between atoms: C_2  and  C_3
REMARK    3  A    between atoms: C_3  and  N_4
REMARK    4  A    between atoms: N_4  and  C_5
REMARK    5  A    between atoms: C_5  and  C_6
REMARK    6  A    between atoms: C_5  and  C_7
REMARK    7  A    between atoms: C_7  and  C_8
REMARK    8  A    between atoms: C_11  and  O_12
REMARK    9  A    between atoms: C_13  and  O_14
REMARK                            x       y       z     vdW  Elec       q    Type
REMARK                         _______ _______ _______ _____ _____    ______ ____
ROOT
ATOM      1  C   UNL     1       4.192   5.377  18.026  0.00  0.00    +0.000 A 
ATOM      2  C   UNL     1       4.607   4.813  16.804  0.00  0.00    +0.000 A 
ATOM      3  C   UNL     1       5.929   4.395  16.631  0.00  0.00    +0.000 A 
ATOM      4  C   UNL     1       6.861   4.548  17.668  0.00  0.00    +0.000 A 
ATOM      5  C   UNL     1       6.450   5.085  18.903  0.00  0.00    +0.000 A 
ATOM      6  C   UNL     1       5.112   5.461  19.087  0.00  0.00    +0.000 A 
ENDROOT
BRANCH   4   7
ATOM      7  O   UNL     1       8.150   4.197  17.481  0.00  0.00    +0.000 OA
ATOM      8  H   UNL     1       8.700   4.601  16.794  0.00  0.00    +0.000 HD
ENDBRANCH   4   7
BRANCH   5   9
ATOM      9  O   UNL     1       7.326   5.294  19.904  0.00  0.00    +0.000 OA
ATOM     10  H   UNL     1       7.935   4.609  20.213  0.00  0.00    +0.000 HD
ENDBRANCH   5   9
BRANCH   1  11
ATOM     11  C   UNL     1       2.809   5.965  18.182  0.00  0.00    +0.000 C 
BRANCH  11  12
ATOM     12  C   UNL     1       1.834   5.138  19.090  0.00  0.00    +0.000 C 
ATOM     13  C   UNL     1       1.858   5.532  20.578  0.00  0.00    +0.000 C 
BRANCH  12  14
ATOM     14  N   UNL     1       1.948   3.664  18.894  0.00  0.00    +0.000 NA
ATOM     15  H   UNL     1       0.995   3.273  18.701  0.00  0.00    +0.000 HD
BRANCH  14  16
ATOM     16  C   UNL     1       2.524   2.911  20.024  0.00  0.00    +0.000 C 
BRANCH  16  18
ATOM     17  C   UNL     1       3.570   1.603  18.170  0.00  0.00    +0.000 C 
ATOM     18  C   UNL     1       3.748   2.092  19.612  0.00  0.00    +0.000 C 
ENDBRANCH  16  18
ENDBRANCH  14  16
ENDBRANCH  12  14
ENDBRANCH  11  12
ENDBRANCH   1  11
TORSDOF 7
ENDMDL
MODEL 4
REMARK VINA RESULT:      -5.7      1.145      1.373
REMARK  Name = 
REMARK  9 active torsions:
REMARK  status: ('A' for Active; 'I' for Inactive)
REMARK    1  A    between atoms: C_1  and  C_2
REMARK    2  A    between atoms: C_2  and  C_3
REMARK    3  A    between atoms: C_3  and  N_4
REMARK    4  A    between atoms: N_4  and  C_5
REMARK    5  A    between atoms: C_5  and  C_6
REMARK    6  A    between atoms: C_5  and  C_7
REMARK    7  A    between atoms: C_7  and  C_8
REMARK    8  A    between atoms: C_11  and  O_12
REMARK    9  A    between atoms: C_13  and  O_14
REMARK                            x       y       z     vdW  Elec       q    Type
REMARK                         _______ _______ _______ _____ _____    ______ ____
ROOT
ATOM      1  C   UNL     1       4.846   5.345  18.253  0.00  0.00    +0.000 A 
ATOM      2  C   UNL     1       4.467   6.009  17.070  0.00  0.00    +0.000 A 
ATOM      3  C   UNL     1       5.319   6.022  15.963  0.00  0.00    +0.000 A 
ATOM      4  C   UNL     1       6.568   5.386  16.024  0.00  0.00    +0.000 A 
ATOM      5  C   UNL     1       6.944   4.695  17.192  0.00  0.00    +0.000 A 
ATOM      6  C   UNL     1       6.067   4.647  18.284  0.00  0.00    +0.000 A 
ENDROOT
BRANCH   4   7
ATOM      7  O   UNL     1       7.414   5.446  14.975  0.00  0.00    +0.000 OA
ATOM      8  H   UNL     1       8.093   6.132  14.899  0.00  0.00    +0.000 HD
ENDBRANCH   4   7
BRANCH   5   9
ATOM      9  O   UNL     1       8.154   4.117  17.306  0.00  0.00    +0.000 OA
ATOM     10  H   UNL     1       8.894   4.544  17.760  0.00  0.00    +0.000 HD
ENDBRANCH   5   9
BRANCH   1  11
ATOM     11  C   UNL     1       4.004   5.443  19.504  0.00  0.00    +0.000 C 
BRANCH  11  12
ATOM     12  C   UNL     1       2.517   5.882  19.272  0.00  0.00    +0.000 C 
ATOM     13  C   UNL     1       2.191   7.310  19.745  0.00  0.00    +0.000 C 
BRANCH  12  14
ATOM     14  N   UNL     1       1.522   4.885  19.760  0.00  0.00    +0.000 NA
ATOM     15  H   UNL     1       1.713   4.681  20.770  0.00  0.00    +0.000 HD
BRANCH  14  16
ATOM     16  C   UNL     1       1.498   3.599  19.037  0.00  0.00    +0.000 C 
BRANCH  16  18
ATOM     17  C   UNL     1       1.417   2.826  21.412  0.00  0.00    +0.000 C 
ATOM     18  C   UNL     1       1.719   2.407  19.969  0.00  0.00    +0.000 C 
ENDBRANCH  16  18
ENDBRANCH  14  16
ENDBRANCH  12  14
ENDBRANCH  11  12
ENDBRANCH   1  11
TORSDOF 7
ENDMDL
MODEL 5
REMARK VINA RESULT:      -5.7      2.081      3.073
REMARK  Name = 
REMARK  9 active torsions:
REMARK  status: ('A' for Active; 'I' for Inactive)
REMARK    1  A    between atoms: C_1  and  C_2
REMARK    2  A    between atoms: C_2  and  C_3
REMARK    3  A    between atoms: C_3  and  N_4
REMARK    4  A    between atoms: N_4  and  C_5
REMARK    5  A    between atoms: C_5  and  C_6
REMARK    6  A    between atoms: C_5  and  C_7
REMARK    7  A    between atoms: C_7  and  C_8
REMARK    8  A    between atoms: C_11  and  O_12
REMARK    9  A    between atoms: C_13  and  O_14
REMARK                            x       y       z     vdW  Elec       q    Type
REMARK                         _______ _______ _______ _____ _____    ______ ____
ROOT
ATOM      1  C   UNL     1       5.864   5.081  17.356  0.00  0.00    +0.000 A 
ATOM      2  C   UNL     1       6.306   6.207  16.633  0.00  0.00    +0.000 A 
ATOM      3  C   UNL     1       7.274   7.057  17.172  0.00  0.00    +0.000 A 
ATOM      4  C   UNL     1       7.805   6.808  18.446  0.00  0.00    +0.000 A 
ATOM      5  C   UNL     1       7.391   5.670  19.165  0.00  0.00    +0.000 A 
ATOM      6  C   UNL     1       6.453   4.794  18.600  0.00  0.00    +0.000 A 
ENDROOT
BRANCH   4   7
ATOM      7  O   UNL     1       8.698   7.660  18.991  0.00  0.00    +0.000 OA
ATOM      8  H   UNL     1       9.477   7.350  19.475  0.00  0.00    +0.000 HD
ENDBRANCH   4   7
BRANCH   5   9
ATOM      9  O   UNL     1       7.840   5.424  20.410  0.00  0.00    +0.000 OA
ATOM     10  H   UNL     1       8.782   5.413  20.631  0.00  0.00    +0.000 HD
ENDBRANCH   5   9
BRANCH   1  11
ATOM     11  C   UNL     1       4.718   4.235  16.853  0.00  0.00    +0.000 C 
BRANCH  11  12
ATOM     12  C   UNL     1       3.564   3.997  17.888  0.00  0.00    +0.000 C 
ATOM     13  C   UNL     1       2.529   2.942  17.458  0.00  0.00    +0.000 C 
BRANCH  12  14
ATOM     14  N   UNL     1       2.923   5.257  18.360  0.00  0.00    +0.000 NA
ATOM     15  H   UNL     1       3.390   6.071  17.893  0.00  0.00    +0.000 HD
BRANCH  14  16
ATOM     16  C   UNL     1       2.964   5.489  19.816  0.00  0.00    +0.000 C 
BRANCH  16  18
ATOM     17  C   UNL     1       2.064   3.737  21.353  0.00  0.00    +0.000 C 
ATOM     18  C   UNL     1       1.708   4.974  20.521  0.00  0.00    +0.000 C 
ENDBRANCH  16  18
ENDBRANCH  14  16
ENDBRANCH  12  14
ENDBRANCH  11  12
ENDBRANCH   1  11
TORSDOF 7
ENDMDL
MODEL 6
REMARK VINA RESULT:      -5.7      1.771      2.191
REMARK  Name = 
REMARK  9 active torsions:
REMARK  status: ('A' for Active; 'I' for Inactive)
REMARK    1  A    between atoms: C_1  and  C_2
REMARK    2  A    between atoms: C_2  and  C_3
REMARK    3  A    between atoms: C_3  and  N_4
REMARK    4  A    between atoms: N_4  and  C_5
REMARK    5  A    between atoms: C_5  and  C_6
REMARK    6  A    between atoms: C_5  and  C_7
REMARK    7  A    between atoms: C_7  and  C_8
REMARK    8  A    between atoms: C_11  and  O_12
REMARK    9  A    between atoms: C_13  and  O_14
REMARK                            x       y       z     vdW  Elec       q    Type
REMARK                         _______ _______ _______ _____ _____    ______ ____
ROOT
ATOM      1  C   UNL     1       4.968   4.057  17.137  0.00  0.00    +0.000 A 
ATOM      2  C   UNL     1       5.055   3.574  15.817  0.00  0.00    +0.000 A 
ATOM      3  C   UNL     1       6.045   4.051  14.954  0.00  0.00    +0.000 A 
ATOM      4  C   UNL     1       6.951   5.030  15.388  0.00  0.00    +0.000 A 
ATOM      5  C   UNL     1       6.889   5.499  16.714  0.00  0.00    +0.000 A 
ATOM      6  C   UNL     1       5.923   4.984  17.590  0.00  0.00    +0.000 A 
ENDROOT
BRANCH   4   7
ATOM      7  O   UNL     1       7.870   5.532  14.538  0.00  0.00    +0.000 OA
ATOM      8  H   UNL     1       8.705   5.079  14.355  0.00  0.00    +0.000 HD
ENDBRANCH   4   7
BRANCH   5   9
ATOM      9  O   UNL     1       7.708   6.474  17.153  0.00  0.00    +0.000 OA
ATOM     10  H   UNL     1       8.084   6.475  18.044  0.00  0.00    +0.000 HD
ENDBRANCH   5   9
BRANCH   1  11
ATOM     11  C   UNL     1       3.820   3.661  18.036  0.00  0.00    +0.000 C 
BRANCH  11  12
ATOM     12  C   UNL     1       2.436   4.300  17.668  0.00  0.00    +0.000 C 
ATOM     13  C   UNL     1       2.244   5.741  18.173  0.00  0.00    +0.000 C 
BRANCH  12  14
ATOM     14  N   UNL     1       1.273   3.427  17.998  0.00  0.00    +0.000 NA
ATOM     15  H   UNL     1       0.451   4.032  18.237  0.00  0.00    +0.000 HD
BRANCH  14  16
ATOM     16  C   UNL     1       1.478   2.484  19.114  0.00  0.00    +0.000 C 
BRANCH  16  18
ATOM     17  C   UNL     1       2.211   2.946  21.458  0.00  0.00    +0.000 C 
ATOM     18  C   UNL     1       1.055   3.078  20.459  0.00  0.00    +0.000 C 
ENDBRANCH  16  18
ENDBRANCH  14  16
ENDBRANCH  12  14
ENDBRANCH  11  12
ENDBRANCH   1  11
TORSDOF 7
ENDMDL
MODEL 7
REMARK VINA RESULT:      -5.7      3.595      5.491
REMARK  Name = 
REMARK  9 active torsions:
REMARK  status: ('A' for Active; 'I' for Inactive)
REMARK    1  A    between atoms: C_1  and  C_2
REMARK    2  A    between atoms: C_2  and  C_3
REMARK    3  A    between atoms: C_3  and  N_4
REMARK    4  A    between atoms: N_4  and  C_5
REMARK    5  A    between atoms: C_5  and  C_6
REMARK    6  A    between atoms: C_5  and  C_7
REMARK    7  A    between atoms: C_7  and  C_8
REMARK    8  A    between atoms: C_11  and  O_12
REMARK    9  A    between atoms: C_13  and  O_14
REMARK                            x       y       z     vdW  Elec       q    Type
REMARK                         _______ _______ _______ _____ _____    ______ ____
ROOT
ATOM      1  C   UNL     1       3.467   4.769  17.677  0.00  0.00    +0.000 A 
ATOM      2  C   UNL     1       2.533   3.786  17.295  0.00  0.00    +0.000 A 
ATOM      3  C   UNL     1       1.527   3.387  18.178  0.00  0.00    +0.000 A 
ATOM      4  C   UNL     1       1.447   3.949  19.461  0.00  0.00    +0.000 A 
ATOM      5  C   UNL     1       2.358   4.952  19.842  0.00  0.00    +0.000 A 
ATOM      6  C   UNL     1       3.338   5.383  18.936  0.00  0.00    +0.000 A 
ENDROOT
BRANCH   4   7
ATOM      7  O   UNL     1       0.511   3.522  20.334  0.00  0.00    +0.000 OA
ATOM      8  H   UNL     1       0.510   3.795  21.263  0.00  0.00    +0.000 HD
ENDBRANCH   4   7
BRANCH   5   9
ATOM      9  O   UNL     1       2.344   5.479  21.081  0.00  0.00    +0.000 OA
ATOM     10  H   UNL     1       2.984   5.226  21.761  0.00  0.00    +0.000 HD
ENDBRANCH   5   9
BRANCH   1  11
ATOM     11  C   UNL     1       4.644   5.109  16.793  0.00  0.00    +0.000 C 
BRANCH  11  12
ATOM     12  C   UNL     1       5.864   4.129  16.905  0.00  0.00    +0.000 C 
ATOM     13  C   UNL     1       7.143   4.765  17.478  0.00  0.00    +0.000 C 
BRANCH  12  14
ATOM     14  N   UNL     1       6.126   3.364  15.652  0.00  0.00    +0.000 NA
ATOM     15  H   UNL     1       6.959   2.745  15.801  0.00  0.00    +0.000 HD
BRANCH  14  16
ATOM     16  C   UNL     1       6.378   4.176  14.447  0.00  0.00    +0.000 C 
BRANCH  16  18
ATOM     17  C   UNL     1       6.110   3.202  12.162  0.00  0.00    +0.000 C 
ATOM     18  C   UNL     1       5.379   3.878  13.328  0.00  0.00    +0.000 C 
ENDBRANCH  16  18
ENDBRANCH  14  16
ENDBRANCH  12  14
ENDBRANCH  11  12
ENDBRANCH   1  11
TORSDOF 7
ENDMDL
MODEL 8
REMARK VINA RESULT:      -5.7      2.091      2.760
REMARK  Name = 
REMARK  9 active torsions:
REMARK  status: ('A' for Active; 'I' for Inactive)
REMARK    1  A    between atoms: C_1  and  C_2
REMARK    2  A    between atoms: C_2  and  C_3
REMARK    3  A    between atoms: C_3  and  N_4
REMARK    4  A    between atoms: N_4  and  C_5
REMARK    5  A    between atoms: C_5  and  C_6
REMARK    6  A    between atoms: C_5  and  C_7
REMARK    7  A    between atoms: C_7  and  C_8
REMARK    8  A    between atoms: C_11  and  O_12
REMARK    9  A    between atoms: C_13  and  O_14
REMARK                            x       y       z     vdW  Elec       q    Type
REMARK                         _______ _______ _______ _____ _____    ______ ____
ROOT
ATOM      1  C   UNL     1       5.914   4.989  17.351  0.00  0.00    +0.000 A 
ATOM      2  C   UNL     1       6.360   6.103  16.612  0.00  0.00    +0.000 A 
ATOM      3  C   UNL     1       7.306   6.977  17.153  0.00  0.00    +0.000 A 
ATOM      4  C   UNL     1       7.811   6.763  18.444  0.00  0.00    +0.000 A 
ATOM      5  C   UNL     1       7.393   5.637  19.179  0.00  0.00    +0.000 A 
ATOM      6  C   UNL     1       6.477   4.738  18.614  0.00  0.00    +0.000 A 
ENDROOT
BRANCH   4   7
ATOM      7  O   UNL     1       8.682   7.638  18.988  0.00  0.00    +0.000 OA
ATOM      8  H   UNL     1       8.391   8.382  19.534  0.00  0.00    +0.000 HD
ENDBRANCH   4   7
BRANCH   5   9
ATOM      9  O   UNL     1       7.816   5.426  20.440  0.00  0.00    +0.000 OA
ATOM     10  H   UNL     1       8.668   5.752  20.764  0.00  0.00    +0.000 HD
ENDBRANCH   5   9
BRANCH   1  11
ATOM     11  C   UNL     1       4.789   4.119  16.842  0.00  0.00    +0.000 C 
BRANCH  11  12
ATOM     12  C   UNL     1       3.377   4.438  17.445  0.00  0.00    +0.000 C 
ATOM     13  C   UNL     1       3.217   5.876  17.969  0.00  0.00    +0.000 C 
BRANCH  12  14
ATOM     14  N   UNL     1       2.910   3.422  18.431  0.00  0.00    +0.000 NA
ATOM     15  H   UNL     1       3.429   2.526  18.267  0.00  0.00    +0.000 HD
BRANCH  14  16
ATOM     16  C   UNL     1       1.467   3.119  18.402  0.00  0.00    +0.000 C 
BRANCH  16  18
ATOM     17  C   UNL     1       1.250   4.200  20.644  0.00  0.00    +0.000 C 
ATOM     18  C   UNL     1       0.877   2.972  19.806  0.00  0.00    +0.000 C 
ENDBRANCH  16  18
ENDBRANCH  14  16
ENDBRANCH  12  14
ENDBRANCH  11  12
ENDBRANCH   1  11
TORSDOF 7
ENDMDL
MODEL 9
REMARK VINA RESULT:      -5.7      3.107      5.286
REMARK  Name = 
REMARK  9 active torsions:
REMARK  status: ('A' for Active; 'I' for Inactive)
REMARK    1  A    between atoms: C_1  and  C_2
REMARK    2  A    between atoms: C_2  and  C_3
REMARK    3  A    between atoms: C_3  and  N_4
REMARK    4  A    between atoms: N_4  and  C_5
REMARK    5  A    between atoms: C_5  and  C_6
REMARK    6  A    between atoms: C_5  and  C_7
REMARK    7  A    between atoms: C_7  and  C_8
REMARK    8  A    between atoms: C_11  and  O_12
REMARK    9  A    between atoms: C_13  and  O_14
REMARK                            x       y       z     vdW  Elec       q    Type
REMARK                         _______ _______ _______ _____ _____    ______ ____
ROOT
ATOM      1  C   UNL     1       3.617   5.098  17.981  0.00  0.00    +0.000 A 
ATOM      2  C   UNL     1       2.237   4.906  17.774  0.00  0.00    +0.000 A 
ATOM      3  C   UNL     1       1.636   3.687  18.099  0.00  0.00    +0.000 A 
ATOM      4  C   UNL     1       2.405   2.636  18.620  0.00  0.00    +0.000 A 
ATOM      5  C   UNL     1       3.780   2.828  18.858  0.00  0.00    +0.000 A 
ATOM      6  C   UNL     1       4.369   4.067  18.572  0.00  0.00    +0.000 A 
ENDROOT
BRANCH   4   7
ATOM      7  O   UNL     1       1.837   1.441  18.881  0.00  0.00    +0.000 OA
ATOM      8  H   UNL     1       1.792   0.736  18.219  0.00  0.00    +0.000 HD
ENDBRANCH   4   7
BRANCH   5   9
ATOM      9  O   UNL     1       4.560   1.828  19.309  0.00  0.00    +0.000 OA
ATOM     10  H   UNL     1       4.430   1.417  20.176  0.00  0.00    +0.000 HD
ENDBRANCH   5   9
BRANCH   1  11
ATOM     11  C   UNL     1       4.308   6.354  17.503  0.00  0.00    +0.000 C 
BRANCH  11  12
ATOM     12  C   UNL     1       5.135   6.195  16.180  0.00  0.00    +0.000 C 
ATOM     13  C   UNL     1       5.049   4.799  15.537  0.00  0.00    +0.000 C 
BRANCH  12  14
ATOM     14  N   UNL     1       6.542   6.675  16.300  0.00  0.00    +0.000 NA
ATOM     15  H   UNL     1       7.028   6.533  15.382  0.00  0.00    +0.000 HD
BRANCH  14  16
ATOM     16  C   UNL     1       7.353   6.025  17.346  0.00  0.00    +0.000 C 
BRANCH  16  18
ATOM     17  C   UNL     1       7.935   8.422  17.740  0.00  0.00    +0.000 C 
ATOM     18  C   UNL     1       7.891   7.025  18.369  0.00  0.00    +0.000 C 
ENDBRANCH  16  18
ENDBRANCH  14  16
ENDBRANCH  12  14
ENDBRANCH  11  12
ENDBRANCH   1  11
TORSDOF 7
ENDMDL
