MODEL 1
REMARK VINA RESULT:      -7.8      0.000      0.000
REMARK  Name = 
REMARK  12 active torsions:
REMARK  status: ('A' for Active; 'I' for Inactive)
REMARK    1  A    between atoms: C_1  and  O_2
REMARK    2  A    between atoms: O_2  and  C_3
REMARK    3  A    between atoms: C_6  and  C_7
REMARK    4  A    between atoms: C_10  and  S_11
REMARK    5  A    between atoms: S_11  and  C_12
REMARK    6  A    between atoms: C_12  and  C_13
REMARK    7  A    between atoms: N_15  and  C_16
REMARK    8  A    between atoms: C_19  and  C_20
REMARK    9  A    between atoms: N_27  and  C_28
REMARK   10  A    between atoms: C_28  and  C_29
REMARK   11  A    between atoms: C_29  and  C_30
REMARK   12  A    between atoms: C_29  and  C_31
REMARK                            x       y       z     vdW  Elec       q    Type
REMARK                         _______ _______ _______ _____ _____    ______ ____
ROOT
ATOM      1  C   UNL     1      -0.729  11.083  22.684  0.00  0.00    +0.000 A 
ATOM      2  N   UNL     1      -0.065  10.307  23.532  0.00  0.00    +0.000 NA
ATOM      3  N   UNL     1       0.712   9.423  22.825  0.00  0.00    +0.000 NA
ATOM      4  C   UNL     1       0.536   9.679  21.551  0.00  0.00    +0.000 A 
ATOM      5  N   UNL     1      -0.343  10.723  21.395  0.00  0.00    +0.000 N 
ENDROOT
BRANCH   1   9
ATOM      6  C   UNL     1      -3.308  14.410  23.549  0.00  0.00    +0.000 A 
ATOM      7  C   UNL     1      -1.924  14.571  23.531  0.00  0.00    +0.000 A 
ATOM      8  C   UNL     1      -1.086  13.472  23.288  0.00  0.00    +0.000 A 
ATOM      9  C   UNL     1      -1.617  12.189  23.088  0.00  0.00    +0.000 A 
ATOM     10  C   UNL     1      -2.995  12.032  23.269  0.00  0.00    +0.000 A 
ATOM     11  C   UNL     1      -3.840  13.132  23.453  0.00  0.00    +0.000 A 
BRANCH   6  13
ATOM     12  C   UNL     1      -3.511  16.486  24.645  0.00  0.00    +0.000 C 
ATOM     13  O   UNL     1      -4.055  15.543  23.720  0.00  0.00    +0.000 OA
ENDBRANCH   6  13
ENDBRANCH   1   9
BRANCH   4  14
ATOM     14  S   UNL     1       1.266   8.814  20.241  0.00  0.00    +0.000 S 
BRANCH  14  15
ATOM     15  C   UNL     1       1.336   7.119  20.872  0.00  0.00    +0.000 C 
BRANCH  15  16
ATOM     16  C   UNL     1       2.294   6.259  20.065  0.00  0.00    +0.000 C 
ATOM     17  O   UNL     1       2.866   5.290  20.561  0.00  0.00    +0.000 OA
ATOM     18  N   UNL     1       2.475   6.704  18.767  0.00  0.00    +0.000 N 
ATOM     19  H   UNL     1       2.485   7.719  18.660  0.00  0.00    +0.000 HD
BRANCH  18  20
ATOM     20  C   UNL     1       3.387   6.076  17.911  0.00  0.00    +0.000 A 
ATOM     21  N   UNL     1       4.431   6.861  17.556  0.00  0.00    +0.000 NA
ATOM     22  C   UNL     1       5.406   6.308  16.806  0.00  0.00    +0.000 A 
ATOM     23  C   UNL     1       5.381   5.004  16.343  0.00  0.00    +0.000 A 
ATOM     24  C   UNL     1       4.251   4.231  16.644  0.00  0.00    +0.000 A 
ATOM     25  C   UNL     1       3.234   4.768  17.435  0.00  0.00    +0.000 A 
ATOM     26 CL   UNL     1       1.798   3.833  17.655  0.00  0.00    +0.000 Cl
BRANCH  23  27
ATOM     27  C   UNL     1       6.514   4.451  15.540  0.00  0.00    +0.000 C 
ATOM     28  F   UNL     1       6.875   5.243  14.493  0.00  0.00    +0.000 F 
ATOM     29  F   UNL     1       7.642   4.284  16.284  0.00  0.00    +0.000 F 
ATOM     30  F   UNL     1       6.233   3.231  15.007  0.00  0.00    +0.000 F 
ENDBRANCH  23  27
ENDBRANCH  18  20
ENDBRANCH  15  16
ENDBRANCH  14  15
ENDBRANCH   4  14
BRANCH   5  31
ATOM     31  C   UNL     1      -0.814  11.241  20.129  0.00  0.00    +0.000 C 
BRANCH  31  32
ATOM     32  C   UNL     1      -0.379  12.665  19.737  0.00  0.00    +0.000 C 
ATOM     33  C   UNL     1       1.122  12.812  20.027  0.00  0.00    +0.000 C 
ATOM     34  C   UNL     1      -0.633  13.028  18.273  0.00  0.00    +0.000 C 
ENDBRANCH  31  32
ENDBRANCH   5  31
TORSDOF 9
ENDMDL
MODEL 2
REMARK VINA RESULT:      -7.2      2.048      2.399
REMARK  Name = 
REMARK  12 active torsions:
REMARK  status: ('A' for Active; 'I' for Inactive)
REMARK    1  A    between atoms: C_1  and  O_2
REMARK    2  A    between atoms: O_2  and  C_3
REMARK    3  A    between atoms: C_6  and  C_7
REMARK    4  A    between atoms: C_10  and  S_11
REMARK    5  A    between atoms: S_11  and  C_12
REMARK    6  A    between atoms: C_12  and  C_13
REMARK    7  A    between atoms: N_15  and  C_16
REMARK    8  A    between atoms: C_19  and  C_20
REMARK    9  A    between atoms: N_27  and  C_28
REMARK   10  A    between atoms: C_28  and  C_29
REMARK   11  A    between atoms: C_29  and  C_30
REMARK   12  A    between atoms: C_29  and  C_31
REMARK                            x       y       z     vdW  Elec       q    Type
REMARK                         _______ _______ _______ _____ _____    ______ ____
ROOT
ATOM      1  C   UNL     1      -1.177  12.480  21.712  0.00  0.00    +0.000 A 
ATOM      2  N   UNL     1      -0.015  12.966  22.129  0.00  0.00    +0.000 NA
ATOM      3  N   UNL     1       0.967  12.621  21.234  0.00  0.00    +0.000 NA
ATOM      4  C   UNL     1       0.396  11.947  20.265  0.00  0.00    +0.000 A 
ATOM      5  N   UNL     1      -0.955  11.840  20.496  0.00  0.00    +0.000 N 
ENDROOT
BRANCH   1   9
ATOM      6  C   UNL     1      -5.065  12.916  23.494  0.00  0.00    +0.000 A 
ATOM      7  C   UNL     1      -4.724  13.635  22.350  0.00  0.00    +0.000 A 
ATOM      8  C   UNL     1      -3.439  13.519  21.796  0.00  0.00    +0.000 A 
ATOM      9  C   UNL     1      -2.466  12.705  22.395  0.00  0.00    +0.000 A 
ATOM     10  C   UNL     1      -2.788  12.123  23.625  0.00  0.00    +0.000 A 
ATOM     11  C   UNL     1      -4.083  12.188  24.150  0.00  0.00    +0.000 A 
BRANCH   6  13
ATOM     12  C   UNL     1      -6.870  14.362  23.941  0.00  0.00    +0.000 C 
ATOM     13  O   UNL     1      -6.357  13.029  23.926  0.00  0.00    +0.000 OA
ENDBRANCH   6  13
ENDBRANCH   1   9
BRANCH   4  14
ATOM     14  S   UNL     1       1.211  11.253  18.904  0.00  0.00    +0.000 S 
BRANCH  14  15
ATOM     15  C   UNL     1       1.205   9.486  19.296  0.00  0.00    +0.000 C 
BRANCH  15  16
ATOM     16  C   UNL     1       2.038   8.689  18.306  0.00  0.00    +0.000 C 
ATOM     17  O   UNL     1       2.102   9.000  17.117  0.00  0.00    +0.000 OA
ATOM     18  N   UNL     1       2.657   7.587  18.868  0.00  0.00    +0.000 N 
ATOM     19  H   UNL     1       2.108   7.103  19.579  0.00  0.00    +0.000 HD
BRANCH  18  20
ATOM     20  C   UNL     1       3.396   6.696  18.081  0.00  0.00    +0.000 A 
ATOM     21  N   UNL     1       4.405   7.284  17.395  0.00  0.00    +0.000 NA
ATOM     22  C   UNL     1       5.227   6.488  16.681  0.00  0.00    +0.000 A 
ATOM     23  C   UNL     1       5.074   5.116  16.573  0.00  0.00    +0.000 A 
ATOM     24  C   UNL     1       3.973   4.534  17.217  0.00  0.00    +0.000 A 
ATOM     25  C   UNL     1       3.116   5.329  17.979  0.00  0.00    +0.000 A 
ATOM     26 CL   UNL     1       1.693   4.595  18.629  0.00  0.00    +0.000 Cl
BRANCH  23  27
ATOM     27  C   UNL     1       6.043   4.293  15.787  0.00  0.00    +0.000 C 
ATOM     28  F   UNL     1       6.113   4.646  14.473  0.00  0.00    +0.000 F 
ATOM     29  F   UNL     1       7.314   4.394  16.265  0.00  0.00    +0.000 F 
ATOM     30  F   UNL     1       5.741   2.968  15.803  0.00  0.00    +0.000 F 
ENDBRANCH  23  27
ENDBRANCH  18  20
ENDBRANCH  15  16
ENDBRANCH  14  15
ENDBRANCH   4  14
BRANCH   5  31
ATOM     31  C   UNL     1      -1.893  11.117  19.665  0.00  0.00    +0.000 C 
BRANCH  31  32
ATOM     32  C   UNL     1      -2.656  11.917  18.593  0.00  0.00    +0.000 C 
ATOM     33  C   UNL     1      -2.213  11.419  17.209  0.00  0.00    +0.000 C 
ATOM     34  C   UNL     1      -4.179  11.814  18.687  0.00  0.00    +0.000 C 
ENDBRANCH  31  32
ENDBRANCH   5  31
TORSDOF 9
ENDMDL
MODEL 3
REMARK VINA RESULT:      -7.1      1.383      1.857
REMARK  Name = 
REMARK  12 active torsions:
REMARK  status: ('A' for Active; 'I' for Inactive)
REMARK    1  A    between atoms: C_1  and  O_2
REMARK    2  A    between atoms: O_2  and  C_3
REMARK    3  A    between atoms: C_6  and  C_7
REMARK    4  A    between atoms: C_10  and  S_11
REMARK    5  A    between atoms: S_11  and  C_12
REMARK    6  A    between atoms: C_12  and  C_13
REMARK    7  A    between atoms: N_15  and  C_16
REMARK    8  A    between atoms: C_19  and  C_20
REMARK    9  A    between atoms: N_27  and  C_28
REMARK   10  A    between atoms: C_28  and  C_29
REMARK   11  A    between atoms: C_29  and  C_30
REMARK   12  A    between atoms: C_29  and  C_31
REMARK                            x       y       z     vdW  Elec       q    Type
REMARK                         _______ _______ _______ _____ _____    ______ ____
ROOT
ATOM      1  C   UNL     1      -1.114  11.850  21.603  0.00  0.00    +0.000 A 
ATOM      2  N   UNL     1      -0.426  11.356  22.624  0.00  0.00    +0.000 NA
ATOM      3  N   UNL     1       0.532  10.495  22.151  0.00  0.00    +0.000 NA
ATOM      4  C   UNL     1       0.440  10.486  20.843  0.00  0.00    +0.000 A 
ATOM      5  N   UNL     1      -0.563  11.332  20.434  0.00  0.00    +0.000 N 
ENDROOT
BRANCH   1   9
ATOM      6  C   UNL     1      -4.111  14.860  22.268  0.00  0.00    +0.000 A 
ATOM      7  C   UNL     1      -4.259  13.580  22.801  0.00  0.00    +0.000 A 
ATOM      8  C   UNL     1      -3.297  12.591  22.546  0.00  0.00    +0.000 A 
ATOM      9  C   UNL     1      -2.187  12.855  21.730  0.00  0.00    +0.000 A 
ATOM     10  C   UNL     1      -2.150  14.095  21.084  0.00  0.00    +0.000 A 
ATOM     11  C   UNL     1      -3.073  15.104  21.380  0.00  0.00    +0.000 A 
BRANCH   6  13
ATOM     12  C   UNL     1      -5.383  15.801  24.013  0.00  0.00    +0.000 C 
ATOM     13  O   UNL     1      -5.053  15.784  22.624  0.00  0.00    +0.000 OA
ENDBRANCH   6  13
ENDBRANCH   1   9
BRANCH   4  14
ATOM     14  S   UNL     1       1.405   9.528  19.772  0.00  0.00    +0.000 S 
BRANCH  14  15
ATOM     15  C   UNL     1       1.300   7.878  20.509  0.00  0.00    +0.000 C 
BRANCH  15  16
ATOM     16  C   UNL     1       2.288   6.915  19.873  0.00  0.00    +0.000 C 
ATOM     17  O   UNL     1       2.900   6.083  20.541  0.00  0.00    +0.000 OA
ATOM     18  N   UNL     1       2.447   7.107  18.512  0.00  0.00    +0.000 N 
ATOM     19  H   UNL     1       2.417   8.081  18.210  0.00  0.00    +0.000 HD
BRANCH  18  20
ATOM     20  C   UNL     1       3.380   6.360  17.783  0.00  0.00    +0.000 A 
ATOM     21  N   UNL     1       4.447   7.081  17.363  0.00  0.00    +0.000 NA
ATOM     22  C   UNL     1       5.440   6.423  16.732  0.00  0.00    +0.000 A 
ATOM     23  C   UNL     1       5.414   5.067  16.450  0.00  0.00    +0.000 A 
ATOM     24  C   UNL     1       4.264   4.352  16.813  0.00  0.00    +0.000 A 
ATOM     25  C   UNL     1       3.227   5.001  17.485  0.00  0.00    +0.000 A 
ATOM     26 CL   UNL     1       1.772   4.117  17.778  0.00  0.00    +0.000 Cl
BRANCH  23  27
ATOM     27  C   UNL     1       6.567   4.400  15.772  0.00  0.00    +0.000 C 
ATOM     28  F   UNL     1       6.214   3.291  15.067  0.00  0.00    +0.000 F 
ATOM     29  F   UNL     1       7.189   5.223  14.882  0.00  0.00    +0.000 F 
ATOM     30  F   UNL     1       7.529   3.999  16.646  0.00  0.00    +0.000 F 
ENDBRANCH  23  27
ENDBRANCH  18  20
ENDBRANCH  15  16
ENDBRANCH  14  15
ENDBRANCH   4  14
BRANCH   5  31
ATOM     31  C   UNL     1      -0.985  11.532  19.065  0.00  0.00    +0.000 C 
BRANCH  31  32
ATOM     32  C   UNL     1      -2.152  10.672  18.547  0.00  0.00    +0.000 C 
ATOM     33  C   UNL     1      -3.380  11.578  18.365  0.00  0.00    +0.000 C 
ATOM     34  C   UNL     1      -1.875   9.952  17.227  0.00  0.00    +0.000 C 
ENDBRANCH  31  32
ENDBRANCH   5  31
TORSDOF 9
ENDMDL
MODEL 4
REMARK VINA RESULT:      -7.1      5.052     10.429
REMARK  Name = 
REMARK  12 active torsions:
REMARK  status: ('A' for Active; 'I' for Inactive)
REMARK    1  A    between atoms: C_1  and  O_2
REMARK    2  A    between atoms: O_2  and  C_3
REMARK    3  A    between atoms: C_6  and  C_7
REMARK    4  A    between atoms: C_10  and  S_11
REMARK    5  A    between atoms: S_11  and  C_12
REMARK    6  A    between atoms: C_12  and  C_13
REMARK    7  A    between atoms: N_15  and  C_16
REMARK    8  A    between atoms: C_19  and  C_20
REMARK    9  A    between atoms: N_27  and  C_28
REMARK   10  A    between atoms: C_28  and  C_29
REMARK   11  A    between atoms: C_29  and  C_30
REMARK   12  A    between atoms: C_29  and  C_31
REMARK                            x       y       z     vdW  Elec       q    Type
REMARK                         _______ _______ _______ _____ _____    ______ ____
ROOT
ATOM      1  C   UNL     1       3.663   3.783  17.009  0.00  0.00    +0.000 A 
ATOM      2  N   UNL     1       2.373   3.720  16.706  0.00  0.00    +0.000 NA
ATOM      3  N   UNL     1       1.664   3.340  17.819  0.00  0.00    +0.000 NA
ATOM      4  C   UNL     1       2.522   3.195  18.799  0.00  0.00    +0.000 A 
ATOM      5  N   UNL     1       3.793   3.477  18.361  0.00  0.00    +0.000 N 
ENDROOT
BRANCH   1   9
ATOM      6  C   UNL     1       6.921   5.116  14.542  0.00  0.00    +0.000 A 
ATOM      7  C   UNL     1       6.008   6.029  15.067  0.00  0.00    +0.000 A 
ATOM      8  C   UNL     1       4.924   5.583  15.838  0.00  0.00    +0.000 A 
ATOM      9  C   UNL     1       4.717   4.215  16.072  0.00  0.00    +0.000 A 
ATOM     10  C   UNL     1       5.556   3.319  15.402  0.00  0.00    +0.000 A 
ATOM     11  C   UNL     1       6.672   3.758  14.682  0.00  0.00    +0.000 A 
BRANCH   6  13
ATOM     12  C   UNL     1       7.941   5.467  12.448  0.00  0.00    +0.000 C 
ATOM     13  O   UNL     1       7.989   5.637  13.865  0.00  0.00    +0.000 OA
ENDBRANCH   6  13
ENDBRANCH   1   9
BRANCH   4  14
ATOM     14  S   UNL     1       2.136   2.688  20.409  0.00  0.00    +0.000 S 
BRANCH  14  15
ATOM     15  C   UNL     1       2.407   4.193  21.377  0.00  0.00    +0.000 C 
BRANCH  15  16
ATOM     16  C   UNL     1       1.559   5.347  20.870  0.00  0.00    +0.000 C 
ATOM     17  O   UNL     1       0.435   5.166  20.403  0.00  0.00    +0.000 OA
ATOM     18  N   UNL     1       2.193   6.574  20.952  0.00  0.00    +0.000 N 
ATOM     19  H   UNL     1       3.194   6.553  20.758  0.00  0.00    +0.000 HD
BRANCH  18  20
ATOM     20  C   UNL     1       1.585   7.733  20.453  0.00  0.00    +0.000 A 
ATOM     21  N   UNL     1       0.830   8.388  21.366  0.00  0.00    +0.000 NA
ATOM     22  C   UNL     1       0.281   9.564  20.998  0.00  0.00    +0.000 A 
ATOM     23  C   UNL     1       0.407  10.116  19.734  0.00  0.00    +0.000 A 
ATOM     24  C   UNL     1       1.117   9.382  18.775  0.00  0.00    +0.000 A 
ATOM     25  C   UNL     1       1.714   8.171  19.130  0.00  0.00    +0.000 A 
ATOM     26 CL   UNL     1       2.450   7.233  17.880  0.00  0.00    +0.000 Cl
BRANCH  23  27
ATOM     27  C   UNL     1      -0.207  11.439  19.409  0.00  0.00    +0.000 C 
ATOM     28  F   UNL     1       0.680  12.472  19.439  0.00  0.00    +0.000 F 
ATOM     29  F   UNL     1      -0.758  11.461  18.163  0.00  0.00    +0.000 F 
ATOM     30  F   UNL     1      -1.207  11.779  20.266  0.00  0.00    +0.000 F 
ENDBRANCH  23  27
ENDBRANCH  18  20
ENDBRANCH  15  16
ENDBRANCH  14  15
ENDBRANCH   4  14
BRANCH   5  31
ATOM     31  C   UNL     1       4.998   3.370  19.155  0.00  0.00    +0.000 C 
BRANCH  31  32
ATOM     32  C   UNL     1       5.766   4.669  19.462  0.00  0.00    +0.000 C 
ATOM     33  C   UNL     1       7.005   4.726  18.557  0.00  0.00    +0.000 C 
ATOM     34  C   UNL     1       4.954   5.949  19.263  0.00  0.00    +0.000 C 
ENDBRANCH  31  32
ENDBRANCH   5  31
TORSDOF 9
ENDMDL
MODEL 5
REMARK VINA RESULT:      -7.1      5.396     10.653
REMARK  Name = 
REMARK  12 active torsions:
REMARK  status: ('A' for Active; 'I' for Inactive)
REMARK    1  A    between atoms: C_1  and  O_2
REMARK    2  A    between atoms: O_2  and  C_3
REMARK    3  A    between atoms: C_6  and  C_7
REMARK    4  A    between atoms: C_10  and  S_11
REMARK    5  A    between atoms: S_11  and  C_12
REMARK    6  A    between atoms: C_12  and  C_13
REMARK    7  A    between atoms: N_15  and  C_16
REMARK    8  A    between atoms: C_19  and  C_20
REMARK    9  A    between atoms: N_27  and  C_28
REMARK   10  A    between atoms: C_28  and  C_29
REMARK   11  A    between atoms: C_29  and  C_30
REMARK   12  A    between atoms: C_29  and  C_31
REMARK                            x       y       z     vdW  Elec       q    Type
REMARK                         _______ _______ _______ _____ _____    ______ ____
ROOT
ATOM      1  C   UNL     1       3.382   7.111  18.199  0.00  0.00    +0.000 A 
ATOM      2  N   UNL     1       2.899   8.289  17.822  0.00  0.00    +0.000 NA
ATOM      3  N   UNL     1       1.917   8.677  18.699  0.00  0.00    +0.000 NA
ATOM      4  C   UNL     1       1.821   7.747  19.617  0.00  0.00    +0.000 A 
ATOM      5  N   UNL     1       2.727   6.744  19.371  0.00  0.00    +0.000 N 
ENDROOT
BRANCH   1   9
ATOM      6  C   UNL     1       6.537   5.240  15.958  0.00  0.00    +0.000 A 
ATOM      7  C   UNL     1       5.240   4.730  15.920  0.00  0.00    +0.000 A 
ATOM      8  C   UNL     1       4.223   5.321  16.686  0.00  0.00    +0.000 A 
ATOM      9  C   UNL     1       4.492   6.413  17.524  0.00  0.00    +0.000 A 
ATOM     10  C   UNL     1       5.830   6.799  17.661  0.00  0.00    +0.000 A 
ATOM     11  C   UNL     1       6.836   6.253  16.857  0.00  0.00    +0.000 A 
BRANCH   6  13
ATOM     12  C   UNL     1       6.948   4.292  13.841  0.00  0.00    +0.000 C 
ATOM     13  O   UNL     1       7.451   4.652  15.128  0.00  0.00    +0.000 OA
ENDBRANCH   6  13
ENDBRANCH   1   9
BRANCH   4  14
ATOM     14  S   UNL     1       0.697   7.744  20.935  0.00  0.00    +0.000 S 
BRANCH  14  15
ATOM     15  C   UNL     1       1.412   8.959  22.070  0.00  0.00    +0.000 C 
BRANCH  15  16
ATOM     16  C   UNL     1       0.860  10.352  21.823  0.00  0.00    +0.000 C 
ATOM     17  O   UNL     1      -0.061  10.812  22.497  0.00  0.00    +0.000 OA
ATOM     18  N   UNL     1       1.462  11.003  20.760  0.00  0.00    +0.000 N 
ATOM     19  H   UNL     1       1.705  10.403  19.972  0.00  0.00    +0.000 HD
BRANCH  18  20
ATOM     20  C   UNL     1       1.017  12.263  20.343  0.00  0.00    +0.000 A 
ATOM     21  N   UNL     1       1.594  13.292  21.007  0.00  0.00    +0.000 NA
ATOM     22  C   UNL     1       1.293  14.545  20.608  0.00  0.00    +0.000 A 
ATOM     23  C   UNL     1       0.399  14.840  19.593  0.00  0.00    +0.000 A 
ATOM     24  C   UNL     1      -0.256  13.767  18.974  0.00  0.00    +0.000 A 
ATOM     25  C   UNL     1       0.048  12.458  19.351  0.00  0.00    +0.000 A 
ATOM     26 CL   UNL     1      -0.891  11.179  18.669  0.00  0.00    +0.000 Cl
BRANCH  23  27
ATOM     27  C   UNL     1       0.138  16.255  19.186  0.00  0.00    +0.000 C 
ATOM     28  F   UNL     1       0.834  16.640  18.081  0.00  0.00    +0.000 F 
ATOM     29  F   UNL     1      -1.174  16.474  18.893  0.00  0.00    +0.000 F 
ATOM     30  F   UNL     1       0.458  17.148  20.160  0.00  0.00    +0.000 F 
ENDBRANCH  23  27
ENDBRANCH  18  20
ENDBRANCH  15  16
ENDBRANCH  14  15
ENDBRANCH   4  14
BRANCH   5  31
ATOM     31  C   UNL     1       2.867   5.530  20.147  0.00  0.00    +0.000 C 
BRANCH  31  32
ATOM     32  C   UNL     1       2.161   4.266  19.623  0.00  0.00    +0.000 C 
ATOM     33  C   UNL     1       3.209   3.153  19.470  0.00  0.00    +0.000 C 
ATOM     34  C   UNL     1       1.028   3.755  20.513  0.00  0.00    +0.000 C 
ENDBRANCH  31  32
ENDBRANCH   5  31
TORSDOF 9
ENDMDL
MODEL 6
REMARK VINA RESULT:      -7.1      5.419     10.562
REMARK  Name = 
REMARK  12 active torsions:
REMARK  status: ('A' for Active; 'I' for Inactive)
REMARK    1  A    between atoms: C_1  and  O_2
REMARK    2  A    between atoms: O_2  and  C_3
REMARK    3  A    between atoms: C_6  and  C_7
REMARK    4  A    between atoms: C_10  and  S_11
REMARK    5  A    between atoms: S_11  and  C_12
REMARK    6  A    between atoms: C_12  and  C_13
REMARK    7  A    between atoms: N_15  and  C_16
REMARK    8  A    between atoms: C_19  and  C_20
REMARK    9  A    between atoms: N_27  and  C_28
REMARK   10  A    between atoms: C_28  and  C_29
REMARK   11  A    between atoms: C_29  and  C_30
REMARK   12  A    between atoms: C_29  and  C_31
REMARK                            x       y       z     vdW  Elec       q    Type
REMARK                         _______ _______ _______ _____ _____    ______ ____
ROOT
ATOM      1  C   UNL     1       2.952   6.975  18.158  0.00  0.00    +0.000 A 
ATOM      2  N   UNL     1       2.469   8.153  17.781  0.00  0.00    +0.000 NA
ATOM      3  N   UNL     1       1.820   8.736  18.841  0.00  0.00    +0.000 NA
ATOM      4  C   UNL     1       1.930   7.924  19.864  0.00  0.00    +0.000 A 
ATOM      5  N   UNL     1       2.647   6.807  19.506  0.00  0.00    +0.000 N 
ENDROOT
BRANCH   1   9
ATOM      6  C   UNL     1       5.554   4.445  15.855  0.00  0.00    +0.000 A 
ATOM      7  C   UNL     1       5.590   5.830  15.700  0.00  0.00    +0.000 A 
ATOM      8  C   UNL     1       4.710   6.648  16.425  0.00  0.00    +0.000 A 
ATOM      9  C   UNL     1       3.759   6.093  17.295  0.00  0.00    +0.000 A 
ATOM     10  C   UNL     1       3.642   4.699  17.308  0.00  0.00    +0.000 A 
ATOM     11  C   UNL     1       4.555   3.881  16.634  0.00  0.00    +0.000 A 
BRANCH   6  13
ATOM     12  C   UNL     1       6.791   4.223  13.863  0.00  0.00    +0.000 C 
ATOM     13  O   UNL     1       6.493   3.727  15.168  0.00  0.00    +0.000 OA
ENDBRANCH   6  13
ENDBRANCH   1   9
BRANCH   4  14
ATOM     14  S   UNL     1       1.248   8.183  21.434  0.00  0.00    +0.000 S 
BRANCH  14  15
ATOM     15  C   UNL     1      -0.237   9.150  21.068  0.00  0.00    +0.000 C 
BRANCH  15  16
ATOM     16  C   UNL     1       0.016  10.642  21.208  0.00  0.00    +0.000 C 
ATOM     17  O   UNL     1      -0.572  11.321  22.048  0.00  0.00    +0.000 OA
ATOM     18  N   UNL     1       0.920  11.136  20.284  0.00  0.00    +0.000 N 
ATOM     19  H   UNL     1       0.861  10.713  19.358  0.00  0.00    +0.000 HD
BRANCH  18  20
ATOM     20  C   UNL     1       1.206  12.505  20.219  0.00  0.00    +0.000 A 
ATOM     21  N   UNL     1       2.136  12.911  21.115  0.00  0.00    +0.000 NA
ATOM     22  C   UNL     1       2.541  14.196  21.063  0.00  0.00    +0.000 A 
ATOM     23  C   UNL     1       2.031  15.132  20.179  0.00  0.00    +0.000 A 
ATOM     24  C   UNL     1       1.006  14.719  19.317  0.00  0.00    +0.000 A 
ATOM     25  C   UNL     1       0.579  13.390  19.334  0.00  0.00    +0.000 A 
ATOM     26 CL   UNL     1      -0.784  12.964  18.363  0.00  0.00    +0.000 Cl
BRANCH  23  27
ATOM     27  C   UNL     1       2.550  16.534  20.160  0.00  0.00    +0.000 C 
ATOM     28  F   UNL     1       3.762  16.673  20.766  0.00  0.00    +0.000 F 
ATOM     29  F   UNL     1       2.713  17.008  18.893  0.00  0.00    +0.000 F 
ATOM     30  F   UNL     1       1.717  17.410  20.783  0.00  0.00    +0.000 F 
ENDBRANCH  23  27
ENDBRANCH  18  20
ENDBRANCH  15  16
ENDBRANCH  14  15
ENDBRANCH   4  14
BRANCH   5  31
ATOM     31  C   UNL     1       2.918   5.674  20.363  0.00  0.00    +0.000 C 
BRANCH  31  32
ATOM     32  C   UNL     1       1.740   4.743  20.706  0.00  0.00    +0.000 C 
ATOM     33  C   UNL     1       1.198   4.144  19.400  0.00  0.00    +0.000 C 
ATOM     34  C   UNL     1       2.090   3.601  21.662  0.00  0.00    +0.000 C 
ENDBRANCH  31  32
ENDBRANCH   5  31
TORSDOF 9
ENDMDL
MODEL 7
REMARK VINA RESULT:      -7.1      1.706      2.181
REMARK  Name = 
REMARK  12 active torsions:
REMARK  status: ('A' for Active; 'I' for Inactive)
REMARK    1  A    between atoms: C_1  and  O_2
REMARK    2  A    between atoms: O_2  and  C_3
REMARK    3  A    between atoms: C_6  and  C_7
REMARK    4  A    between atoms: C_10  and  S_11
REMARK    5  A    between atoms: S_11  and  C_12
REMARK    6  A    between atoms: C_12  and  C_13
REMARK    7  A    between atoms: N_15  and  C_16
REMARK    8  A    between atoms: C_19  and  C_20
REMARK    9  A    between atoms: N_27  and  C_28
REMARK   10  A    between atoms: C_28  and  C_29
REMARK   11  A    between atoms: C_29  and  C_30
REMARK   12  A    between atoms: C_29  and  C_31
REMARK                            x       y       z     vdW  Elec       q    Type
REMARK                         _______ _______ _______ _____ _____    ______ ____
ROOT
ATOM      1  C   UNL     1      -1.046  12.068  21.351  0.00  0.00    +0.000 A 
ATOM      2  N   UNL     1       0.131  12.411  21.859  0.00  0.00    +0.000 NA
ATOM      3  N   UNL     1       1.121  11.696  21.232  0.00  0.00    +0.000 NA
ATOM      4  C   UNL     1       0.546  10.938  20.331  0.00  0.00    +0.000 A 
ATOM      5  N   UNL     1      -0.814  11.138  20.341  0.00  0.00    +0.000 N 
ENDROOT
BRANCH   1   9
ATOM      6  C   UNL     1      -4.939  13.631  22.288  0.00  0.00    +0.000 A 
ATOM      7  C   UNL     1      -4.246  14.079  21.165  0.00  0.00    +0.000 A 
ATOM      8  C   UNL     1      -2.958  13.595  20.888  0.00  0.00    +0.000 A 
ATOM      9  C   UNL     1      -2.331  12.677  21.743  0.00  0.00    +0.000 A 
ATOM     10  C   UNL     1      -2.986  12.369  22.941  0.00  0.00    +0.000 A 
ATOM     11  C   UNL     1      -4.292  12.802  23.194  0.00  0.00    +0.000 A 
BRANCH   6  13
ATOM     12  C   UNL     1      -6.970  14.202  21.240  0.00  0.00    +0.000 C 
ATOM     13  O   UNL     1      -6.215  14.097  22.447  0.00  0.00    +0.000 OA
ENDBRANCH   6  13
ENDBRANCH   1   9
BRANCH   4  14
ATOM     14  S   UNL     1       1.358   9.814  19.293  0.00  0.00    +0.000 S 
BRANCH  14  15
ATOM     15  C   UNL     1       1.304   8.279  20.251  0.00  0.00    +0.000 C 
BRANCH  15  16
ATOM     16  C   UNL     1       2.279   7.246  19.710  0.00  0.00    +0.000 C 
ATOM     17  O   UNL     1       2.808   6.412  20.443  0.00  0.00    +0.000 OA
ATOM     18  N   UNL     1       2.526   7.378  18.355  0.00  0.00    +0.000 N 
ATOM     19  H   UNL     1       2.562   8.340  18.018  0.00  0.00    +0.000 HD
BRANCH  18  20
ATOM     20  C   UNL     1       3.462   6.560  17.711  0.00  0.00    +0.000 A 
ATOM     21  N   UNL     1       4.573   7.218  17.305  0.00  0.00    +0.000 NA
ATOM     22  C   UNL     1       5.568   6.492  16.756  0.00  0.00    +0.000 A 
ATOM     23  C   UNL     1       5.503   5.125  16.545  0.00  0.00    +0.000 A 
ATOM     24  C   UNL     1       4.312   4.472  16.890  0.00  0.00    +0.000 A 
ATOM     25  C   UNL     1       3.271   5.193  17.478  0.00  0.00    +0.000 A 
ATOM     26 CL   UNL     1       1.772   4.378  17.748  0.00  0.00    +0.000 Cl
BRANCH  23  27
ATOM     27  C   UNL     1       6.659   4.382  15.957  0.00  0.00    +0.000 C 
ATOM     28  F   UNL     1       6.308   3.200  15.380  0.00  0.00    +0.000 F 
ATOM     29  F   UNL     1       7.292   5.095  14.984  0.00  0.00    +0.000 F 
ATOM     30  F   UNL     1       7.612   4.081  16.879  0.00  0.00    +0.000 F 
ENDBRANCH  23  27
ENDBRANCH  18  20
ENDBRANCH  15  16
ENDBRANCH  14  15
ENDBRANCH   4  14
BRANCH   5  31
ATOM     31  C   UNL     1      -1.772  10.432  19.519  0.00  0.00    +0.000 C 
BRANCH  31  32
ATOM     32  C   UNL     1      -2.150  11.062  18.166  0.00  0.00    +0.000 C 
ATOM     33  C   UNL     1      -1.874  10.036  17.058  0.00  0.00    +0.000 C 
ATOM     34  C   UNL     1      -3.606  11.518  18.061  0.00  0.00    +0.000 C 
ENDBRANCH  31  32
ENDBRANCH   5  31
TORSDOF 9
ENDMDL
MODEL 8
REMARK VINA RESULT:      -7.0      5.869     11.522
REMARK  Name = 
REMARK  12 active torsions:
REMARK  status: ('A' for Active; 'I' for Inactive)
REMARK    1  A    between atoms: C_1  and  O_2
REMARK    2  A    between atoms: O_2  and  C_3
REMARK    3  A    between atoms: C_6  and  C_7
REMARK    4  A    between atoms: C_10  and  S_11
REMARK    5  A    between atoms: S_11  and  C_12
REMARK    6  A    between atoms: C_12  and  C_13
REMARK    7  A    between atoms: N_15  and  C_16
REMARK    8  A    between atoms: C_19  and  C_20
REMARK    9  A    between atoms: N_27  and  C_28
REMARK   10  A    between atoms: C_28  and  C_29
REMARK   11  A    between atoms: C_29  and  C_30
REMARK   12  A    between atoms: C_29  and  C_31
REMARK                            x       y       z     vdW  Elec       q    Type
REMARK                         _______ _______ _______ _____ _____    ______ ____
ROOT
ATOM      1  C   UNL     1       3.278   6.928  18.223  0.00  0.00    +0.000 A 
ATOM      2  N   UNL     1       2.825   8.111  17.829  0.00  0.00    +0.000 NA
ATOM      3  N   UNL     1       1.986   8.618  18.791  0.00  0.00    +0.000 NA
ATOM      4  C   UNL     1       1.951   7.754  19.775  0.00  0.00    +0.000 A 
ATOM      5  N   UNL     1       2.757   6.678  19.489  0.00  0.00    +0.000 N 
ENDROOT
BRANCH   1   9
ATOM      6  C   UNL     1       5.961   4.663  15.743  0.00  0.00    +0.000 A 
ATOM      7  C   UNL     1       4.716   4.146  16.099  0.00  0.00    +0.000 A 
ATOM      8  C   UNL     1       3.862   4.873  16.942  0.00  0.00    +0.000 A 
ATOM      9  C   UNL     1       4.250   6.115  17.467  0.00  0.00    +0.000 A 
ATOM     10  C   UNL     1       5.562   6.531  17.221  0.00  0.00    +0.000 A 
ATOM     11  C   UNL     1       6.396   5.840  16.335  0.00  0.00    +0.000 A 
BRANCH   6  13
ATOM     12  C   UNL     1       6.141   3.816  13.552  0.00  0.00    +0.000 C 
ATOM     13  O   UNL     1       6.701   3.925  14.861  0.00  0.00    +0.000 OA
ENDBRANCH   6  13
ENDBRANCH   1   9
BRANCH   4  14
ATOM     14  S   UNL     1       1.005   7.908  21.217  0.00  0.00    +0.000 S 
BRANCH  14  15
ATOM     15  C   UNL     1      -0.153   9.233  20.794  0.00  0.00    +0.000 C 
BRANCH  15  16
ATOM     16  C   UNL     1      -0.013  10.422  21.730  0.00  0.00    +0.000 C 
ATOM     17  O   UNL     1       0.492  10.310  22.845  0.00  0.00    +0.000 OA
ATOM     18  N   UNL     1      -0.543  11.592  21.216  0.00  0.00    +0.000 N 
ATOM     19  H   UNL     1      -1.393  11.473  20.666  0.00  0.00    +0.000 HD
BRANCH  18  20
ATOM     20  C   UNL     1      -0.571  12.766  21.980  0.00  0.00    +0.000 A 
ATOM     21  N   UNL     1       0.482  13.586  21.758  0.00  0.00    +0.000 NA
ATOM     22  C   UNL     1       0.490  14.781  22.383  0.00  0.00    +0.000 A 
ATOM     23  C   UNL     1      -0.489  15.198  23.269  0.00  0.00    +0.000 A 
ATOM     24  C   UNL     1      -1.527  14.301  23.556  0.00  0.00    +0.000 A 
ATOM     25  C   UNL     1      -1.574  13.064  22.910  0.00  0.00    +0.000 A 
ATOM     26 CL   UNL     1      -2.785  11.936  23.405  0.00  0.00    +0.000 Cl
BRANCH  23  27
ATOM     27  C   UNL     1      -0.428  16.550  23.903  0.00  0.00    +0.000 C 
ATOM     28  F   UNL     1      -1.135  17.499  23.228  0.00  0.00    +0.000 F 
ATOM     29  F   UNL     1      -0.926  16.550  25.171  0.00  0.00    +0.000 F 
ATOM     30  F   UNL     1       0.842  17.027  23.999  0.00  0.00    +0.000 F 
ENDBRANCH  23  27
ENDBRANCH  18  20
ENDBRANCH  15  16
ENDBRANCH  14  15
ENDBRANCH   4  14
BRANCH   5  31
ATOM     31  C   UNL     1       2.919   5.506  20.323  0.00  0.00    +0.000 C 
BRANCH  31  32
ATOM     32  C   UNL     1       2.307   4.186  19.821  0.00  0.00    +0.000 C 
ATOM     33  C   UNL     1       3.319   3.057  20.069  0.00  0.00    +0.000 C 
ATOM     34  C   UNL     1       0.980   3.808  20.481  0.00  0.00    +0.000 C 
ENDBRANCH  31  32
ENDBRANCH   5  31
TORSDOF 9
ENDMDL
MODEL 9
REMARK VINA RESULT:      -7.0      2.054      2.979
REMARK  Name = 
REMARK  12 active torsions:
REMARK  status: ('A' for Active; 'I' for Inactive)
REMARK    1  A    between atoms: C_1  and  O_2
REMARK    2  A    between atoms: O_2  and  C_3
REMARK    3  A    between atoms: C_6  and  C_7
REMARK    4  A    between atoms: C_10  and  S_11
REMARK    5  A    between atoms: S_11  and  C_12
REMARK    6  A    between atoms: C_12  and  C_13
REMARK    7  A    between atoms: N_15  and  C_16
REMARK    8  A    between atoms: C_19  and  C_20
REMARK    9  A    between atoms: N_27  and  C_28
REMARK   10  A    between atoms: C_28  and  C_29
REMARK   11  A    between atoms: C_29  and  C_30
REMARK   12  A    between atoms: C_29  and  C_31
REMARK                            x       y       z     vdW  Elec       q    Type
REMARK                         _______ _______ _______ _____ _____    ______ ____
ROOT
ATOM      1  C   UNL     1      -2.552  12.464  19.860  0.00  0.00    +0.000 A 
ATOM      2  N   UNL     1      -2.782  11.656  18.833  0.00  0.00    +0.000 NA
ATOM      3  N   UNL     1      -1.604  11.064  18.450  0.00  0.00    +0.000 NA
ATOM      4  C   UNL     1      -0.667  11.496  19.258  0.00  0.00    +0.000 A 
ATOM      5  N   UNL     1      -1.201  12.365  20.180  0.00  0.00    +0.000 N 
ENDROOT
BRANCH   1   9
ATOM      6  C   UNL     1      -5.419  14.642  22.208  0.00  0.00    +0.000 A 
ATOM      7  C   UNL     1      -5.440  13.249  22.175  0.00  0.00    +0.000 A 
ATOM      8  C   UNL     1      -4.527  12.545  21.375  0.00  0.00    +0.000 A 
ATOM      9  C   UNL     1      -3.598  13.223  20.571  0.00  0.00    +0.000 A 
ATOM     10  C   UNL     1      -3.707  14.616  20.504  0.00  0.00    +0.000 A 
ATOM     11  C   UNL     1      -4.575  15.324  21.344  0.00  0.00    +0.000 A 
BRANCH   6  13
ATOM     12  C   UNL     1      -5.679  16.014  24.106  0.00  0.00    +0.000 C 
ATOM     13  O   UNL     1      -6.293  15.248  23.068  0.00  0.00    +0.000 OA
ENDBRANCH   6  13
ENDBRANCH   1   9
BRANCH   4  14
ATOM     14  S   UNL     1       1.010  11.076  19.172  0.00  0.00    +0.000 S 
BRANCH  14  15
ATOM     15  C   UNL     1       0.978   9.274  19.340  0.00  0.00    +0.000 C 
BRANCH  15  16
ATOM     16  C   UNL     1       1.942   8.603  18.376  0.00  0.00    +0.000 C 
ATOM     17  O   UNL     1       2.158   9.061  17.255  0.00  0.00    +0.000 OA
ATOM     18  N   UNL     1       2.493   7.435  18.872  0.00  0.00    +0.000 N 
ATOM     19  H   UNL     1       1.862   6.869  19.439  0.00  0.00    +0.000 HD
BRANCH  18  20
ATOM     20  C   UNL     1       3.339   6.646  18.083  0.00  0.00    +0.000 A 
ATOM     21  N   UNL     1       4.406   7.317  17.589  0.00  0.00    +0.000 NA
ATOM     22  C   UNL     1       5.322   6.615  16.892  0.00  0.00    +0.000 A 
ATOM     23  C   UNL     1       5.215   5.262  16.616  0.00  0.00    +0.000 A 
ATOM     24  C   UNL     1       4.061   4.600  17.059  0.00  0.00    +0.000 A 
ATOM     25  C   UNL     1       3.104   5.296  17.799  0.00  0.00    +0.000 A 
ATOM     26 CL   UNL     1       1.633   4.479  18.193  0.00  0.00    +0.000 Cl
BRANCH  23  27
ATOM     27  C   UNL     1       6.287   4.543  15.862  0.00  0.00    +0.000 C 
ATOM     28  F   UNL     1       7.443   4.398  16.566  0.00  0.00    +0.000 F 
ATOM     29  F   UNL     1       5.911   3.284  15.504  0.00  0.00    +0.000 F 
ATOM     30  F   UNL     1       6.628   5.174  14.707  0.00  0.00    +0.000 F 
ENDBRANCH  23  27
ENDBRANCH  18  20
ENDBRANCH  15  16
ENDBRANCH  14  15
ENDBRANCH   4  14
BRANCH   5  31
ATOM     31  C   UNL     1      -0.453  13.078  21.192  0.00  0.00    +0.000 C 
BRANCH  31  32
ATOM     32  C   UNL     1      -0.635  12.635  22.655  0.00  0.00    +0.000 C 
ATOM     33  C   UNL     1      -1.491  13.685  23.378  0.00  0.00    +0.000 C 
ATOM     34  C   UNL     1      -1.292  11.264  22.827  0.00  0.00    +0.000 C 
ENDBRANCH  31  32
ENDBRANCH   5  31
TORSDOF 9
ENDMDL
