MODEL 1
REMARK VINA RESULT:      -8.2      0.000      0.000
REMARK  Name = 
REMARK  13 active torsions:
REMARK  status: ('A' for Active; 'I' for Inactive)
REMARK    1  A    between atoms: C_1  and  O_2
REMARK    2  A    between atoms: O_2  and  C_3
REMARK    3  A    between atoms: C_6  and  C_7
REMARK    4  A    between atoms: C_7  and  C_8
REMARK    5  A    between atoms: C_15  and  C_16
REMARK    6  A    between atoms: C_16  and  N_17
REMARK    7  A    between atoms: C_18  and  C_20
REMARK    8  A    between atoms: C_20  and  N_21
REMARK    9  A    between atoms: C_20  and  C_22
REMARK   10  A    between atoms: C_22  and  C_23
REMARK   11  A    between atoms: C_24  and  C_25
REMARK   12  A    between atoms: C_27  and  O_28
REMARK   13  A    between atoms: C_30  and  C_31
REMARK                            x       y       z     vdW  Elec       q    Type
REMARK                         _______ _______ _______ _____ _____    ______ ____
ROOT
ATOM      1  N   UNL     1       3.316   4.231  18.238  0.00  0.00    +0.000 N 
ATOM      2  C   UNL     1       1.998   4.268  18.564  0.00  0.00    +0.000 C 
ATOM      3  O   UNL     1       1.137   3.626  17.958  0.00  0.00    +0.000 OA
ATOM      4  H   UNL     1       3.967   4.768  18.767  0.00  0.00    +0.000 HD
ENDROOT
BRANCH   1   5
ATOM      5  C   UNL     1       3.910   3.354  17.254  0.00  0.00    +0.000 C 
BRANCH   5  11
ATOM      6  C   UNL     1       6.201   4.395  17.395  0.00  0.00    +0.000 A 
ATOM      7  C   UNL     1       7.342   4.939  16.794  0.00  0.00    +0.000 A 
ATOM      8  C   UNL     1       7.407   5.097  15.410  0.00  0.00    +0.000 A 
ATOM      9  C   UNL     1       6.350   4.684  14.598  0.00  0.00    +0.000 A 
ATOM     10  C   UNL     1       5.225   4.111  15.204  0.00  0.00    +0.000 A 
ATOM     11  C   UNL     1       5.124   3.972  16.604  0.00  0.00    +0.000 A 
BRANCH   6  13
ATOM     12  C   UNL     1       6.434   5.365  19.519  0.00  0.00    +0.000 C 
ATOM     13  O   UNL     1       6.092   4.216  18.750  0.00  0.00    +0.000 OA
ENDBRANCH   6  13
BRANCH   9  14
ATOM     14  C   UNL     1       6.402   4.875  13.102  0.00  0.00    +0.000 C 
BRANCH  14  15
ATOM     15  C   UNL     1       6.336   3.586  12.316  0.00  0.00    +0.000 A 
ATOM     16  C   UNL     1       5.096   3.022  11.975  0.00  0.00    +0.000 A 
ATOM     17  C   UNL     1       5.032   1.858  11.208  0.00  0.00    +0.000 A 
ATOM     18  C   UNL     1       6.203   1.236  10.783  0.00  0.00    +0.000 A 
ATOM     19  C   UNL     1       7.441   1.767  11.141  0.00  0.00    +0.000 A 
ATOM     20  C   UNL     1       7.509   2.933  11.908  0.00  0.00    +0.000 A 
ENDBRANCH  14  15
ENDBRANCH   9  14
ENDBRANCH   5  11
ENDBRANCH   1   5
BRANCH   2  21
ATOM     21  C   UNL     1       1.625   5.121  19.815  0.00  0.00    +0.000 C 
BRANCH  21  22
ATOM     22  N   UNL     1       1.559   4.201  20.985  0.00  0.00    +0.000 NA
ATOM     23  H   UNL     1       0.996   4.647  21.715  0.00  0.00    +0.000 HD
ATOM     24  H   UNL     1       2.499   4.191  21.399  0.00  0.00    +0.000 HD
ENDBRANCH  21  22
BRANCH  21  25
ATOM     25  C   UNL     1       2.527   6.336  20.176  0.00  0.00    +0.000 C 
BRANCH  25  26
ATOM     26  C   UNL     1       2.074   7.696  19.634  0.00  0.00    +0.000 A 
ATOM     27  C   UNL     1       1.203   8.520  20.396  0.00  0.00    +0.000 A 
ATOM     28  C   UNL     1       0.793   8.237  21.820  0.00  0.00    +0.000 C 
ATOM     29  C   UNL     1       0.663   9.687  19.824  0.00  0.00    +0.000 A 
ATOM     30  C   UNL     1       1.007  10.065  18.538  0.00  0.00    +0.000 A 
ATOM     31  C   UNL     1       1.917   9.320  17.809  0.00  0.00    +0.000 A 
ATOM     32  C   UNL     1       2.484   8.151  18.343  0.00  0.00    +0.000 A 
ATOM     33  C   UNL     1       3.531   7.468  17.493  0.00  0.00    +0.000 C 
BRANCH  30  34
ATOM     34  O   UNL     1       0.489  11.183  17.957  0.00  0.00    +0.000 OA
ATOM     35  H   UNL     1       0.539  11.915  18.594  0.00  0.00    +0.000 HD
ENDBRANCH  30  34
ENDBRANCH  25  26
ENDBRANCH  21  25
ENDBRANCH   2  21
TORSDOF 10
ENDMDL
MODEL 2
REMARK VINA RESULT:      -8.0      4.039      6.711
REMARK  Name = 
REMARK  13 active torsions:
REMARK  status: ('A' for Active; 'I' for Inactive)
REMARK    1  A    between atoms: C_1  and  O_2
REMARK    2  A    between atoms: O_2  and  C_3
REMARK    3  A    between atoms: C_6  and  C_7
REMARK    4  A    between atoms: C_7  and  C_8
REMARK    5  A    between atoms: C_15  and  C_16
REMARK    6  A    between atoms: C_16  and  N_17
REMARK    7  A    between atoms: C_18  and  C_20
REMARK    8  A    between atoms: C_20  and  N_21
REMARK    9  A    between atoms: C_20  and  C_22
REMARK   10  A    between atoms: C_22  and  C_23
REMARK   11  A    between atoms: C_24  and  C_25
REMARK   12  A    between atoms: C_27  and  O_28
REMARK   13  A    between atoms: C_30  and  C_31
REMARK                            x       y       z     vdW  Elec       q    Type
REMARK                         _______ _______ _______ _____ _____    ______ ____
ROOT
ATOM      1  N   UNL     1       0.843  10.051  18.280  0.00  0.00    +0.000 N 
ATOM      2  C   UNL     1       0.729  11.352  18.650  0.00  0.00    +0.000 C 
ATOM      3  O   UNL     1       1.703  12.078  18.864  0.00  0.00    +0.000 OA
ATOM      4  H   UNL     1       0.020   9.514  18.115  0.00  0.00    +0.000 HD
ENDROOT
BRANCH   1   5
ATOM      5  C   UNL     1       2.081   9.379  17.954  0.00  0.00    +0.000 C 
BRANCH   5  11
ATOM      6  C   UNL     1       1.840   7.856  19.947  0.00  0.00    +0.000 A 
ATOM      7  C   UNL     1       1.891   6.587  20.537  0.00  0.00    +0.000 A 
ATOM      8  C   UNL     1       2.303   5.478  19.798  0.00  0.00    +0.000 A 
ATOM      9  C   UNL     1       2.638   5.608  18.450  0.00  0.00    +0.000 A 
ATOM     10  C   UNL     1       2.552   6.875  17.858  0.00  0.00    +0.000 A 
ATOM     11  C   UNL     1       2.171   8.015  18.594  0.00  0.00    +0.000 A 
BRANCH   6  13
ATOM     12  C   UNL     1       1.179   8.750  22.013  0.00  0.00    +0.000 C 
ATOM     13  O   UNL     1       1.438   8.974  20.631  0.00  0.00    +0.000 OA
ENDBRANCH   6  13
BRANCH   9  14
ATOM     14  C   UNL     1       3.108   4.418  17.650  0.00  0.00    +0.000 C 
BRANCH  14  15
ATOM     15  C   UNL     1       4.582   4.445  17.317  0.00  0.00    +0.000 A 
ATOM     16  C   UNL     1       5.017   4.237  15.999  0.00  0.00    +0.000 A 
ATOM     17  C   UNL     1       6.373   4.308  15.679  0.00  0.00    +0.000 A 
ATOM     18  C   UNL     1       7.312   4.576  16.672  0.00  0.00    +0.000 A 
ATOM     19  C   UNL     1       6.896   4.754  17.991  0.00  0.00    +0.000 A 
ATOM     20  C   UNL     1       5.539   4.683  18.314  0.00  0.00    +0.000 A 
ENDBRANCH  14  15
ENDBRANCH   9  14
ENDBRANCH   5  11
ENDBRANCH   1   5
BRANCH   2  21
ATOM     21  C   UNL     1      -0.722  11.921  18.721  0.00  0.00    +0.000 C 
BRANCH  21  22
ATOM     22  N   UNL     1      -0.919  12.803  17.537  0.00  0.00    +0.000 NA
ATOM     23  H   UNL     1      -0.136  13.460  17.490  0.00  0.00    +0.000 HD
ATOM     24  H   UNL     1      -1.714  13.414  17.760  0.00  0.00    +0.000 HD
ENDBRANCH  21  22
BRANCH  21  25
ATOM     25  C   UNL     1      -1.905  10.915  18.807  0.00  0.00    +0.000 C 
BRANCH  25  26
ATOM     26  C   UNL     1      -3.259  11.422  18.302  0.00  0.00    +0.000 A 
ATOM     27  C   UNL     1      -4.090  12.213  19.141  0.00  0.00    +0.000 A 
ATOM     28  C   UNL     1      -3.672  12.754  20.487  0.00  0.00    +0.000 C 
ATOM     29  C   UNL     1      -5.397  12.536  18.731  0.00  0.00    +0.000 A 
ATOM     30  C   UNL     1      -5.868  12.128  17.495  0.00  0.00    +0.000 A 
ATOM     31  C   UNL     1      -5.048  11.427  16.629  0.00  0.00    +0.000 A 
ATOM     32  C   UNL     1      -3.735  11.088  16.997  0.00  0.00    +0.000 A 
ATOM     33  C   UNL     1      -2.901  10.401  15.938  0.00  0.00    +0.000 C 
BRANCH  30  34
ATOM     34  O   UNL     1      -7.133  12.416  17.080  0.00  0.00    +0.000 OA
ATOM     35  H   UNL     1      -7.639  12.750  17.840  0.00  0.00    +0.000 HD
ENDBRANCH  30  34
ENDBRANCH  25  26
ENDBRANCH  21  25
ENDBRANCH   2  21
TORSDOF 10
ENDMDL
MODEL 3
REMARK VINA RESULT:      -8.0      4.020      6.901
REMARK  Name = 
REMARK  13 active torsions:
REMARK  status: ('A' for Active; 'I' for Inactive)
REMARK    1  A    between atoms: C_1  and  O_2
REMARK    2  A    between atoms: O_2  and  C_3
REMARK    3  A    between atoms: C_6  and  C_7
REMARK    4  A    between atoms: C_7  and  C_8
REMARK    5  A    between atoms: C_15  and  C_16
REMARK    6  A    between atoms: C_16  and  N_17
REMARK    7  A    between atoms: C_18  and  C_20
REMARK    8  A    between atoms: C_20  and  N_21
REMARK    9  A    between atoms: C_20  and  C_22
REMARK   10  A    between atoms: C_22  and  C_23
REMARK   11  A    between atoms: C_24  and  C_25
REMARK   12  A    between atoms: C_27  and  O_28
REMARK   13  A    between atoms: C_30  and  C_31
REMARK                            x       y       z     vdW  Elec       q    Type
REMARK                         _______ _______ _______ _____ _____    ______ ____
ROOT
ATOM      1  N   UNL     1       0.846  10.206  18.318  0.00  0.00    +0.000 N 
ATOM      2  C   UNL     1       0.719  11.520  18.634  0.00  0.00    +0.000 C 
ATOM      3  O   UNL     1       1.685  12.273  18.786  0.00  0.00    +0.000 OA
ATOM      4  H   UNL     1       0.029   9.648  18.203  0.00  0.00    +0.000 HD
ENDROOT
BRANCH   1   5
ATOM      5  C   UNL     1       2.087   9.542  17.984  0.00  0.00    +0.000 C 
BRANCH   5  11
ATOM      6  C   UNL     1       1.846   7.979  19.946  0.00  0.00    +0.000 A 
ATOM      7  C   UNL     1       1.895   6.698  20.509  0.00  0.00    +0.000 A 
ATOM      8  C   UNL     1       2.304   5.604  19.747  0.00  0.00    +0.000 A 
ATOM      9  C   UNL     1       2.637   5.761  18.401  0.00  0.00    +0.000 A 
ATOM     10  C   UNL     1       2.553   7.040  17.836  0.00  0.00    +0.000 A 
ATOM     11  C   UNL     1       2.175   8.165  18.596  0.00  0.00    +0.000 A 
BRANCH   6  13
ATOM     12  C   UNL     1       0.451   8.817  21.635  0.00  0.00    +0.000 C 
ATOM     13  O   UNL     1       1.447   9.083  20.653  0.00  0.00    +0.000 OA
ENDBRANCH   6  13
BRANCH   9  14
ATOM     14  C   UNL     1       3.104   4.587  17.576  0.00  0.00    +0.000 C 
BRANCH  14  15
ATOM     15  C   UNL     1       4.582   4.605  17.262  0.00  0.00    +0.000 A 
ATOM     16  C   UNL     1       5.527   4.726  18.292  0.00  0.00    +0.000 A 
ATOM     17  C   UNL     1       6.894   4.695  18.011  0.00  0.00    +0.000 A 
ATOM     18  C   UNL     1       7.333   4.555  16.696  0.00  0.00    +0.000 A 
ATOM     19  C   UNL     1       6.405   4.466  15.660  0.00  0.00    +0.000 A 
ATOM     20  C   UNL     1       5.037   4.496  15.939  0.00  0.00    +0.000 A 
ENDBRANCH  14  15
ENDBRANCH   9  14
ENDBRANCH   5  11
ENDBRANCH   1   5
BRANCH   2  21
ATOM     21  C   UNL     1      -0.739  12.066  18.725  0.00  0.00    +0.000 C 
BRANCH  21  22
ATOM     22  N   UNL     1      -1.061  12.713  17.423  0.00  0.00    +0.000 NA
ATOM     23  H   UNL     1      -1.173  11.979  16.717  0.00  0.00    +0.000 HD
ATOM     24  H   UNL     1      -0.206  13.192  17.117  0.00  0.00    +0.000 HD
ENDBRANCH  21  22
BRANCH  21  25
ATOM     25  C   UNL     1      -1.878  11.071  19.093  0.00  0.00    +0.000 C 
BRANCH  25  26
ATOM     26  C   UNL     1      -3.262  11.389  18.518  0.00  0.00    +0.000 A 
ATOM     27  C   UNL     1      -3.660  10.855  17.264  0.00  0.00    +0.000 A 
ATOM     28  C   UNL     1      -2.871   9.830  16.486  0.00  0.00    +0.000 C 
ATOM     29  C   UNL     1      -4.862  11.281  16.669  0.00  0.00    +0.000 A 
ATOM     30  C   UNL     1      -5.685  12.187  17.317  0.00  0.00    +0.000 A 
ATOM     31  C   UNL     1      -5.356  12.657  18.575  0.00  0.00    +0.000 A 
ATOM     32  C   UNL     1      -4.167  12.253  19.207  0.00  0.00    +0.000 A 
ATOM     33  C   UNL     1      -3.955  12.760  20.616  0.00  0.00    +0.000 C 
BRANCH  30  34
ATOM     34  O   UNL     1      -6.847  12.625  16.758  0.00  0.00    +0.000 OA
ATOM     35  H   UNL     1      -6.980  12.160  15.915  0.00  0.00    +0.000 HD
ENDBRANCH  30  34
ENDBRANCH  25  26
ENDBRANCH  21  25
ENDBRANCH   2  21
TORSDOF 10
ENDMDL
MODEL 4
REMARK VINA RESULT:      -7.6      1.828      4.095
REMARK  Name = 
REMARK  13 active torsions:
REMARK  status: ('A' for Active; 'I' for Inactive)
REMARK    1  A    between atoms: C_1  and  O_2
REMARK    2  A    between atoms: O_2  and  C_3
REMARK    3  A    between atoms: C_6  and  C_7
REMARK    4  A    between atoms: C_7  and  C_8
REMARK    5  A    between atoms: C_15  and  C_16
REMARK    6  A    between atoms: C_16  and  N_17
REMARK    7  A    between atoms: C_18  and  C_20
REMARK    8  A    between atoms: C_20  and  N_21
REMARK    9  A    between atoms: C_20  and  C_22
REMARK   10  A    between atoms: C_22  and  C_23
REMARK   11  A    between atoms: C_24  and  C_25
REMARK   12  A    between atoms: C_27  and  O_28
REMARK   13  A    between atoms: C_30  and  C_31
REMARK                            x       y       z     vdW  Elec       q    Type
REMARK                         _______ _______ _______ _____ _____    ______ ____
ROOT
ATOM      1  N   UNL     1       3.742   6.722  18.250  0.00  0.00    +0.000 N 
ATOM      2  C   UNL     1       2.617   7.222  18.821  0.00  0.00    +0.000 C 
ATOM      3  O   UNL     1       1.944   8.120  18.308  0.00  0.00    +0.000 OA
ATOM      4  H   UNL     1       4.242   5.993  18.709  0.00  0.00    +0.000 HD
ENDROOT
BRANCH   1   5
ATOM      5  C   UNL     1       4.232   7.057  16.931  0.00  0.00    +0.000 C 
BRANCH   5  11
ATOM      6  C   UNL     1       5.683   5.021  17.250  0.00  0.00    +0.000 A 
ATOM      7  C   UNL     1       6.532   4.028  16.748  0.00  0.00    +0.000 A 
ATOM      8  C   UNL     1       6.911   4.030  15.406  0.00  0.00    +0.000 A 
ATOM      9  C   UNL     1       6.422   5.002  14.532  0.00  0.00    +0.000 A 
ATOM     10  C   UNL     1       5.546   5.973  15.034  0.00  0.00    +0.000 A 
ATOM     11  C   UNL     1       5.176   6.009  16.394  0.00  0.00    +0.000 A 
BRANCH   6  13
ATOM     12  C   UNL     1       6.343   5.224  19.492  0.00  0.00    +0.000 C 
ATOM     13  O   UNL     1       5.279   5.058  18.559  0.00  0.00    +0.000 OA
ENDBRANCH   6  13
BRANCH   9  14
ATOM     14  C   UNL     1       6.846   5.026  13.084  0.00  0.00    +0.000 C 
BRANCH  14  15
ATOM     15  C   UNL     1       6.497   3.770  12.321  0.00  0.00    +0.000 A 
ATOM     16  C   UNL     1       7.509   2.935  11.823  0.00  0.00    +0.000 A 
ATOM     17  C   UNL     1       7.191   1.749  11.160  0.00  0.00    +0.000 A 
ATOM     18  C   UNL     1       5.858   1.389  10.974  0.00  0.00    +0.000 A 
ATOM     19  C   UNL     1       4.842   2.225  11.435  0.00  0.00    +0.000 A 
ATOM     20  C   UNL     1       5.159   3.412  12.100  0.00  0.00    +0.000 A 
ENDBRANCH  14  15
ENDBRANCH   9  14
ENDBRANCH   5  11
ENDBRANCH   1   5
BRANCH   2  21
ATOM     21  C   UNL     1       2.159   6.542  20.147  0.00  0.00    +0.000 C 
BRANCH  21  22
ATOM     22  N   UNL     1       1.501   7.582  20.985  0.00  0.00    +0.000 NA
ATOM     23  H   UNL     1       0.767   7.132  21.540  0.00  0.00    +0.000 HD
ATOM     24  H   UNL     1       0.966   8.177  20.342  0.00  0.00    +0.000 HD
ENDBRANCH  21  22
BRANCH  21  25
ATOM     25  C   UNL     1       1.227   5.299  20.055  0.00  0.00    +0.000 C 
BRANCH  25  26
ATOM     26  C   UNL     1       1.880   4.000  19.573  0.00  0.00    +0.000 A 
ATOM     27  C   UNL     1       2.454   3.094  20.505  0.00  0.00    +0.000 A 
ATOM     28  C   UNL     1       2.332   3.223  22.003  0.00  0.00    +0.000 C 
ATOM     29  C   UNL     1       3.193   1.989  20.044  0.00  0.00    +0.000 A 
ATOM     30  C   UNL     1       3.332   1.750  18.688  0.00  0.00    +0.000 A 
ATOM     31  C   UNL     1       2.713   2.574  17.765  0.00  0.00    +0.000 A 
ATOM     32  C   UNL     1       1.961   3.686  18.182  0.00  0.00    +0.000 A 
ATOM     33  C   UNL     1       1.257   4.463  17.092  0.00  0.00    +0.000 C 
BRANCH  30  34
ATOM     34  O   UNL     1       4.053   0.696  18.216  0.00  0.00    +0.000 OA
ATOM     35  H   UNL     1       3.565  -0.123  18.406  0.00  0.00    +0.000 HD
ENDBRANCH  30  34
ENDBRANCH  25  26
ENDBRANCH  21  25
ENDBRANCH   2  21
TORSDOF 10
ENDMDL
MODEL 5
REMARK VINA RESULT:      -7.6      2.704      4.946
REMARK  Name = 
REMARK  13 active torsions:
REMARK  status: ('A' for Active; 'I' for Inactive)
REMARK    1  A    between atoms: C_1  and  O_2
REMARK    2  A    between atoms: O_2  and  C_3
REMARK    3  A    between atoms: C_6  and  C_7
REMARK    4  A    between atoms: C_7  and  C_8
REMARK    5  A    between atoms: C_15  and  C_16
REMARK    6  A    between atoms: C_16  and  N_17
REMARK    7  A    between atoms: C_18  and  C_20
REMARK    8  A    between atoms: C_20  and  N_21
REMARK    9  A    between atoms: C_20  and  C_22
REMARK   10  A    between atoms: C_22  and  C_23
REMARK   11  A    between atoms: C_24  and  C_25
REMARK   12  A    between atoms: C_27  and  O_28
REMARK   13  A    between atoms: C_30  and  C_31
REMARK                            x       y       z     vdW  Elec       q    Type
REMARK                         _______ _______ _______ _____ _____    ______ ____
ROOT
ATOM      1  N   UNL     1       1.341   7.622  21.258  0.00  0.00    +0.000 N 
ATOM      2  C   UNL     1       0.294   8.451  21.498  0.00  0.00    +0.000 C 
ATOM      3  O   UNL     1      -0.873   8.058  21.577  0.00  0.00    +0.000 OA
ATOM      4  H   UNL     1       2.263   7.996  21.211  0.00  0.00    +0.000 HD
ENDROOT
BRANCH   1   5
ATOM      5  C   UNL     1       1.269   6.179  21.199  0.00  0.00    +0.000 C 
BRANCH   5  11
ATOM      6  C   UNL     1       1.577   4.328  19.516  0.00  0.00    +0.000 A 
ATOM      7  C   UNL     1       2.118   3.829  18.326  0.00  0.00    +0.000 A 
ATOM      8  C   UNL     1       2.991   4.605  17.563  0.00  0.00    +0.000 A 
ATOM      9  C   UNL     1       3.312   5.905  17.956  0.00  0.00    +0.000 A 
ATOM     10  C   UNL     1       2.741   6.410  19.130  0.00  0.00    +0.000 A 
ATOM     11  C   UNL     1       1.882   5.632  19.933  0.00  0.00    +0.000 A 
BRANCH   6  13
ATOM     12  C   UNL     1       1.350   2.672  21.162  0.00  0.00    +0.000 C 
ATOM     13  O   UNL     1       0.712   3.606  20.296  0.00  0.00    +0.000 OA
ENDBRANCH   6  13
BRANCH   9  14
ATOM     14  C   UNL     1       4.275   6.742  17.149  0.00  0.00    +0.000 C 
BRANCH  14  15
ATOM     15  C   UNL     1       5.357   5.942  16.461  0.00  0.00    +0.000 A 
ATOM     16  C   UNL     1       5.295   5.703  15.079  0.00  0.00    +0.000 A 
ATOM     17  C   UNL     1       6.317   5.006  14.432  0.00  0.00    +0.000 A 
ATOM     18  C   UNL     1       7.406   4.530  15.158  0.00  0.00    +0.000 A 
ATOM     19  C   UNL     1       7.464   4.733  16.536  0.00  0.00    +0.000 A 
ATOM     20  C   UNL     1       6.443   5.430  17.186  0.00  0.00    +0.000 A 
ENDBRANCH  14  15
ENDBRANCH   9  14
ENDBRANCH   5  11
ENDBRANCH   1   5
BRANCH   2  21
ATOM     21  C   UNL     1       0.649   9.949  21.751  0.00  0.00    +0.000 C 
BRANCH  21  22
ATOM     22  N   UNL     1       1.879   9.986  22.590  0.00  0.00    +0.000 NA
ATOM     23  H   UNL     1       1.605   9.885  23.571  0.00  0.00    +0.000 HD
ATOM     24  H   UNL     1       2.228  10.951  22.551  0.00  0.00    +0.000 HD
ENDBRANCH  21  22
BRANCH  21  25
ATOM     25  C   UNL     1       0.847  10.878  20.519  0.00  0.00    +0.000 C 
BRANCH  25  26
ATOM     26  C   UNL     1      -0.282  10.875  19.484  0.00  0.00    +0.000 A 
ATOM     27  C   UNL     1      -1.457  11.644  19.699  0.00  0.00    +0.000 A 
ATOM     28  C   UNL     1      -1.634  12.631  20.826  0.00  0.00    +0.000 C 
ATOM     29  C   UNL     1      -2.554  11.508  18.827  0.00  0.00    +0.000 A 
ATOM     30  C   UNL     1      -2.484  10.662  17.734  0.00  0.00    +0.000 A 
ATOM     31  C   UNL     1      -1.319   9.966  17.461  0.00  0.00    +0.000 A 
ATOM     32  C   UNL     1      -0.199  10.076  18.302  0.00  0.00    +0.000 A 
ATOM     33  C   UNL     1       1.045   9.341  17.858  0.00  0.00    +0.000 C 
BRANCH  30  34
ATOM     34  O   UNL     1      -3.535  10.502  16.883  0.00  0.00    +0.000 OA
ATOM     35  H   UNL     1      -3.356  11.007  16.072  0.00  0.00    +0.000 HD
ENDBRANCH  30  34
ENDBRANCH  25  26
ENDBRANCH  21  25
ENDBRANCH   2  21
TORSDOF 10
ENDMDL
MODEL 6
REMARK VINA RESULT:      -7.6      3.670      6.039
REMARK  Name = 
REMARK  13 active torsions:
REMARK  status: ('A' for Active; 'I' for Inactive)
REMARK    1  A    between atoms: C_1  and  O_2
REMARK    2  A    between atoms: O_2  and  C_3
REMARK    3  A    between atoms: C_6  and  C_7
REMARK    4  A    between atoms: C_7  and  C_8
REMARK    5  A    between atoms: C_15  and  C_16
REMARK    6  A    between atoms: C_16  and  N_17
REMARK    7  A    between atoms: C_18  and  C_20
REMARK    8  A    between atoms: C_20  and  N_21
REMARK    9  A    between atoms: C_20  and  C_22
REMARK   10  A    between atoms: C_22  and  C_23
REMARK   11  A    between atoms: C_24  and  C_25
REMARK   12  A    between atoms: C_27  and  O_28
REMARK   13  A    between atoms: C_30  and  C_31
REMARK                            x       y       z     vdW  Elec       q    Type
REMARK                         _______ _______ _______ _____ _____    ______ ____
ROOT
ATOM      1  N   UNL     1       2.853   8.131  18.267  0.00  0.00    +0.000 N 
ATOM      2  C   UNL     1       1.995   9.176  18.386  0.00  0.00    +0.000 C 
ATOM      3  O   UNL     1       1.847  10.028  17.506  0.00  0.00    +0.000 OA
ATOM      4  H   UNL     1       2.926   7.470  19.009  0.00  0.00    +0.000 HD
ENDROOT
BRANCH   1   5
ATOM      5  C   UNL     1       3.597   7.790  17.075  0.00  0.00    +0.000 C 
BRANCH   5  11
ATOM      6  C   UNL     1       5.793   6.558  17.171  0.00  0.00    +0.000 A 
ATOM      7  C   UNL     1       6.538   5.388  17.364  0.00  0.00    +0.000 A 
ATOM      8  C   UNL     1       5.898   4.171  17.598  0.00  0.00    +0.000 A 
ATOM      9  C   UNL     1       4.507   4.105  17.678  0.00  0.00    +0.000 A 
ATOM     10  C   UNL     1       3.770   5.285  17.518  0.00  0.00    +0.000 A 
ATOM     11  C   UNL     1       4.394   6.520  17.248  0.00  0.00    +0.000 A 
BRANCH   6  13
ATOM     12  C   UNL     1       7.651   7.937  17.559  0.00  0.00    +0.000 C 
ATOM     13  O   UNL     1       6.377   7.777  16.944  0.00  0.00    +0.000 OA
ENDBRANCH   6  13
BRANCH   9  14
ATOM     14  C   UNL     1       3.806   2.788  17.906  0.00  0.00    +0.000 C 
BRANCH  14  15
ATOM     15  C   UNL     1       2.894   2.777  19.111  0.00  0.00    +0.000 A 
ATOM     16  C   UNL     1       3.421   2.618  20.402  0.00  0.00    +0.000 A 
ATOM     17  C   UNL     1       2.587   2.656  21.520  0.00  0.00    +0.000 A 
ATOM     18  C   UNL     1       1.216   2.842  21.362  0.00  0.00    +0.000 A 
ATOM     19  C   UNL     1       0.675   2.970  20.084  0.00  0.00    +0.000 A 
ATOM     20  C   UNL     1       1.508   2.932  18.963  0.00  0.00    +0.000 A 
ENDBRANCH  14  15
ENDBRANCH   9  14
ENDBRANCH   5  11
ENDBRANCH   1   5
BRANCH   2  21
ATOM     21  C   UNL     1       1.129   9.209  19.682  0.00  0.00    +0.000 C 
BRANCH  21  22
ATOM     22  N   UNL     1       1.460   7.995  20.478  0.00  0.00    +0.000 NA
ATOM     23  H   UNL     1       1.915   8.291  21.346  0.00  0.00    +0.000 HD
ATOM     24  H   UNL     1       2.219   7.518  19.977  0.00  0.00    +0.000 HD
ENDBRANCH  21  22
BRANCH  21  25
ATOM     25  C   UNL     1       1.226  10.460  20.603  0.00  0.00    +0.000 C 
BRANCH  25  26
ATOM     26  C   UNL     1      -0.096  10.976  21.180  0.00  0.00    +0.000 A 
ATOM     27  C   UNL     1      -0.897  11.887  20.440  0.00  0.00    +0.000 A 
ATOM     28  C   UNL     1      -0.632  12.287  19.009  0.00  0.00    +0.000 C 
ATOM     29  C   UNL     1      -2.022  12.480  21.042  0.00  0.00    +0.000 A 
ATOM     30  C   UNL     1      -2.383  12.152  22.338  0.00  0.00    +0.000 A 
ATOM     31  C   UNL     1      -1.664  11.206  23.046  0.00  0.00    +0.000 A 
ATOM     32  C   UNL     1      -0.537  10.586  22.481  0.00  0.00    +0.000 A 
ATOM     33  C   UNL     1       0.118   9.505  23.313  0.00  0.00    +0.000 C 
BRANCH  30  34
ATOM     34  O   UNL     1      -3.459  12.721  22.948  0.00  0.00    +0.000 OA
ATOM     35  H   UNL     1      -3.486  12.421  23.872  0.00  0.00    +0.000 HD
ENDBRANCH  30  34
ENDBRANCH  25  26
ENDBRANCH  21  25
ENDBRANCH   2  21
TORSDOF 10
ENDMDL
MODEL 7
REMARK VINA RESULT:      -7.5      2.768      5.348
REMARK  Name = 
REMARK  13 active torsions:
REMARK  status: ('A' for Active; 'I' for Inactive)
REMARK    1  A    between atoms: C_1  and  O_2
REMARK    2  A    between atoms: O_2  and  C_3
REMARK    3  A    between atoms: C_6  and  C_7
REMARK    4  A    between atoms: C_7  and  C_8
REMARK    5  A    between atoms: C_15  and  C_16
REMARK    6  A    between atoms: C_16  and  N_17
REMARK    7  A    between atoms: C_18  and  C_20
REMARK    8  A    between atoms: C_20  and  N_21
REMARK    9  A    between atoms: C_20  and  C_22
REMARK   10  A    between atoms: C_22  and  C_23
REMARK   11  A    between atoms: C_24  and  C_25
REMARK   12  A    between atoms: C_27  and  O_28
REMARK   13  A    between atoms: C_30  and  C_31
REMARK                            x       y       z     vdW  Elec       q    Type
REMARK                         _______ _______ _______ _____ _____    ______ ____
ROOT
ATOM      1  N   UNL     1       1.020   8.172  20.971  0.00  0.00    +0.000 N 
ATOM      2  C   UNL     1      -0.050   8.808  21.511  0.00  0.00    +0.000 C 
ATOM      3  O   UNL     1      -0.877   8.242  22.231  0.00  0.00    +0.000 OA
ATOM      4  H   UNL     1       1.659   8.683  20.401  0.00  0.00    +0.000 HD
ENDROOT
BRANCH   1   5
ATOM      5  C   UNL     1       1.419   6.812  21.259  0.00  0.00    +0.000 C 
BRANCH   5  11
ATOM      6  C   UNL     1       1.640   4.772  19.796  0.00  0.00    +0.000 A 
ATOM      7  C   UNL     1       2.122   4.129  18.650  0.00  0.00    +0.000 A 
ATOM      8  C   UNL     1       2.960   4.800  17.760  0.00  0.00    +0.000 A 
ATOM      9  C   UNL     1       3.305   6.134  17.979  0.00  0.00    +0.000 A 
ATOM     10  C   UNL     1       2.792   6.781  19.110  0.00  0.00    +0.000 A 
ATOM     11  C   UNL     1       1.970   6.112  20.040  0.00  0.00    +0.000 A 
BRANCH   6  13
ATOM     12  C   UNL     1       1.349   2.967  21.266  0.00  0.00    +0.000 C 
ATOM     13  O   UNL     1       0.810   4.156  20.697  0.00  0.00    +0.000 OA
ENDBRANCH   6  13
BRANCH   9  14
ATOM     14  C   UNL     1       4.231   6.860  17.035  0.00  0.00    +0.000 C 
BRANCH  14  15
ATOM     15  C   UNL     1       5.316   5.987  16.446  0.00  0.00    +0.000 A 
ATOM     16  C   UNL     1       5.309   5.667  15.080  0.00  0.00    +0.000 A 
ATOM     17  C   UNL     1       6.334   4.901  14.524  0.00  0.00    +0.000 A 
ATOM     18  C   UNL     1       7.373   4.437  15.328  0.00  0.00    +0.000 A 
ATOM     19  C   UNL     1       7.377   4.721  16.692  0.00  0.00    +0.000 A 
ATOM     20  C   UNL     1       6.351   5.488  17.251  0.00  0.00    +0.000 A 
ENDBRANCH  14  15
ENDBRANCH   9  14
ENDBRANCH   5  11
ENDBRANCH   1   5
BRANCH   2  21
ATOM     21  C   UNL     1      -0.147  10.341  21.238  0.00  0.00    +0.000 C 
BRANCH  21  22
ATOM     22  N   UNL     1       1.146  10.956  21.647  0.00  0.00    +0.000 NA
ATOM     23  H   UNL     1       1.866  10.670  20.977  0.00  0.00    +0.000 HD
ATOM     24  H   UNL     1       1.435  10.477  22.507  0.00  0.00    +0.000 HD
ENDBRANCH  21  22
BRANCH  21  25
ATOM     25  C   UNL     1      -0.499  10.812  19.797  0.00  0.00    +0.000 C 
BRANCH  25  26
ATOM     26  C   UNL     1       0.491  11.781  19.144  0.00  0.00    +0.000 A 
ATOM     27  C   UNL     1       1.585  11.288  18.383  0.00  0.00    +0.000 A 
ATOM     28  C   UNL     1       1.778   9.838  18.010  0.00  0.00    +0.000 C 
ATOM     29  C   UNL     1       2.578  12.174  17.926  0.00  0.00    +0.000 A 
ATOM     30  C   UNL     1       2.478  13.532  18.174  0.00  0.00    +0.000 A 
ATOM     31  C   UNL     1       1.379  14.043  18.843  0.00  0.00    +0.000 A 
ATOM     32  C   UNL     1       0.362  13.194  19.312  0.00  0.00    +0.000 A 
ATOM     33  C   UNL     1      -0.831  13.870  19.949  0.00  0.00    +0.000 C 
BRANCH  30  34
ATOM     34  O   UNL     1       3.431  14.409  17.755  0.00  0.00    +0.000 OA
ATOM     35  H   UNL     1       2.990  15.192  17.385  0.00  0.00    +0.000 HD
ENDBRANCH  30  34
ENDBRANCH  25  26
ENDBRANCH  21  25
ENDBRANCH   2  21
TORSDOF 10
ENDMDL
MODEL 8
REMARK VINA RESULT:      -7.5      3.528      5.651
REMARK  Name = 
REMARK  13 active torsions:
REMARK  status: ('A' for Active; 'I' for Inactive)
REMARK    1  A    between atoms: C_1  and  O_2
REMARK    2  A    between atoms: O_2  and  C_3
REMARK    3  A    between atoms: C_6  and  C_7
REMARK    4  A    between atoms: C_7  and  C_8
REMARK    5  A    between atoms: C_15  and  C_16
REMARK    6  A    between atoms: C_16  and  N_17
REMARK    7  A    between atoms: C_18  and  C_20
REMARK    8  A    between atoms: C_20  and  N_21
REMARK    9  A    between atoms: C_20  and  C_22
REMARK   10  A    between atoms: C_22  and  C_23
REMARK   11  A    between atoms: C_24  and  C_25
REMARK   12  A    between atoms: C_27  and  O_28
REMARK   13  A    between atoms: C_30  and  C_31
REMARK                            x       y       z     vdW  Elec       q    Type
REMARK                         _______ _______ _______ _____ _____    ______ ____
ROOT
ATOM      1  N   UNL     1       1.036   7.296  20.796  0.00  0.00    +0.000 N 
ATOM      2  C   UNL     1       0.915   8.530  21.349  0.00  0.00    +0.000 C 
ATOM      3  O   UNL     1       1.738   8.996  22.141  0.00  0.00    +0.000 OA
ATOM      4  H   UNL     1       0.342   6.974  20.157  0.00  0.00    +0.000 HD
ENDROOT
BRANCH   1   5
ATOM      5  C   UNL     1       2.180   6.423  20.939  0.00  0.00    +0.000 C 
BRANCH   5  11
ATOM      6  C   UNL     1       1.678   4.464  19.434  0.00  0.00    +0.000 A 
ATOM      7  C   UNL     1       1.890   3.731  18.261  0.00  0.00    +0.000 A 
ATOM      8  C   UNL     1       2.878   4.115  17.353  0.00  0.00    +0.000 A 
ATOM      9  C   UNL     1       3.647   5.256  17.583  0.00  0.00    +0.000 A 
ATOM     10  C   UNL     1       3.406   6.004  18.743  0.00  0.00    +0.000 A 
ATOM     11  C   UNL     1       2.436   5.616  19.689  0.00  0.00    +0.000 A 
BRANCH   6  13
ATOM     12  C   UNL     1       1.046   2.997  21.152  0.00  0.00    +0.000 C 
ATOM     13  O   UNL     1       0.717   4.129  20.353  0.00  0.00    +0.000 OA
ENDBRANCH   6  13
BRANCH   9  14
ATOM     14  C   UNL     1       4.734   5.664  16.619  0.00  0.00    +0.000 C 
BRANCH  14  15
ATOM     15  C   UNL     1       5.987   6.180  17.288  0.00  0.00    +0.000 A 
ATOM     16  C   UNL     1       6.473   7.464  16.997  0.00  0.00    +0.000 A 
ATOM     17  C   UNL     1       7.603   7.961  17.648  0.00  0.00    +0.000 A 
ATOM     18  C   UNL     1       8.268   7.177  18.589  0.00  0.00    +0.000 A 
ATOM     19  C   UNL     1       7.814   5.889  18.865  0.00  0.00    +0.000 A 
ATOM     20  C   UNL     1       6.683   5.389  18.214  0.00  0.00    +0.000 A 
ENDBRANCH  14  15
ENDBRANCH   9  14
ENDBRANCH   5  11
ENDBRANCH   1   5
BRANCH   2  21
ATOM     21  C   UNL     1      -0.299   9.382  20.867  0.00  0.00    +0.000 C 
BRANCH  21  22
ATOM     22  N   UNL     1      -0.275  10.668  21.616  0.00  0.00    +0.000 NA
ATOM     23  H   UNL     1       0.211  10.515  22.505  0.00  0.00    +0.000 HD
ATOM     24  H   UNL     1      -1.240  10.849  21.915  0.00  0.00    +0.000 HD
ENDBRANCH  21  22
BRANCH  21  25
ATOM     25  C   UNL     1      -0.430   9.684  19.346  0.00  0.00    +0.000 C 
BRANCH  25  26
ATOM     26  C   UNL     1       0.424  10.838  18.812  0.00  0.00    +0.000 A 
ATOM     27  C   UNL     1       1.712  10.587  18.266  0.00  0.00    +0.000 A 
ATOM     28  C   UNL     1       2.273   9.210  18.007  0.00  0.00    +0.000 C 
ATOM     29  C   UNL     1       2.553  11.664  17.930  0.00  0.00    +0.000 A 
ATOM     30  C   UNL     1       2.121  12.970  18.085  0.00  0.00    +0.000 A 
ATOM     31  C   UNL     1       0.841  13.235  18.538  0.00  0.00    +0.000 A 
ATOM     32  C   UNL     1      -0.033  12.189  18.881  0.00  0.00    +0.000 A 
ATOM     33  C   UNL     1      -1.435  12.594  19.278  0.00  0.00    +0.000 C 
BRANCH  30  34
ATOM     34  O   UNL     1       2.920  14.030  17.781  0.00  0.00    +0.000 OA
ATOM     35  H   UNL     1       3.368  14.323  18.592  0.00  0.00    +0.000 HD
ENDBRANCH  30  34
ENDBRANCH  25  26
ENDBRANCH  21  25
ENDBRANCH   2  21
TORSDOF 10
ENDMDL
MODEL 9
REMARK VINA RESULT:      -7.5      5.190      7.920
REMARK  Name = 
REMARK  13 active torsions:
REMARK  status: ('A' for Active; 'I' for Inactive)
REMARK    1  A    between atoms: C_1  and  O_2
REMARK    2  A    between atoms: O_2  and  C_3
REMARK    3  A    between atoms: C_6  and  C_7
REMARK    4  A    between atoms: C_7  and  C_8
REMARK    5  A    between atoms: C_15  and  C_16
REMARK    6  A    between atoms: C_16  and  N_17
REMARK    7  A    between atoms: C_18  and  C_20
REMARK    8  A    between atoms: C_20  and  N_21
REMARK    9  A    between atoms: C_20  and  C_22
REMARK   10  A    between atoms: C_22  and  C_23
REMARK   11  A    between atoms: C_24  and  C_25
REMARK   12  A    between atoms: C_27  and  O_28
REMARK   13  A    between atoms: C_30  and  C_31
REMARK                            x       y       z     vdW  Elec       q    Type
REMARK                         _______ _______ _______ _____ _____    ______ ____
ROOT
ATOM      1  N   UNL     1      -0.254  10.046  21.344  0.00  0.00    +0.000 N 
ATOM      2  C   UNL     1      -0.798  10.774  22.353  0.00  0.00    +0.000 C 
ATOM      3  O   UNL     1      -0.429  10.680  23.526  0.00  0.00    +0.000 OA
ATOM      4  H   UNL     1      -0.590  10.169  20.415  0.00  0.00    +0.000 HD
ENDROOT
BRANCH   1   5
ATOM      5  C   UNL     1       0.899   9.182  21.464  0.00  0.00    +0.000 C 
BRANCH   5  11
ATOM      6  C   UNL     1       1.551   9.780  19.104  0.00  0.00    +0.000 A 
ATOM      7  C   UNL     1       2.114   9.453  17.865  0.00  0.00    +0.000 A 
ATOM      8  C   UNL     1       2.571   8.159  17.614  0.00  0.00    +0.000 A 
ATOM      9  C   UNL     1       2.506   7.179  18.605  0.00  0.00    +0.000 A 
ATOM     10  C   UNL     1       1.973   7.522  19.853  0.00  0.00    +0.000 A 
ATOM     11  C   UNL     1       1.475   8.815  20.118  0.00  0.00    +0.000 A 
BRANCH   6  13
ATOM     12  C   UNL     1       1.701  12.074  18.635  0.00  0.00    +0.000 C 
ATOM     13  O   UNL     1       1.092  11.038  19.400  0.00  0.00    +0.000 OA
ENDBRANCH   6  13
BRANCH   9  14
ATOM     14  C   UNL     1       2.976   5.770  18.333  0.00  0.00    +0.000 C 
BRANCH  14  15
ATOM     15  C   UNL     1       2.358   4.731  19.240  0.00  0.00    +0.000 A 
ATOM     16  C   UNL     1       2.816   4.573  20.557  0.00  0.00    +0.000 A 
ATOM     17  C   UNL     1       2.216   3.647  21.412  0.00  0.00    +0.000 A 
ATOM     18  C   UNL     1       1.160   2.860  20.958  0.00  0.00    +0.000 A 
ATOM     19  C   UNL     1       0.716   2.984  19.643  0.00  0.00    +0.000 A 
ATOM     20  C   UNL     1       1.315   3.910  18.785  0.00  0.00    +0.000 A 
ENDBRANCH  14  15
ENDBRANCH   9  14
ENDBRANCH   5  11
ENDBRANCH   1   5
BRANCH   2  21
ATOM     21  C   UNL     1      -1.886  11.813  21.940  0.00  0.00    +0.000 C 
BRANCH  21  22
ATOM     22  N   UNL     1      -1.828  12.939  22.913  0.00  0.00    +0.000 NA
ATOM     23  H   UNL     1      -1.476  12.578  23.804  0.00  0.00    +0.000 HD
ATOM     24  H   UNL     1      -2.801  13.180  23.135  0.00  0.00    +0.000 HD
ENDBRANCH  21  22
BRANCH  21  25
ATOM     25  C   UNL     1      -1.845  12.388  20.495  0.00  0.00    +0.000 C 
BRANCH  25  26
ATOM     26  C   UNL     1      -3.107  12.182  19.651  0.00  0.00    +0.000 A 
ATOM     27  C   UNL     1      -4.302  12.886  19.960  0.00  0.00    +0.000 A 
ATOM     28  C   UNL     1      -4.401  13.985  20.990  0.00  0.00    +0.000 C 
ATOM     29  C   UNL     1      -5.496  12.570  19.286  0.00  0.00    +0.000 A 
ATOM     30  C   UNL     1      -5.510  11.608  18.291  0.00  0.00    +0.000 A 
ATOM     31  C   UNL     1      -4.341  10.969  17.919  0.00  0.00    +0.000 A 
ATOM     32  C   UNL     1      -3.125  11.257  18.563  0.00  0.00    +0.000 A 
ATOM     33  C   UNL     1      -1.899  10.564  18.014  0.00  0.00    +0.000 C 
BRANCH  30  34
ATOM     34  O   UNL     1      -6.655  11.274  17.633  0.00  0.00    +0.000 OA
ATOM     35  H   UNL     1      -6.450  11.171  16.689  0.00  0.00    +0.000 HD
ENDBRANCH  30  34
ENDBRANCH  25  26
ENDBRANCH  21  25
ENDBRANCH   2  21
TORSDOF 10
ENDMDL
