MODEL 1
REMARK VINA RESULT:      -7.1      0.000      0.000
REMARK  Name = 
REMARK  9 active torsions:
REMARK  status: ('A' for Active; 'I' for Inactive)
REMARK    1  A    between atoms: C_1  and  O_2
REMARK    2  A    between atoms: O_2  and  C_3
REMARK    3  A    between atoms: C_6  and  O_7
REMARK    4  A    between atoms: O_7  and  C_8
REMARK    5  A    between atoms: C_9  and  C_10
REMARK    6  A    between atoms: C_13  and  S_14
REMARK    7  A    between atoms: S_14  and  C_15
REMARK    8  A    between atoms: C_15  and  C_16
REMARK    9  A    between atoms: N_18  and  C_19
REMARK                            x       y       z     vdW  Elec       q    Type
REMARK                         _______ _______ _______ _____ _____    ______ ____
ROOT
ATOM      1  C   UNL     1       1.365   9.014  19.474  0.00  0.00    +0.000 A 
ATOM      2  N   UNL     1       1.480   8.078  20.405  0.00  0.00    +0.000 NA
ATOM      3  N   UNL     1       2.292   7.097  19.875  0.00  0.00    +0.000 NA
ATOM      4  C   UNL     1       2.598   7.483  18.665  0.00  0.00    +0.000 A 
ATOM      5  O   UNL     1       2.061   8.702  18.339  0.00  0.00    +0.000 OA
ENDROOT
BRANCH   1  10
ATOM      6  C   UNL     1       0.279  12.331  20.822  0.00  0.00    +0.000 A 
ATOM      7  C   UNL     1      -0.675  12.740  19.903  0.00  0.00    +0.000 A 
ATOM      8  C   UNL     1      -1.007  11.926  18.828  0.00  0.00    +0.000 A 
ATOM      9  C   UNL     1      -0.403  10.676  18.640  0.00  0.00    +0.000 A 
ATOM     10  C   UNL     1       0.606  10.258  19.543  0.00  0.00    +0.000 A 
ATOM     11  C   UNL     1       0.914  11.113  20.632  0.00  0.00    +0.000 A 
BRANCH   6  13
ATOM     12  C   UNL     1       1.273  14.360  21.529  0.00  0.00    +0.000 C 
ATOM     13  O   UNL     1       0.505  13.206  21.846  0.00  0.00    +0.000 OA
ENDBRANCH   6  13
BRANCH   9  14
ATOM     14  O   UNL     1      -0.747   9.868  17.585  0.00  0.00    +0.000 OA
ATOM     15  C   UNL     1      -2.122   9.924  17.191  0.00  0.00    +0.000 C 
ENDBRANCH   9  14
ENDBRANCH   1  10
BRANCH   4  16
ATOM     16  S   UNL     1       3.560   6.559  17.555  0.00  0.00    +0.000 S 
BRANCH  16  17
ATOM     17  C   UNL     1       5.037   6.244  18.566  0.00  0.00    +0.000 C 
BRANCH  17  18
ATOM     18  C   UNL     1       5.030   4.820  19.113  0.00  0.00    +0.000 C 
ATOM     19  O   UNL     1       6.046   4.129  19.123  0.00  0.00    +0.000 OA
ATOM     20  N   UNL     1       3.799   4.371  19.558  0.00  0.00    +0.000 N 
ATOM     21  H   UNL     1       2.998   4.990  19.473  0.00  0.00    +0.000 HD
BRANCH  20  22
ATOM     22  C   UNL     1       3.559   2.984  19.953  0.00  0.00    +0.000 C 
ATOM     23  C   UNL     1       2.391   2.844  20.932  0.00  0.00    +0.000 C 
ATOM     24  C   UNL     1       1.010   3.028  20.305  0.00  0.00    +0.000 C 
ATOM     25  C   UNL     1       0.806   2.306  18.974  0.00  0.00    +0.000 C 
ATOM     26  C   UNL     1       2.009   2.309  18.036  0.00  0.00    +0.000 C 
ATOM     27  C   UNL     1       3.335   2.064  18.746  0.00  0.00    +0.000 C 
ENDBRANCH  20  22
ENDBRANCH  17  18
ENDBRANCH  16  17
ENDBRANCH   4  16
TORSDOF 7
ENDMDL
MODEL 2
REMARK VINA RESULT:      -7.0      2.763      8.651
REMARK  Name = 
REMARK  9 active torsions:
REMARK  status: ('A' for Active; 'I' for Inactive)
REMARK    1  A    between atoms: C_1  and  O_2
REMARK    2  A    between atoms: O_2  and  C_3
REMARK    3  A    between atoms: C_6  and  O_7
REMARK    4  A    between atoms: O_7  and  C_8
REMARK    5  A    between atoms: C_9  and  C_10
REMARK    6  A    between atoms: C_13  and  S_14
REMARK    7  A    between atoms: S_14  and  C_15
REMARK    8  A    between atoms: C_15  and  C_16
REMARK    9  A    between atoms: N_18  and  C_19
REMARK                            x       y       z     vdW  Elec       q    Type
REMARK                         _______ _______ _______ _____ _____    ______ ____
ROOT
ATOM      1  C   UNL     1       3.056   6.312  18.909  0.00  0.00    +0.000 A 
ATOM      2  N   UNL     1       2.546   5.744  19.993  0.00  0.00    +0.000 NA
ATOM      3  N   UNL     1       1.732   6.688  20.583  0.00  0.00    +0.000 NA
ATOM      4  C   UNL     1       1.812   7.762  19.843  0.00  0.00    +0.000 A 
ATOM      5  O   UNL     1       2.622   7.599  18.748  0.00  0.00    +0.000 OA
ENDROOT
BRANCH   1  10
ATOM      6  C   UNL     1       6.170   6.003  16.860  0.00  0.00    +0.000 A 
ATOM      7  C   UNL     1       5.970   4.819  16.169  0.00  0.00    +0.000 A 
ATOM      8  C   UNL     1       4.794   4.100  16.338  0.00  0.00    +0.000 A 
ATOM      9  C   UNL     1       3.779   4.544  17.195  0.00  0.00    +0.000 A 
ATOM     10  C   UNL     1       3.982   5.730  17.943  0.00  0.00    +0.000 A 
ATOM     11  C   UNL     1       5.192   6.441  17.740  0.00  0.00    +0.000 A 
BRANCH   6  13
ATOM     12  C   UNL     1       7.746   7.647  17.508  0.00  0.00    +0.000 C 
ATOM     13  O   UNL     1       7.355   6.630  16.596  0.00  0.00    +0.000 OA
ENDBRANCH   6  13
BRANCH   9  14
ATOM     14  O   UNL     1       2.611   3.838  17.347  0.00  0.00    +0.000 OA
ATOM     15  C   UNL     1       2.767   2.471  17.744  0.00  0.00    +0.000 C 
ENDBRANCH   9  14
ENDBRANCH   1  10
BRANCH   4  16
ATOM     16  S   UNL     1       1.010   9.259  20.197  0.00  0.00    +0.000 S 
BRANCH  16  17
ATOM     17  C   UNL     1      -0.062   8.752  21.573  0.00  0.00    +0.000 C 
BRANCH  17  18
ATOM     18  C   UNL     1      -0.204   9.874  22.596  0.00  0.00    +0.000 C 
ATOM     19  O   UNL     1       0.252   9.771  23.734  0.00  0.00    +0.000 OA
ATOM     20  N   UNL     1      -0.902  10.984  22.155  0.00  0.00    +0.000 N 
ATOM     21  H   UNL     1      -1.286  10.971  21.214  0.00  0.00    +0.000 HD
BRANCH  20  22
ATOM     22  C   UNL     1      -1.287  12.082  23.041  0.00  0.00    +0.000 C 
ATOM     23  C   UNL     1      -0.759  13.436  22.565  0.00  0.00    +0.000 C 
ATOM     24  C   UNL     1      -1.483  14.009  21.348  0.00  0.00    +0.000 C 
ATOM     25  C   UNL     1      -3.007  13.911  21.400  0.00  0.00    +0.000 C 
ATOM     26  C   UNL     1      -3.560  12.624  22.004  0.00  0.00    +0.000 C 
ATOM     27  C   UNL     1      -2.805  12.161  23.245  0.00  0.00    +0.000 C 
ENDBRANCH  20  22
ENDBRANCH  17  18
ENDBRANCH  16  17
ENDBRANCH   4  16
TORSDOF 7
ENDMDL
MODEL 3
REMARK VINA RESULT:      -6.9      1.042      1.042
REMARK  Name = 
REMARK  9 active torsions:
REMARK  status: ('A' for Active; 'I' for Inactive)
REMARK    1  A    between atoms: C_1  and  O_2
REMARK    2  A    between atoms: O_2  and  C_3
REMARK    3  A    between atoms: C_6  and  O_7
REMARK    4  A    between atoms: O_7  and  C_8
REMARK    5  A    between atoms: C_9  and  C_10
REMARK    6  A    between atoms: C_13  and  S_14
REMARK    7  A    between atoms: S_14  and  C_15
REMARK    8  A    between atoms: C_15  and  C_16
REMARK    9  A    between atoms: N_18  and  C_19
REMARK                            x       y       z     vdW  Elec       q    Type
REMARK                         _______ _______ _______ _____ _____    ______ ____
ROOT
ATOM      1  C   UNL     1       1.451   9.313  18.766  0.00  0.00    +0.000 A 
ATOM      2  N   UNL     1       1.466   8.499  19.813  0.00  0.00    +0.000 NA
ATOM      3  N   UNL     1       2.276   7.437  19.471  0.00  0.00    +0.000 NA
ATOM      4  C   UNL     1       2.680   7.657  18.248  0.00  0.00    +0.000 A 
ATOM      5  O   UNL     1       2.212   8.839  17.733  0.00  0.00    +0.000 OA
ENDROOT
BRANCH   1  10
ATOM      6  C   UNL     1       0.924  13.015  18.843  0.00  0.00    +0.000 A 
ATOM      7  C   UNL     1      -0.381  13.151  18.399  0.00  0.00    +0.000 A 
ATOM      8  C   UNL     1      -1.135  12.028  18.085  0.00  0.00    +0.000 A 
ATOM      9  C   UNL     1      -0.612  10.735  18.211  0.00  0.00    +0.000 A 
ATOM     10  C   UNL     1       0.735  10.575  18.622  0.00  0.00    +0.000 A 
ATOM     11  C   UNL     1       1.472  11.745  18.940  0.00  0.00    +0.000 A 
BRANCH   6  13
ATOM     12  C   UNL     1       0.986  14.965  20.186  0.00  0.00    +0.000 C 
ATOM     13  O   UNL     1       1.556  14.189  19.140  0.00  0.00    +0.000 OA
ENDBRANCH   6  13
BRANCH   9  14
ATOM     14  O   UNL     1      -1.366   9.626  17.915  0.00  0.00    +0.000 OA
ATOM     15  C   UNL     1      -2.765   9.867  17.731  0.00  0.00    +0.000 C 
ENDBRANCH   9  14
ENDBRANCH   1  10
BRANCH   4  16
ATOM     16  S   UNL     1       3.683   6.573  17.336  0.00  0.00    +0.000 S 
BRANCH  16  17
ATOM     17  C   UNL     1       5.090   6.380  18.469  0.00  0.00    +0.000 C 
BRANCH  17  18
ATOM     18  C   UNL     1       5.066   5.010  19.140  0.00  0.00    +0.000 C 
ATOM     19  O   UNL     1       6.099   4.383  19.362  0.00  0.00    +0.000 OA
ATOM     20  N   UNL     1       3.804   4.530  19.442  0.00  0.00    +0.000 N 
ATOM     21  H   UNL     1       2.998   5.091  19.184  0.00  0.00    +0.000 HD
BRANCH  20  22
ATOM     22  C   UNL     1       3.570   3.170  19.927  0.00  0.00    +0.000 C 
ATOM     23  C   UNL     1       2.468   3.104  20.985  0.00  0.00    +0.000 C 
ATOM     24  C   UNL     1       1.051   3.279  20.439  0.00  0.00    +0.000 C 
ATOM     25  C   UNL     1       0.749   2.490  19.166  0.00  0.00    +0.000 C 
ATOM     26  C   UNL     1       1.888   2.422  18.153  0.00  0.00    +0.000 C 
ATOM     27  C   UNL     1       3.255   2.192  18.788  0.00  0.00    +0.000 C 
ENDBRANCH  20  22
ENDBRANCH  17  18
ENDBRANCH  16  17
ENDBRANCH   4  16
TORSDOF 7
ENDMDL
MODEL 4
REMARK VINA RESULT:      -6.9      2.105      3.634
REMARK  Name = 
REMARK  9 active torsions:
REMARK  status: ('A' for Active; 'I' for Inactive)
REMARK    1  A    between atoms: C_1  and  O_2
REMARK    2  A    between atoms: O_2  and  C_3
REMARK    3  A    between atoms: C_6  and  O_7
REMARK    4  A    between atoms: O_7  and  C_8
REMARK    5  A    between atoms: C_9  and  C_10
REMARK    6  A    between atoms: C_13  and  S_14
REMARK    7  A    between atoms: S_14  and  C_15
REMARK    8  A    between atoms: C_15  and  C_16
REMARK    9  A    between atoms: N_18  and  C_19
REMARK                            x       y       z     vdW  Elec       q    Type
REMARK                         _______ _______ _______ _____ _____    ______ ____
ROOT
ATOM      1  C   UNL     1       1.268   9.548  18.653  0.00  0.00    +0.000 A 
ATOM      2  N   UNL     1       2.011   9.435  17.560  0.00  0.00    +0.000 NA
ATOM      3  N   UNL     1       2.689   8.239  17.671  0.00  0.00    +0.000 NA
ATOM      4  C   UNL     1       2.337   7.717  18.816  0.00  0.00    +0.000 A 
ATOM      5  O   UNL     1       1.422   8.481  19.494  0.00  0.00    +0.000 OA
ENDROOT
BRANCH   1  10
ATOM      6  C   UNL     1       0.083  12.580  20.495  0.00  0.00    +0.000 A 
ATOM      7  C   UNL     1      -1.137  12.848  19.896  0.00  0.00    +0.000 A 
ATOM      8  C   UNL     1      -1.618  12.026  18.885  0.00  0.00    +0.000 A 
ATOM      9  C   UNL     1      -0.899  10.906  18.447  0.00  0.00    +0.000 A 
ATOM     10  C   UNL     1       0.371  10.639  19.017  0.00  0.00    +0.000 A 
ATOM     11  C   UNL     1       0.826  11.497  20.050  0.00  0.00    +0.000 A 
BRANCH   6  13
ATOM     12  C   UNL     1       1.599  14.232  21.253  0.00  0.00    +0.000 C 
ATOM     13  O   UNL     1       0.439  13.447  21.489  0.00  0.00    +0.000 OA
ENDBRANCH   6  13
BRANCH   9  14
ATOM     14  O   UNL     1      -1.385  10.086  17.459  0.00  0.00    +0.000 OA
ATOM     15  C   UNL     1      -2.791   9.823  17.516  0.00  0.00    +0.000 C 
ENDBRANCH   9  14
ENDBRANCH   1  10
BRANCH   4  16
ATOM     16  S   UNL     1       2.964   6.228  19.449  0.00  0.00    +0.000 S 
BRANCH  16  17
ATOM     17  C   UNL     1       2.618   5.100  18.069  0.00  0.00    +0.000 C 
BRANCH  17  18
ATOM     18  C   UNL     1       3.909   4.674  17.376  0.00  0.00    +0.000 C 
ATOM     19  O   UNL     1       4.021   3.574  16.840  0.00  0.00    +0.000 OA
ATOM     20  N   UNL     1       4.934   5.603  17.428  0.00  0.00    +0.000 N 
ATOM     21  H   UNL     1       4.775   6.471  17.929  0.00  0.00    +0.000 HD
BRANCH  20  22
ATOM     22  C   UNL     1       6.292   5.308  16.974  0.00  0.00    +0.000 C 
ATOM     23  C   UNL     1       6.998   6.535  16.393  0.00  0.00    +0.000 C 
ATOM     24  C   UNL     1       7.442   7.564  17.432  0.00  0.00    +0.000 C 
ATOM     25  C   UNL     1       8.116   6.978  18.672  0.00  0.00    +0.000 C 
ATOM     26  C   UNL     1       7.517   5.674  19.188  0.00  0.00    +0.000 C 
ATOM     27  C   UNL     1       7.155   4.690  18.081  0.00  0.00    +0.000 C 
ENDBRANCH  20  22
ENDBRANCH  17  18
ENDBRANCH  16  17
ENDBRANCH   4  16
TORSDOF 7
ENDMDL
MODEL 5
REMARK VINA RESULT:      -6.9      2.815      8.737
REMARK  Name = 
REMARK  9 active torsions:
REMARK  status: ('A' for Active; 'I' for Inactive)
REMARK    1  A    between atoms: C_1  and  O_2
REMARK    2  A    between atoms: O_2  and  C_3
REMARK    3  A    between atoms: C_6  and  O_7
REMARK    4  A    between atoms: O_7  and  C_8
REMARK    5  A    between atoms: C_9  and  C_10
REMARK    6  A    between atoms: C_13  and  S_14
REMARK    7  A    between atoms: S_14  and  C_15
REMARK    8  A    between atoms: C_15  and  C_16
REMARK    9  A    between atoms: N_18  and  C_19
REMARK                            x       y       z     vdW  Elec       q    Type
REMARK                         _______ _______ _______ _____ _____    ______ ____
ROOT
ATOM      1  C   UNL     1       2.589   7.546  18.246  0.00  0.00    +0.000 A 
ATOM      2  N   UNL     1       2.675   8.417  17.251  0.00  0.00    +0.000 NA
ATOM      3  N   UNL     1       1.973   9.536  17.649  0.00  0.00    +0.000 NA
ATOM      4  C   UNL     1       1.493   9.270  18.835  0.00  0.00    +0.000 A 
ATOM      5  O   UNL     1       1.855   8.029  19.293  0.00  0.00    +0.000 OA
ENDROOT
BRANCH   1  10
ATOM      6  C   UNL     1       2.709   3.872  18.941  0.00  0.00    +0.000 A 
ATOM      7  C   UNL     1       3.982   3.520  18.523  0.00  0.00    +0.000 A 
ATOM      8  C   UNL     1       4.848   4.485  18.024  0.00  0.00    +0.000 A 
ATOM      9  C   UNL     1       4.472   5.831  17.933  0.00  0.00    +0.000 A 
ATOM     10  C   UNL     1       3.159   6.205  18.315  0.00  0.00    +0.000 A 
ATOM     11  C   UNL     1       2.306   5.193  18.825  0.00  0.00    +0.000 A 
BRANCH   6  13
ATOM     12  C   UNL     1       1.267   3.089  20.648  0.00  0.00    +0.000 C 
ATOM     13  O   UNL     1       1.958   2.841  19.431  0.00  0.00    +0.000 OA
ENDBRANCH   6  13
BRANCH   9  14
ATOM     14  O   UNL     1       5.337   6.784  17.454  0.00  0.00    +0.000 OA
ATOM     15  C   UNL     1       6.715   6.400  17.421  0.00  0.00    +0.000 C 
ENDBRANCH   9  14
ENDBRANCH   1  10
BRANCH   4  16
ATOM     16  S   UNL     1       0.481  10.345  19.746  0.00  0.00    +0.000 S 
BRANCH  16  17
ATOM     17  C   UNL     1       0.162   9.339  21.225  0.00  0.00    +0.000 C 
BRANCH  17  18
ATOM     18  C   UNL     1      -0.148  10.223  22.429  0.00  0.00    +0.000 C 
ATOM     19  O   UNL     1       0.187   9.902  23.568  0.00  0.00    +0.000 OA
ATOM     20  N   UNL     1      -0.852  11.379  22.141  0.00  0.00    +0.000 N 
ATOM     21  H   UNL     1      -1.130  11.548  21.179  0.00  0.00    +0.000 HD
BRANCH  20  22
ATOM     22  C   UNL     1      -1.387  12.259  23.178  0.00  0.00    +0.000 C 
ATOM     23  C   UNL     1      -1.012  13.725  22.957  0.00  0.00    +0.000 C 
ATOM     24  C   UNL     1      -1.768  14.411  21.820  0.00  0.00    +0.000 C 
ATOM     25  C   UNL     1      -3.270  14.134  21.786  0.00  0.00    +0.000 C 
ATOM     26  C   UNL     1      -3.681  12.709  22.144  0.00  0.00    +0.000 C 
ATOM     27  C   UNL     1      -2.908  12.130  23.324  0.00  0.00    +0.000 C 
ENDBRANCH  20  22
ENDBRANCH  17  18
ENDBRANCH  16  17
ENDBRANCH   4  16
TORSDOF 7
ENDMDL
MODEL 6
REMARK VINA RESULT:      -6.8      2.350      3.736
REMARK  Name = 
REMARK  9 active torsions:
REMARK  status: ('A' for Active; 'I' for Inactive)
REMARK    1  A    between atoms: C_1  and  O_2
REMARK    2  A    between atoms: O_2  and  C_3
REMARK    3  A    between atoms: C_6  and  O_7
REMARK    4  A    between atoms: O_7  and  C_8
REMARK    5  A    between atoms: C_9  and  C_10
REMARK    6  A    between atoms: C_13  and  S_14
REMARK    7  A    between atoms: S_14  and  C_15
REMARK    8  A    between atoms: C_15  and  C_16
REMARK    9  A    between atoms: N_18  and  C_19
REMARK                            x       y       z     vdW  Elec       q    Type
REMARK                         _______ _______ _______ _____ _____    ______ ____
ROOT
ATOM      1  C   UNL     1       1.737   7.424  20.251  0.00  0.00    +0.000 A 
ATOM      2  N   UNL     1       2.802   7.215  19.490  0.00  0.00    +0.000 NA
ATOM      3  N   UNL     1       3.125   5.881  19.626  0.00  0.00    +0.000 NA
ATOM      4  C   UNL     1       2.261   5.375  20.466  0.00  0.00    +0.000 A 
ATOM      5  O   UNL     1       1.334   6.289  20.897  0.00  0.00    +0.000 OA
ENDROOT
BRANCH   1  10
ATOM      6  C   UNL     1      -0.159  10.055  22.116  0.00  0.00    +0.000 A 
ATOM      7  C   UNL     1      -0.383  11.020  21.147  0.00  0.00    +0.000 A 
ATOM      8  C   UNL     1       0.061  10.822  19.846  0.00  0.00    +0.000 A 
ATOM      9  C   UNL     1       0.735   9.654  19.470  0.00  0.00    +0.000 A 
ATOM     10  C   UNL     1       1.012   8.674  20.456  0.00  0.00    +0.000 A 
ATOM     11  C   UNL     1       0.539   8.907  21.772  0.00  0.00    +0.000 A 
BRANCH   6  13
ATOM     12  C   UNL     1      -1.668  11.354  23.398  0.00  0.00    +0.000 C 
ATOM     13  O   UNL     1      -0.659  10.354  23.352  0.00  0.00    +0.000 OA
ENDBRANCH   6  13
BRANCH   9  14
ATOM     14  O   UNL     1       1.158   9.455  18.179  0.00  0.00    +0.000 OA
ATOM     15  C   UNL     1       2.271  10.256  17.767  0.00  0.00    +0.000 C 
ENDBRANCH   9  14
ENDBRANCH   1  10
BRANCH   4  16
ATOM     16  S   UNL     1       2.278   3.729  21.016  0.00  0.00    +0.000 S 
BRANCH  16  17
ATOM     17  C   UNL     1       2.749   2.866  19.488  0.00  0.00    +0.000 C 
BRANCH  17  18
ATOM     18  C   UNL     1       4.223   3.092  19.167  0.00  0.00    +0.000 C 
ATOM     19  O   UNL     1       5.111   2.770  19.953  0.00  0.00    +0.000 OA
ATOM     20  N   UNL     1       4.469   3.709  17.953  0.00  0.00    +0.000 N 
ATOM     21  H   UNL     1       3.676   3.985  17.382  0.00  0.00    +0.000 HD
BRANCH  20  22
ATOM     22  C   UNL     1       5.799   4.163  17.551  0.00  0.00    +0.000 C 
ATOM     23  C   UNL     1       6.094   3.888  16.076  0.00  0.00    +0.000 C 
ATOM     24  C   UNL     1       5.358   4.803  15.098  0.00  0.00    +0.000 C 
ATOM     25  C   UNL     1       5.361   6.283  15.475  0.00  0.00    +0.000 C 
ATOM     26  C   UNL     1       5.211   6.581  16.963  0.00  0.00    +0.000 C 
ATOM     27  C   UNL     1       6.025   5.649  17.855  0.00  0.00    +0.000 C 
ENDBRANCH  20  22
ENDBRANCH  17  18
ENDBRANCH  16  17
ENDBRANCH   4  16
TORSDOF 7
ENDMDL
MODEL 7
REMARK VINA RESULT:      -6.8      1.448      1.823
REMARK  Name = 
REMARK  9 active torsions:
REMARK  status: ('A' for Active; 'I' for Inactive)
REMARK    1  A    between atoms: C_1  and  O_2
REMARK    2  A    between atoms: O_2  and  C_3
REMARK    3  A    between atoms: C_6  and  O_7
REMARK    4  A    between atoms: O_7  and  C_8
REMARK    5  A    between atoms: C_9  and  C_10
REMARK    6  A    between atoms: C_13  and  S_14
REMARK    7  A    between atoms: S_14  and  C_15
REMARK    8  A    between atoms: C_15  and  C_16
REMARK    9  A    between atoms: N_18  and  C_19
REMARK                            x       y       z     vdW  Elec       q    Type
REMARK                         _______ _______ _______ _____ _____    ______ ____
ROOT
ATOM      1  C   UNL     1       1.342   8.672  20.157  0.00  0.00    +0.000 A 
ATOM      2  N   UNL     1       1.418   7.558  20.871  0.00  0.00    +0.000 NA
ATOM      3  N   UNL     1       2.193   6.680  20.143  0.00  0.00    +0.000 NA
ATOM      4  C   UNL     1       2.518   7.299  19.039  0.00  0.00    +0.000 A 
ATOM      5  O   UNL     1       2.029   8.579  18.978  0.00  0.00    +0.000 OA
ENDROOT
BRANCH   1  10
ATOM      6  C   UNL     1      -0.821  10.984  22.149  0.00  0.00    +0.000 A 
ATOM      7  C   UNL     1      -0.803  12.148  21.398  0.00  0.00    +0.000 A 
ATOM      8  C   UNL     1      -0.100  12.200  20.201  0.00  0.00    +0.000 A 
ATOM      9  C   UNL     1       0.601  11.089  19.715  0.00  0.00    +0.000 A 
ATOM     10  C   UNL     1       0.631   9.902  20.489  0.00  0.00    +0.000 A 
ATOM     11  C   UNL     1      -0.104   9.885  21.702  0.00  0.00    +0.000 A 
BRANCH   6  13
ATOM     12  C   UNL     1      -2.593  12.028  23.323  0.00  0.00    +0.000 C 
ATOM     13  O   UNL     1      -1.563  11.049  23.295  0.00  0.00    +0.000 OA
ENDBRANCH   6  13
BRANCH   9  14
ATOM     14  O   UNL     1       1.281  11.139  18.523  0.00  0.00    +0.000 OA
ATOM     15  C   UNL     1       2.240  12.196  18.408  0.00  0.00    +0.000 C 
ENDBRANCH   9  14
ENDBRANCH   1  10
BRANCH   4  16
ATOM     16  S   UNL     1       3.447   6.591  17.755  0.00  0.00    +0.000 S 
BRANCH  16  17
ATOM     17  C   UNL     1       4.988   6.194  18.631  0.00  0.00    +0.000 C 
BRANCH  17  18
ATOM     18  C   UNL     1       5.000   4.736  19.079  0.00  0.00    +0.000 C 
ATOM     19  O   UNL     1       5.983   4.017  18.909  0.00  0.00    +0.000 OA
ATOM     20  N   UNL     1       3.822   4.291  19.652  0.00  0.00    +0.000 N 
ATOM     21  H   UNL     1       3.041   4.936  19.714  0.00  0.00    +0.000 HD
BRANCH  20  22
ATOM     22  C   UNL     1       3.585   2.886  19.983  0.00  0.00    +0.000 C 
ATOM     23  C   UNL     1       2.489   2.707  21.035  0.00  0.00    +0.000 C 
ATOM     24  C   UNL     1       1.070   2.948  20.523  0.00  0.00    +0.000 C 
ATOM     25  C   UNL     1       0.756   2.308  19.171  0.00  0.00    +0.000 C 
ATOM     26  C   UNL     1       1.887   2.348  18.149  0.00  0.00    +0.000 C 
ATOM     27  C   UNL     1       3.257   2.043  18.745  0.00  0.00    +0.000 C 
ENDBRANCH  20  22
ENDBRANCH  17  18
ENDBRANCH  16  17
ENDBRANCH   4  16
TORSDOF 7
ENDMDL
MODEL 8
REMARK VINA RESULT:      -6.8      1.094      2.841
REMARK  Name = 
REMARK  9 active torsions:
REMARK  status: ('A' for Active; 'I' for Inactive)
REMARK    1  A    between atoms: C_1  and  O_2
REMARK    2  A    between atoms: O_2  and  C_3
REMARK    3  A    between atoms: C_6  and  O_7
REMARK    4  A    between atoms: O_7  and  C_8
REMARK    5  A    between atoms: C_9  and  C_10
REMARK    6  A    between atoms: C_13  and  S_14
REMARK    7  A    between atoms: S_14  and  C_15
REMARK    8  A    between atoms: C_15  and  C_16
REMARK    9  A    between atoms: N_18  and  C_19
REMARK                            x       y       z     vdW  Elec       q    Type
REMARK                         _______ _______ _______ _____ _____    ______ ____
ROOT
ATOM      1  C   UNL     1       1.205   9.287  19.030  0.00  0.00    +0.000 A 
ATOM      2  N   UNL     1       1.462   8.415  19.995  0.00  0.00    +0.000 NA
ATOM      3  N   UNL     1       2.428   7.563  19.504  0.00  0.00    +0.000 NA
ATOM      4  C   UNL     1       2.679   7.951  18.282  0.00  0.00    +0.000 A 
ATOM      5  O   UNL     1       1.953   9.054  17.911  0.00  0.00    +0.000 OA
ENDROOT
BRANCH   1  10
ATOM      6  C   UNL     1      -1.873  11.215  18.133  0.00  0.00    +0.000 A 
ATOM      7  C   UNL     1      -1.768  12.350  18.921  0.00  0.00    +0.000 A 
ATOM      8  C   UNL     1      -0.669  12.527  19.752  0.00  0.00    +0.000 A 
ATOM      9  C   UNL     1       0.362  11.580  19.817  0.00  0.00    +0.000 A 
ATOM     10  C   UNL     1       0.252  10.392  19.051  0.00  0.00    +0.000 A 
ATOM     11  C   UNL     1      -0.881  10.250  18.210  0.00  0.00    +0.000 A 
BRANCH   6  13
ATOM     12  C   UNL     1      -2.765  10.967  15.954  0.00  0.00    +0.000 C 
ATOM     13  O   UNL     1      -2.987  11.164  17.343  0.00  0.00    +0.000 OA
ENDBRANCH   6  13
BRANCH   9  14
ATOM     14  O   UNL     1       1.454  11.767  20.627  0.00  0.00    +0.000 OA
ATOM     15  C   UNL     1       2.040  13.071  20.576  0.00  0.00    +0.000 C 
ENDBRANCH   9  14
ENDBRANCH   1  10
BRANCH   4  16
ATOM     16  S   UNL     1       3.791   7.159  17.211  0.00  0.00    +0.000 S 
BRANCH  16  17
ATOM     17  C   UNL     1       4.943   6.417  18.404  0.00  0.00    +0.000 C 
BRANCH  17  18
ATOM     18  C   UNL     1       4.751   4.906  18.479  0.00  0.00    +0.000 C 
ATOM     19  O   UNL     1       5.612   4.126  18.075  0.00  0.00    +0.000 OA
ATOM     20  N   UNL     1       3.538   4.495  19.000  0.00  0.00    +0.000 N 
ATOM     21  H   UNL     1       2.862   5.204  19.270  0.00  0.00    +0.000 HD
BRANCH  20  22
ATOM     22  C   UNL     1       3.105   3.098  18.992  0.00  0.00    +0.000 C 
ATOM     23  C   UNL     1       3.519   2.346  20.258  0.00  0.00    +0.000 C 
ATOM     24  C   UNL     1       2.716   2.710  21.506  0.00  0.00    +0.000 C 
ATOM     25  C   UNL     1       1.206   2.804  21.296  0.00  0.00    +0.000 C 
ATOM     26  C   UNL     1       0.766   3.423  19.973  0.00  0.00    +0.000 C 
ATOM     27  C   UNL     1       1.592   2.958  18.779  0.00  0.00    +0.000 C 
ENDBRANCH  20  22
ENDBRANCH  17  18
ENDBRANCH  16  17
ENDBRANCH   4  16
TORSDOF 7
ENDMDL
MODEL 9
REMARK VINA RESULT:      -6.8      2.880      4.009
REMARK  Name = 
REMARK  9 active torsions:
REMARK  status: ('A' for Active; 'I' for Inactive)
REMARK    1  A    between atoms: C_1  and  O_2
REMARK    2  A    between atoms: O_2  and  C_3
REMARK    3  A    between atoms: C_6  and  O_7
REMARK    4  A    between atoms: O_7  and  C_8
REMARK    5  A    between atoms: C_9  and  C_10
REMARK    6  A    between atoms: C_13  and  S_14
REMARK    7  A    between atoms: S_14  and  C_15
REMARK    8  A    between atoms: C_15  and  C_16
REMARK    9  A    between atoms: N_18  and  C_19
REMARK                            x       y       z     vdW  Elec       q    Type
REMARK                         _______ _______ _______ _____ _____    ______ ____
ROOT
ATOM      1  C   UNL     1      -1.385  11.252  18.584  0.00  0.00    +0.000 A 
ATOM      2  N   UNL     1      -0.478  12.166  18.899  0.00  0.00    +0.000 NA
ATOM      3  N   UNL     1       0.664  11.478  19.251  0.00  0.00    +0.000 NA
ATOM      4  C   UNL     1       0.377  10.207  19.149  0.00  0.00    +0.000 A 
ATOM      5  O   UNL     1      -0.903   9.980  18.713  0.00  0.00    +0.000 OA
ENDROOT
BRANCH   1  10
ATOM      6  C   UNL     1      -4.968  12.297  18.845  0.00  0.00    +0.000 A 
ATOM      7  C   UNL     1      -5.461  12.030  17.578  0.00  0.00    +0.000 A 
ATOM      8  C   UNL     1      -4.636  11.475  16.608  0.00  0.00    +0.000 A 
ATOM      9  C   UNL     1      -3.297  11.163  16.874  0.00  0.00    +0.000 A 
ATOM     10  C   UNL     1      -2.761  11.468  18.151  0.00  0.00    +0.000 A 
ATOM     11  C   UNL     1      -3.635  12.028  19.117  0.00  0.00    +0.000 A 
BRANCH   6  13
ATOM     12  C   UNL     1      -6.280  11.981  20.791  0.00  0.00    +0.000 C 
ATOM     13  O   UNL     1      -5.878  12.822  19.718  0.00  0.00    +0.000 OA
ENDBRANCH   6  13
BRANCH   9  14
ATOM     14  O   UNL     1      -2.490  10.600  15.917  0.00  0.00    +0.000 OA
ATOM     15  C   UNL     1      -3.149  10.224  14.703  0.00  0.00    +0.000 C 
ENDBRANCH   9  14
ENDBRANCH   1  10
BRANCH   4  16
ATOM     16  S   UNL     1       1.474   8.920  19.541  0.00  0.00    +0.000 S 
BRANCH  16  17
ATOM     17  C   UNL     1       2.154   8.541  17.900  0.00  0.00    +0.000 C 
BRANCH  17  18
ATOM     18  C   UNL     1       3.023   7.289  17.946  0.00  0.00    +0.000 C 
ATOM     19  O   UNL     1       4.164   7.278  17.486  0.00  0.00    +0.000 OA
ATOM     20  N   UNL     1       2.420   6.179  18.509  0.00  0.00    +0.000 N 
ATOM     21  H   UNL     1       1.458   6.259  18.824  0.00  0.00    +0.000 HD
BRANCH  20  22
ATOM     22  C   UNL     1       3.029   4.849  18.485  0.00  0.00    +0.000 C 
ATOM     23  C   UNL     1       3.436   4.363  19.877  0.00  0.00    +0.000 C 
ATOM     24  C   UNL     1       2.270   3.941  20.770  0.00  0.00    +0.000 C 
ATOM     25  C   UNL     1       1.214   3.075  20.084  0.00  0.00    +0.000 C 
ATOM     26  C   UNL     1       0.893   3.453  18.642  0.00  0.00    +0.000 C 
ATOM     27  C   UNL     1       2.125   3.806  17.816  0.00  0.00    +0.000 C 
ENDBRANCH  20  22
ENDBRANCH  17  18
ENDBRANCH  16  17
ENDBRANCH   4  16
TORSDOF 7
ENDMDL
