MODEL 1
REMARK VINA RESULT:      -8.5      0.000      0.000
REMARK  Name = 
REMARK  8 active torsions:
REMARK  status: ('A' for Active; 'I' for Inactive)
REMARK    1  A    between atoms: C_2  and  O_3
REMARK    2  A    between atoms: C_2  and  C_4
REMARK    3  A    between atoms: C_6  and  S_7
REMARK    4  A    between atoms: S_7  and  N_10
REMARK    5  A    between atoms: N_10  and  C_11
REMARK    6  A    between atoms: C_14  and  O_15
REMARK    7  A    between atoms: O_15  and  C_16
REMARK    8  A    between atoms: C_16  and  C_17
REMARK                            x       y       z     vdW  Elec       q    Type
REMARK                         _______ _______ _______ _____ _____    ______ ____
ROOT
ATOM      1  N   UNL     1       2.732   5.861  20.624  0.00  0.00    +0.000 N 
ATOM      2  H   UNL     1       2.636   5.745  21.632  0.00  0.00    +0.000 HD
ENDROOT
BRANCH   1   3
ATOM      3  C   UNL     1       2.196   7.038  20.041  0.00  0.00    +0.000 A 
ATOM      4  C   UNL     1       2.466   7.361  18.715  0.00  0.00    +0.000 A 
ATOM      5  C   UNL     1       1.926   8.522  18.162  0.00  0.00    +0.000 A 
ATOM      6  C   UNL     1       1.097   9.348  18.927  0.00  0.00    +0.000 A 
ATOM      7  C   UNL     1       0.870   9.042  20.269  0.00  0.00    +0.000 A 
ATOM      8  C   UNL     1       1.409   7.883  20.826  0.00  0.00    +0.000 A 
BRANCH   6   9
ATOM      9  O   UNL     1       0.463  10.469  18.463  0.00  0.00    +0.000 OA
BRANCH   9  10
ATOM     10  C   UNL     1      -0.756  10.793  19.134  0.00  0.00    +0.000 C 
BRANCH  10  11
ATOM     11  C   UNL     1      -1.888  10.764  18.141  0.00  0.00    +0.000 A 
ATOM     12  C   UNL     1      -1.829   9.946  17.006  0.00  0.00    +0.000 A 
ATOM     13  C   UNL     1      -2.891   9.920  16.101  0.00  0.00    +0.000 A 
ATOM     14  C   UNL     1      -4.016  10.715  16.319  0.00  0.00    +0.000 A 
ATOM     15  C   UNL     1      -4.079  11.540  17.438  0.00  0.00    +0.000 A 
ATOM     16  C   UNL     1      -3.019  11.570  18.344  0.00  0.00    +0.000 A 
ENDBRANCH  10  11
ENDBRANCH   9  10
ENDBRANCH   6   9
ENDBRANCH   1   3
BRANCH   1  17
ATOM     17  S   UNL     1       2.530   4.401  19.803  0.00  0.00    +0.000 S 
ATOM     18  O   UNL     1       1.260   4.419  19.113  0.00  0.00    +0.000 OA
ATOM     19  O   UNL     1       2.859   3.347  20.737  0.00  0.00    +0.000 OA
BRANCH  17  22
ATOM     20  C   UNL     1       6.125   5.012  18.014  0.00  0.00    +0.000 A 
ATOM     21  C   UNL     1       5.097   4.911  18.970  0.00  0.00    +0.000 A 
ATOM     22  C   UNL     1       3.834   4.444  18.598  0.00  0.00    +0.000 A 
ATOM     23  C   UNL     1       3.578   4.053  17.285  0.00  0.00    +0.000 A 
ATOM     24  C   UNL     1       4.595   4.142  16.335  0.00  0.00    +0.000 A 
ATOM     25  C   UNL     1       5.864   4.627  16.689  0.00  0.00    +0.000 A 
ATOM     26 BR   UNL     1       7.129   4.767  15.281  0.00  0.00    +0.000 Br
BRANCH  20  28
ATOM     27  O   UNL     1       8.212   4.923  19.123  0.00  0.00    +0.000 OA
ATOM     28  C   UNL     1       7.400   5.594  18.505  0.00  0.00    +0.000 C 
BRANCH  28  29
ATOM     29  O   UNL     1       7.640   6.868  18.144  0.00  0.00    +0.000 OA
ATOM     30  H   UNL     1       7.252   7.142  17.289  0.00  0.00    +0.000 HD
ENDBRANCH  28  29
ENDBRANCH  20  28
ENDBRANCH  17  22
ENDBRANCH   1  17
TORSDOF 8
ENDMDL
MODEL 2
REMARK VINA RESULT:      -8.5      0.584      1.083
REMARK  Name = 
REMARK  8 active torsions:
REMARK  status: ('A' for Active; 'I' for Inactive)
REMARK    1  A    between atoms: C_2  and  O_3
REMARK    2  A    between atoms: C_2  and  C_4
REMARK    3  A    between atoms: C_6  and  S_7
REMARK    4  A    between atoms: S_7  and  N_10
REMARK    5  A    between atoms: N_10  and  C_11
REMARK    6  A    between atoms: C_14  and  O_15
REMARK    7  A    between atoms: O_15  and  C_16
REMARK    8  A    between atoms: C_16  and  C_17
REMARK                            x       y       z     vdW  Elec       q    Type
REMARK                         _______ _______ _______ _____ _____    ______ ____
ROOT
ATOM      1  N   UNL     1       3.010   5.699  20.445  0.00  0.00    +0.000 N 
ATOM      2  H   UNL     1       3.028   5.586  21.458  0.00  0.00    +0.000 HD
ENDROOT
BRANCH   1   3
ATOM      3  C   UNL     1       2.419   6.878  19.923  0.00  0.00    +0.000 A 
ATOM      4  C   UNL     1       1.609   7.680  20.721  0.00  0.00    +0.000 A 
ATOM      5  C   UNL     1       1.040   8.837  20.188  0.00  0.00    +0.000 A 
ATOM      6  C   UNL     1       1.300   9.205  18.865  0.00  0.00    +0.000 A 
ATOM      7  C   UNL     1       2.075   8.371  18.058  0.00  0.00    +0.000 A 
ATOM      8  C   UNL     1       2.644   7.212  18.587  0.00  0.00    +0.000 A 
BRANCH   6   9
ATOM      9  O   UNL     1       0.850  10.351  18.267  0.00  0.00    +0.000 OA
BRANCH   9  10
ATOM     10  C   UNL     1      -0.122  11.081  19.017  0.00  0.00    +0.000 C 
BRANCH  10  11
ATOM     11  C   UNL     1      -1.470  10.924  18.364  0.00  0.00    +0.000 A 
ATOM     12  C   UNL     1      -1.655  10.027  17.304  0.00  0.00    +0.000 A 
ATOM     13  C   UNL     1      -2.913   9.882  16.717  0.00  0.00    +0.000 A 
ATOM     14  C   UNL     1      -3.992  10.635  17.178  0.00  0.00    +0.000 A 
ATOM     15  C   UNL     1      -3.815  11.538  18.223  0.00  0.00    +0.000 A 
ATOM     16  C   UNL     1      -2.559  11.686  18.811  0.00  0.00    +0.000 A 
ENDBRANCH  10  11
ENDBRANCH   9  10
ENDBRANCH   6   9
ENDBRANCH   1   3
BRANCH   1  17
ATOM     17  S   UNL     1       2.707   4.238  19.658  0.00  0.00    +0.000 S 
ATOM     18  O   UNL     1       1.374   4.271  19.098  0.00  0.00    +0.000 OA
ATOM     19  O   UNL     1       3.113   3.184  20.561  0.00  0.00    +0.000 OA
BRANCH  17  22
ATOM     20  C   UNL     1       6.168   4.581  17.562  0.00  0.00    +0.000 A 
ATOM     21  C   UNL     1       5.231   4.500  18.608  0.00  0.00    +0.000 A 
ATOM     22  C   UNL     1       3.884   4.256  18.329  0.00  0.00    +0.000 A 
ATOM     23  C   UNL     1       3.452   4.071  17.016  0.00  0.00    +0.000 A 
ATOM     24  C   UNL     1       4.377   4.141  15.975  0.00  0.00    +0.000 A 
ATOM     25  C   UNL     1       5.731   4.403  16.239  0.00  0.00    +0.000 A 
ATOM     26 BR   UNL     1       6.865   4.548  14.723  0.00  0.00    +0.000 Br
BRANCH  20  28
ATOM     27  O   UNL     1       8.467   4.116  17.863  0.00  0.00    +0.000 OA
ATOM     28  C   UNL     1       7.555   4.921  17.969  0.00  0.00    +0.000 C 
BRANCH  28  29
ATOM     29  O   UNL     1       7.754   6.190  18.370  0.00  0.00    +0.000 OA
ATOM     30  H   UNL     1       7.800   6.853  17.653  0.00  0.00    +0.000 HD
ENDBRANCH  28  29
ENDBRANCH  20  28
ENDBRANCH  17  22
ENDBRANCH   1  17
TORSDOF 8
ENDMDL
MODEL 3
REMARK VINA RESULT:      -8.3      0.626      1.554
REMARK  Name = 
REMARK  8 active torsions:
REMARK  status: ('A' for Active; 'I' for Inactive)
REMARK    1  A    between atoms: C_2  and  O_3
REMARK    2  A    between atoms: C_2  and  C_4
REMARK    3  A    between atoms: C_6  and  S_7
REMARK    4  A    between atoms: S_7  and  N_10
REMARK    5  A    between atoms: N_10  and  C_11
REMARK    6  A    between atoms: C_14  and  O_15
REMARK    7  A    between atoms: O_15  and  C_16
REMARK    8  A    between atoms: C_16  and  C_17
REMARK                            x       y       z     vdW  Elec       q    Type
REMARK                         _______ _______ _______ _____ _____    ______ ____
ROOT
ATOM      1  N   UNL     1       3.092   6.029  20.300  0.00  0.00    +0.000 N 
ATOM      2  H   UNL     1       3.417   5.968  21.264  0.00  0.00    +0.000 HD
ENDROOT
BRANCH   1   3
ATOM      3  C   UNL     1       2.320   7.163  19.936  0.00  0.00    +0.000 A 
ATOM      4  C   UNL     1       1.484   7.780  20.861  0.00  0.00    +0.000 A 
ATOM      5  C   UNL     1       0.737   8.895  20.482  0.00  0.00    +0.000 A 
ATOM      6  C   UNL     1       0.844   9.408  19.186  0.00  0.00    +0.000 A 
ATOM      7  C   UNL     1       1.649   8.755  18.252  0.00  0.00    +0.000 A 
ATOM      8  C   UNL     1       2.396   7.638  18.626  0.00  0.00    +0.000 A 
BRANCH   6   9
ATOM      9  O   UNL     1       0.210  10.533  18.733  0.00  0.00    +0.000 OA
BRANCH   9  10
ATOM     10  C   UNL     1      -1.115  10.720  19.231  0.00  0.00    +0.000 C 
BRANCH  10  11
ATOM     11  C   UNL     1      -2.083  10.714  18.076  0.00  0.00    +0.000 A 
ATOM     12  C   UNL     1      -3.245  11.494  18.108  0.00  0.00    +0.000 A 
ATOM     13  C   UNL     1      -4.126  11.489  17.025  0.00  0.00    +0.000 A 
ATOM     14  C   UNL     1      -3.857  10.699  15.908  0.00  0.00    +0.000 A 
ATOM     15  C   UNL     1      -2.710   9.911  15.872  0.00  0.00    +0.000 A 
ATOM     16  C   UNL     1      -1.828   9.913  16.953  0.00  0.00    +0.000 A 
ENDBRANCH  10  11
ENDBRANCH   9  10
ENDBRANCH   6   9
ENDBRANCH   1   3
BRANCH   1  17
ATOM     17  S   UNL     1       2.630   4.522  19.698  0.00  0.00    +0.000 S 
ATOM     18  O   UNL     1       1.258   4.594  19.248  0.00  0.00    +0.000 OA
ATOM     19  O   UNL     1       3.048   3.537  20.671  0.00  0.00    +0.000 OA
BRANCH  17  22
ATOM     20  C   UNL     1       5.837   4.683  17.212  0.00  0.00    +0.000 A 
ATOM     21  C   UNL     1       5.006   4.773  18.343  0.00  0.00    +0.000 A 
ATOM     22  C   UNL     1       3.684   4.325  18.283  0.00  0.00    +0.000 A 
ATOM     23  C   UNL     1       3.175   3.766  17.112  0.00  0.00    +0.000 A 
ATOM     24  C   UNL     1       3.997   3.665  15.989  0.00  0.00    +0.000 A 
ATOM     25  C   UNL     1       5.322   4.128  16.029  0.00  0.00    +0.000 A 
ATOM     26 BR   UNL     1       6.302   4.000  14.408  0.00  0.00    +0.000 Br
BRANCH  20  28
ATOM     27  O   UNL     1       7.535   6.268  16.767  0.00  0.00    +0.000 OA
ATOM     28  C   UNL     1       7.196   5.261  17.369  0.00  0.00    +0.000 C 
BRANCH  28  29
ATOM     29  O   UNL     1       7.986   4.662  18.279  0.00  0.00    +0.000 OA
ATOM     30  H   UNL     1       8.899   5.007  18.333  0.00  0.00    +0.000 HD
ENDBRANCH  28  29
ENDBRANCH  20  28
ENDBRANCH  17  22
ENDBRANCH   1  17
TORSDOF 8
ENDMDL
MODEL 4
REMARK VINA RESULT:      -8.1      3.748      8.760
REMARK  Name = 
REMARK  8 active torsions:
REMARK  status: ('A' for Active; 'I' for Inactive)
REMARK    1  A    between atoms: C_2  and  O_3
REMARK    2  A    between atoms: C_2  and  C_4
REMARK    3  A    between atoms: C_6  and  S_7
REMARK    4  A    between atoms: S_7  and  N_10
REMARK    5  A    between atoms: N_10  and  C_11
REMARK    6  A    between atoms: C_14  and  O_15
REMARK    7  A    between atoms: O_15  and  C_16
REMARK    8  A    between atoms: C_16  and  C_17
REMARK                            x       y       z     vdW  Elec       q    Type
REMARK                         _______ _______ _______ _____ _____    ______ ____
ROOT
ATOM      1  N   UNL     1       3.011   5.057  17.698  0.00  0.00    +0.000 N 
ATOM      2  H   UNL     1       2.275   4.361  17.586  0.00  0.00    +0.000 HD
ENDROOT
BRANCH   1   3
ATOM      3  C   UNL     1       4.170   4.929  16.889  0.00  0.00    +0.000 A 
ATOM      4  C   UNL     1       4.764   3.687  16.692  0.00  0.00    +0.000 A 
ATOM      5  C   UNL     1       5.901   3.583  15.889  0.00  0.00    +0.000 A 
ATOM      6  C   UNL     1       6.429   4.717  15.266  0.00  0.00    +0.000 A 
ATOM      7  C   UNL     1       5.854   5.965  15.507  0.00  0.00    +0.000 A 
ATOM      8  C   UNL     1       4.719   6.073  16.310  0.00  0.00    +0.000 A 
BRANCH   6   9
ATOM      9  O   UNL     1       7.495   4.715  14.408  0.00  0.00    +0.000 OA
BRANCH   9  10
ATOM     10  C   UNL     1       7.180   5.044  13.054  0.00  0.00    +0.000 C 
BRANCH  10  11
ATOM     11  C   UNL     1       6.708   3.804  12.341  0.00  0.00    +0.000 A 
ATOM     12  C   UNL     1       5.341   3.540  12.189  0.00  0.00    +0.000 A 
ATOM     13  C   UNL     1       4.917   2.394  11.514  0.00  0.00    +0.000 A 
ATOM     14  C   UNL     1       5.853   1.501  10.995  0.00  0.00    +0.000 A 
ATOM     15  C   UNL     1       7.214   1.749  11.152  0.00  0.00    +0.000 A 
ATOM     16  C   UNL     1       7.641   2.893  11.826  0.00  0.00    +0.000 A 
ENDBRANCH  10  11
ENDBRANCH   9  10
ENDBRANCH   6   9
ENDBRANCH   1   3
BRANCH   1  17
ATOM     17  S   UNL     1       3.211   5.503  19.313  0.00  0.00    +0.000 S 
ATOM     18  O   UNL     1       4.620   5.688  19.580  0.00  0.00    +0.000 OA
ATOM     19  O   UNL     1       2.414   4.589  20.100  0.00  0.00    +0.000 OA
BRANCH  17  22
ATOM     20  C   UNL     1       1.171   8.744  20.666  0.00  0.00    +0.000 A 
ATOM     21  C   UNL     1       1.869   7.524  20.601  0.00  0.00    +0.000 A 
ATOM     22  C   UNL     1       2.404   7.083  19.387  0.00  0.00    +0.000 A 
ATOM     23  C   UNL     1       2.272   7.850  18.231  0.00  0.00    +0.000 A 
ATOM     24  C   UNL     1       1.589   9.064  18.291  0.00  0.00    +0.000 A 
ATOM     25  C   UNL     1       1.030   9.512  19.498  0.00  0.00    +0.000 A 
ATOM     26 BR   UNL     1       0.062  11.143  19.418  0.00  0.00    +0.000 Br
BRANCH  20  28
ATOM     27  O   UNL     1      -0.596   8.853  22.234  0.00  0.00    +0.000 OA
ATOM     28  C   UNL     1       0.580   9.073  21.988  0.00  0.00    +0.000 C 
BRANCH  28  29
ATOM     29  O   UNL     1       1.439   9.535  22.915  0.00  0.00    +0.000 OA
ATOM     30  H   UNL     1       1.342   9.148  23.806  0.00  0.00    +0.000 HD
ENDBRANCH  28  29
ENDBRANCH  20  28
ENDBRANCH  17  22
ENDBRANCH   1  17
TORSDOF 8
ENDMDL
MODEL 5
REMARK VINA RESULT:      -7.9      3.729      8.752
REMARK  Name = 
REMARK  8 active torsions:
REMARK  status: ('A' for Active; 'I' for Inactive)
REMARK    1  A    between atoms: C_2  and  O_3
REMARK    2  A    between atoms: C_2  and  C_4
REMARK    3  A    between atoms: C_6  and  S_7
REMARK    4  A    between atoms: S_7  and  N_10
REMARK    5  A    between atoms: N_10  and  C_11
REMARK    6  A    between atoms: C_14  and  O_15
REMARK    7  A    between atoms: O_15  and  C_16
REMARK    8  A    between atoms: C_16  and  C_17
REMARK                            x       y       z     vdW  Elec       q    Type
REMARK                         _______ _______ _______ _____ _____    ______ ____
ROOT
ATOM      1  N   UNL     1       3.261   4.748  17.767  0.00  0.00    +0.000 N 
ATOM      2  H   UNL     1       2.671   3.916  17.763  0.00  0.00    +0.000 HD
ENDROOT
BRANCH   1   3
ATOM      3  C   UNL     1       4.340   4.794  16.847  0.00  0.00    +0.000 A 
ATOM      4  C   UNL     1       4.722   5.997  16.260  0.00  0.00    +0.000 A 
ATOM      5  C   UNL     1       5.788   6.020  15.360  0.00  0.00    +0.000 A 
ATOM      6  C   UNL     1       6.488   4.847  15.066  0.00  0.00    +0.000 A 
ATOM      7  C   UNL     1       6.068   3.637  15.623  0.00  0.00    +0.000 A 
ATOM      8  C   UNL     1       5.002   3.610  16.521  0.00  0.00    +0.000 A 
BRANCH   6   9
ATOM      9  O   UNL     1       7.586   4.771  14.254  0.00  0.00    +0.000 OA
BRANCH   9  10
ATOM     10  C   UNL     1       7.333   5.025  12.871  0.00  0.00    +0.000 C 
BRANCH  10  11
ATOM     11  C   UNL     1       6.791   3.774  12.230  0.00  0.00    +0.000 A 
ATOM     12  C   UNL     1       5.411   3.561  12.124  0.00  0.00    +0.000 A 
ATOM     13  C   UNL     1       4.923   2.403  11.516  0.00  0.00    +0.000 A 
ATOM     14  C   UNL     1       5.808   1.449  11.017  0.00  0.00    +0.000 A 
ATOM     15  C   UNL     1       7.182   1.647  11.128  0.00  0.00    +0.000 A 
ATOM     16  C   UNL     1       7.672   2.802  11.736  0.00  0.00    +0.000 A 
ENDBRANCH  10  11
ENDBRANCH   9  10
ENDBRANCH   6   9
ENDBRANCH   1   3
BRANCH   1  17
ATOM     17  S   UNL     1       3.518   5.328  19.330  0.00  0.00    +0.000 S 
ATOM     18  O   UNL     1       4.929   5.586  19.511  0.00  0.00    +0.000 OA
ATOM     19  O   UNL     1       2.798   4.450  20.225  0.00  0.00    +0.000 OA
BRANCH  17  22
ATOM     20  C   UNL     1       1.303   8.525  20.496  0.00  0.00    +0.000 A 
ATOM     21  C   UNL     1       2.048   7.332  20.498  0.00  0.00    +0.000 A 
ATOM     22  C   UNL     1       2.651   6.877  19.322  0.00  0.00    +0.000 A 
ATOM     23  C   UNL     1       2.542   7.605  18.139  0.00  0.00    +0.000 A 
ATOM     24  C   UNL     1       1.812   8.794  18.132  0.00  0.00    +0.000 A 
ATOM     25  C   UNL     1       1.186   9.254  19.301  0.00  0.00    +0.000 A 
ATOM     26 BR   UNL     1       0.162  10.844  19.131  0.00  0.00    +0.000 Br
BRANCH  20  28
ATOM     27  O   UNL     1       1.205   9.554  22.623  0.00  0.00    +0.000 OA
ATOM     28  C   UNL     1       0.644   8.870  21.781  0.00  0.00    +0.000 C 
BRANCH  28  29
ATOM     29  O   UNL     1      -0.632   8.463  21.913  0.00  0.00    +0.000 OA
ATOM     30  H   UNL     1      -1.303   9.054  21.516  0.00  0.00    +0.000 HD
ENDBRANCH  28  29
ENDBRANCH  20  28
ENDBRANCH  17  22
ENDBRANCH   1  17
TORSDOF 8
ENDMDL
MODEL 6
REMARK VINA RESULT:      -7.9      3.051      3.710
REMARK  Name = 
REMARK  8 active torsions:
REMARK  status: ('A' for Active; 'I' for Inactive)
REMARK    1  A    between atoms: C_2  and  O_3
REMARK    2  A    between atoms: C_2  and  C_4
REMARK    3  A    between atoms: C_6  and  S_7
REMARK    4  A    between atoms: S_7  and  N_10
REMARK    5  A    between atoms: N_10  and  C_11
REMARK    6  A    between atoms: C_14  and  O_15
REMARK    7  A    between atoms: O_15  and  C_16
REMARK    8  A    between atoms: C_16  and  C_17
REMARK                            x       y       z     vdW  Elec       q    Type
REMARK                         _______ _______ _______ _____ _____    ______ ____
ROOT
ATOM      1  N   UNL     1       2.122   3.210  18.806  0.00  0.00    +0.000 N 
ATOM      2  H   UNL     1       1.555   2.879  18.026  0.00  0.00    +0.000 HD
ENDROOT
BRANCH   1   3
ATOM      3  C   UNL     1       2.031   4.584  19.150  0.00  0.00    +0.000 A 
ATOM      4  C   UNL     1       2.200   5.571  18.184  0.00  0.00    +0.000 A 
ATOM      5  C   UNL     1       2.104   6.915  18.543  0.00  0.00    +0.000 A 
ATOM      6  C   UNL     1       1.815   7.272  19.864  0.00  0.00    +0.000 A 
ATOM      7  C   UNL     1       1.695   6.278  20.835  0.00  0.00    +0.000 A 
ATOM      8  C   UNL     1       1.792   4.933  20.480  0.00  0.00    +0.000 A 
BRANCH   6   9
ATOM      9  O   UNL     1       1.632   8.554  20.307  0.00  0.00    +0.000 OA
BRANCH   9  10
ATOM     10  C   UNL     1       1.286   8.670  21.688  0.00  0.00    +0.000 C 
BRANCH  10  11
ATOM     11  C   UNL     1       0.398   9.872  21.876  0.00  0.00    +0.000 A 
ATOM     12  C   UNL     1       0.427  10.936  20.966  0.00  0.00    +0.000 A 
ATOM     13  C   UNL     1      -0.411  12.038  21.145  0.00  0.00    +0.000 A 
ATOM     14  C   UNL     1      -1.278  12.088  22.235  0.00  0.00    +0.000 A 
ATOM     15  C   UNL     1      -1.306  11.040  23.152  0.00  0.00    +0.000 A 
ATOM     16  C   UNL     1      -0.469   9.938  22.977  0.00  0.00    +0.000 A 
ENDBRANCH  10  11
ENDBRANCH   9  10
ENDBRANCH   6   9
ENDBRANCH   1   3
BRANCH   1  17
ATOM     17  S   UNL     1       3.643   2.480  18.829  0.00  0.00    +0.000 S 
ATOM     18  O   UNL     1       3.731   1.536  17.738  0.00  0.00    +0.000 OA
ATOM     19  O   UNL     1       3.888   2.070  20.194  0.00  0.00    +0.000 OA
BRANCH  17  22
ATOM     20  C   UNL     1       5.989   5.173  16.896  0.00  0.00    +0.000 A 
ATOM     21  C   UNL     1       5.075   4.141  17.175  0.00  0.00    +0.000 A 
ATOM     22  C   UNL     1       4.737   3.839  18.497  0.00  0.00    +0.000 A 
ATOM     23  C   UNL     1       5.283   4.565  19.555  0.00  0.00    +0.000 A 
ATOM     24  C   UNL     1       6.183   5.595  19.284  0.00  0.00    +0.000 A 
ATOM     25  C   UNL     1       6.546   5.898  17.962  0.00  0.00    +0.000 A 
ATOM     26 BR   UNL     1       7.838   7.272  17.744  0.00  0.00    +0.000 Br
BRANCH  20  28
ATOM     27  O   UNL     1       5.639   6.033  14.721  0.00  0.00    +0.000 OA
ATOM     28  C   UNL     1       6.332   5.354  15.462  0.00  0.00    +0.000 C 
BRANCH  28  29
ATOM     29  O   UNL     1       7.494   4.804  15.064  0.00  0.00    +0.000 OA
ATOM     30  H   UNL     1       7.579   4.656  14.102  0.00  0.00    +0.000 HD
ENDBRANCH  28  29
ENDBRANCH  20  28
ENDBRANCH  17  22
ENDBRANCH   1  17
TORSDOF 8
ENDMDL
MODEL 7
REMARK VINA RESULT:      -7.8      2.782      3.617
REMARK  Name = 
REMARK  8 active torsions:
REMARK  status: ('A' for Active; 'I' for Inactive)
REMARK    1  A    between atoms: C_2  and  O_3
REMARK    2  A    between atoms: C_2  and  C_4
REMARK    3  A    between atoms: C_6  and  S_7
REMARK    4  A    between atoms: S_7  and  N_10
REMARK    5  A    between atoms: N_10  and  C_11
REMARK    6  A    between atoms: C_14  and  O_15
REMARK    7  A    between atoms: O_15  and  C_16
REMARK    8  A    between atoms: C_16  and  C_17
REMARK                            x       y       z     vdW  Elec       q    Type
REMARK                         _______ _______ _______ _____ _____    ______ ____
ROOT
ATOM      1  N   UNL     1       2.158   3.346  18.641  0.00  0.00    +0.000 N 
ATOM      2  H   UNL     1       1.650   3.074  17.800  0.00  0.00    +0.000 HD
ENDROOT
BRANCH   1   3
ATOM      3  C   UNL     1       2.051   4.695  19.069  0.00  0.00    +0.000 A 
ATOM      4  C   UNL     1       2.248   5.741  18.174  0.00  0.00    +0.000 A 
ATOM      5  C   UNL     1       2.135   7.060  18.615  0.00  0.00    +0.000 A 
ATOM      6  C   UNL     1       1.801   7.332  19.944  0.00  0.00    +0.000 A 
ATOM      7  C   UNL     1       1.651   6.278  20.846  0.00  0.00    +0.000 A 
ATOM      8  C   UNL     1       1.766   4.958  20.409  0.00  0.00    +0.000 A 
BRANCH   6   9
ATOM      9  O   UNL     1       1.599   8.583  20.462  0.00  0.00    +0.000 OA
BRANCH   9  10
ATOM     10  C   UNL     1       0.981   8.609  21.750  0.00  0.00    +0.000 C 
BRANCH  10  11
ATOM     11  C   UNL     1       0.042   9.784  21.823  0.00  0.00    +0.000 A 
ATOM     12  C   UNL     1      -0.554  10.153  23.036  0.00  0.00    +0.000 A 
ATOM     13  C   UNL     1      -1.412  11.252  23.092  0.00  0.00    +0.000 A 
ATOM     14  C   UNL     1      -1.687  11.986  21.939  0.00  0.00    +0.000 A 
ATOM     15  C   UNL     1      -1.108  11.620  20.726  0.00  0.00    +0.000 A 
ATOM     16  C   UNL     1      -0.251  10.521  20.666  0.00  0.00    +0.000 A 
ENDBRANCH  10  11
ENDBRANCH   9  10
ENDBRANCH   6   9
ENDBRANCH   1   3
BRANCH   1  17
ATOM     17  S   UNL     1       3.667   2.597  18.733  0.00  0.00    +0.000 S 
ATOM     18  O   UNL     1       3.797   1.662  17.638  0.00  0.00    +0.000 OA
ATOM     19  O   UNL     1       3.840   2.173  20.105  0.00  0.00    +0.000 OA
BRANCH  17  22
ATOM     20  C   UNL     1       6.061   5.338  16.930  0.00  0.00    +0.000 A 
ATOM     21  C   UNL     1       5.123   4.315  17.161  0.00  0.00    +0.000 A 
ATOM     22  C   UNL     1       4.791   3.945  18.467  0.00  0.00    +0.000 A 
ATOM     23  C   UNL     1       5.367   4.594  19.558  0.00  0.00    +0.000 A 
ATOM     24  C   UNL     1       6.290   5.616  19.336  0.00  0.00    +0.000 A 
ATOM     25  C   UNL     1       6.647   5.986  18.030  0.00  0.00    +0.000 A 
ATOM     26 BR   UNL     1       7.972   7.337  17.876  0.00  0.00    +0.000 Br
BRANCH  20  28
ATOM     27  O   UNL     1       7.444   5.205  15.017  0.00  0.00    +0.000 OA
ATOM     28  C   UNL     1       6.394   5.593  15.506  0.00  0.00    +0.000 C 
BRANCH  28  29
ATOM     29  O   UNL     1       5.432   6.187  14.776  0.00  0.00    +0.000 OA
ATOM     30  H   UNL     1       5.317   7.145  14.935  0.00  0.00    +0.000 HD
ENDBRANCH  28  29
ENDBRANCH  20  28
ENDBRANCH  17  22
ENDBRANCH   1  17
TORSDOF 8
ENDMDL
MODEL 8
REMARK VINA RESULT:      -7.7      3.723      8.725
REMARK  Name = 
REMARK  8 active torsions:
REMARK  status: ('A' for Active; 'I' for Inactive)
REMARK    1  A    between atoms: C_2  and  O_3
REMARK    2  A    between atoms: C_2  and  C_4
REMARK    3  A    between atoms: C_6  and  S_7
REMARK    4  A    between atoms: S_7  and  N_10
REMARK    5  A    between atoms: N_10  and  C_11
REMARK    6  A    between atoms: C_14  and  O_15
REMARK    7  A    between atoms: O_15  and  C_16
REMARK    8  A    between atoms: C_16  and  C_17
REMARK                            x       y       z     vdW  Elec       q    Type
REMARK                         _______ _______ _______ _____ _____    ______ ____
ROOT
ATOM      1  N   UNL     1       2.810   5.232  17.893  0.00  0.00    +0.000 N 
ATOM      2  H   UNL     1       2.072   4.539  17.778  0.00  0.00    +0.000 HD
ENDROOT
BRANCH   1   3
ATOM      3  C   UNL     1       3.955   5.121  17.062  0.00  0.00    +0.000 A 
ATOM      4  C   UNL     1       4.520   6.250  16.477  0.00  0.00    +0.000 A 
ATOM      5  C   UNL     1       5.647   6.119  15.666  0.00  0.00    +0.000 A 
ATOM      6  C   UNL     1       6.223   4.862  15.458  0.00  0.00    +0.000 A 
ATOM      7  C   UNL     1       5.622   3.730  16.009  0.00  0.00    +0.000 A 
ATOM      8  C   UNL     1       4.494   3.857  16.820  0.00  0.00    +0.000 A 
BRANCH   6   9
ATOM      9  O   UNL     1       7.364   4.632  14.739  0.00  0.00    +0.000 OA
BRANCH   9  10
ATOM     10  C   UNL     1       7.303   5.029  13.368  0.00  0.00    +0.000 C 
BRANCH  10  11
ATOM     11  C   UNL     1       6.795   3.876  12.542  0.00  0.00    +0.000 A 
ATOM     12  C   UNL     1       7.684   2.973  11.945  0.00  0.00    +0.000 A 
ATOM     13  C   UNL     1       7.199   1.902  11.193  0.00  0.00    +0.000 A 
ATOM     14  C   UNL     1       5.826   1.729  11.025  0.00  0.00    +0.000 A 
ATOM     15  C   UNL     1       4.935   2.628  11.606  0.00  0.00    +0.000 A 
ATOM     16  C   UNL     1       5.416   3.700  12.357  0.00  0.00    +0.000 A 
ENDBRANCH  10  11
ENDBRANCH   9  10
ENDBRANCH   6   9
ENDBRANCH   1   3
BRANCH   1  17
ATOM     17  S   UNL     1       3.037   5.643  19.513  0.00  0.00    +0.000 S 
ATOM     18  O   UNL     1       4.453   5.786  19.771  0.00  0.00    +0.000 OA
ATOM     19  O   UNL     1       2.223   4.737  20.293  0.00  0.00    +0.000 OA
BRANCH  17  22
ATOM     20  C   UNL     1       0.928   8.836  20.874  0.00  0.00    +0.000 A 
ATOM     21  C   UNL     1       1.593   7.599  20.792  0.00  0.00    +0.000 A 
ATOM     22  C   UNL     1       2.274   7.242  19.624  0.00  0.00    +0.000 A 
ATOM     23  C   UNL     1       2.322   8.111  18.535  0.00  0.00    +0.000 A 
ATOM     24  C   UNL     1       1.672   9.343  18.614  0.00  0.00    +0.000 A 
ATOM     25  C   UNL     1       0.969   9.707  19.774  0.00  0.00    +0.000 A 
ATOM     26 BR   UNL     1       0.068  11.377  19.715  0.00  0.00    +0.000 Br
BRANCH  20  28
ATOM     27  O   UNL     1      -0.871   8.489  22.369  0.00  0.00    +0.000 OA
ATOM     28  C   UNL     1       0.174   9.074  22.131  0.00  0.00    +0.000 C 
BRANCH  28  29
ATOM     29  O   UNL     1       0.762   9.896  23.021  0.00  0.00    +0.000 OA
ATOM     30  H   UNL     1       1.719   9.751  23.156  0.00  0.00    +0.000 HD
ENDBRANCH  28  29
ENDBRANCH  20  28
ENDBRANCH  17  22
ENDBRANCH   1  17
TORSDOF 8
ENDMDL
MODEL 9
REMARK VINA RESULT:      -7.7      1.990      2.858
REMARK  Name = 
REMARK  8 active torsions:
REMARK  status: ('A' for Active; 'I' for Inactive)
REMARK    1  A    between atoms: C_2  and  O_3
REMARK    2  A    between atoms: C_2  and  C_4
REMARK    3  A    between atoms: C_6  and  S_7
REMARK    4  A    between atoms: S_7  and  N_10
REMARK    5  A    between atoms: N_10  and  C_11
REMARK    6  A    between atoms: C_14  and  O_15
REMARK    7  A    between atoms: O_15  and  C_16
REMARK    8  A    between atoms: C_16  and  C_17
REMARK                            x       y       z     vdW  Elec       q    Type
REMARK                         _______ _______ _______ _____ _____    ______ ____
ROOT
ATOM      1  N   UNL     1       2.105   3.274  18.903  0.00  0.00    +0.000 N 
ATOM      2  H   UNL     1       1.532   2.865  18.166  0.00  0.00    +0.000 HD
ENDROOT
BRANCH   1   3
ATOM      3  C   UNL     1       2.015   4.676  19.108  0.00  0.00    +0.000 A 
ATOM      4  C   UNL     1       2.164   5.559  18.044  0.00  0.00    +0.000 A 
ATOM      5  C   UNL     1       2.068   6.933  18.267  0.00  0.00    +0.000 A 
ATOM      6  C   UNL     1       1.801   7.422  19.549  0.00  0.00    +0.000 A 
ATOM      7  C   UNL     1       1.700   6.531  20.618  0.00  0.00    +0.000 A 
ATOM      8  C   UNL     1       1.797   5.157  20.399  0.00  0.00    +0.000 A 
BRANCH   6   9
ATOM      9  O   UNL     1       1.621   8.742  19.863  0.00  0.00    +0.000 OA
BRANCH   9  10
ATOM     10  C   UNL     1       1.518   9.620  18.741  0.00  0.00    +0.000 C 
BRANCH  10  11
ATOM     11  C   UNL     1       0.123  10.185  18.682  0.00  0.00    +0.000 A 
ATOM     12  C   UNL     1      -0.311  11.129  19.621  0.00  0.00    +0.000 A 
ATOM     13  C   UNL     1      -1.602  11.654  19.546  0.00  0.00    +0.000 A 
ATOM     14  C   UNL     1      -2.471  11.234  18.540  0.00  0.00    +0.000 A 
ATOM     15  C   UNL     1      -2.053  10.287  17.608  0.00  0.00    +0.000 A 
ATOM     16  C   UNL     1      -0.763   9.760  17.681  0.00  0.00    +0.000 A 
ENDBRANCH  10  11
ENDBRANCH   9  10
ENDBRANCH   6   9
ENDBRANCH   1   3
BRANCH   1  17
ATOM     17  S   UNL     1       3.627   2.552  18.987  0.00  0.00    +0.000 S 
ATOM     18  O   UNL     1       3.730   1.546  17.953  0.00  0.00    +0.000 OA
ATOM     19  O   UNL     1       3.857   2.222  20.377  0.00  0.00    +0.000 OA
BRANCH  17  22
ATOM     20  C   UNL     1       5.958   5.160  16.923  0.00  0.00    +0.000 A 
ATOM     21  C   UNL     1       5.043   4.143  17.253  0.00  0.00    +0.000 A 
ATOM     22  C   UNL     1       4.721   3.892  18.590  0.00  0.00    +0.000 A 
ATOM     23  C   UNL     1       5.284   4.654  19.612  0.00  0.00    +0.000 A 
ATOM     24  C   UNL     1       6.185   5.670  19.291  0.00  0.00    +0.000 A 
ATOM     25  C   UNL     1       6.531   5.921  17.954  0.00  0.00    +0.000 A 
ATOM     26 BR   UNL     1       7.826   7.280  17.668  0.00  0.00    +0.000 Br
BRANCH  20  28
ATOM     27  O   UNL     1       5.584   5.943  14.724  0.00  0.00    +0.000 OA
ATOM     28  C   UNL     1       6.282   5.285  15.480  0.00  0.00    +0.000 C 
BRANCH  28  29
ATOM     29  O   UNL     1       7.434   4.711  15.086  0.00  0.00    +0.000 OA
ATOM     30  H   UNL     1       7.624   4.768  14.129  0.00  0.00    +0.000 HD
ENDBRANCH  28  29
ENDBRANCH  20  28
ENDBRANCH  17  22
ENDBRANCH   1  17
TORSDOF 8
ENDMDL
