MODEL 1
REMARK VINA RESULT:      -8.7      0.000      0.000
REMARK  Name = 
REMARK  8 active torsions:
REMARK  status: ('A' for Active; 'I' for Inactive)
REMARK    1  A    between atoms: C_1  and  O_2
REMARK    2  A    between atoms: O_2  and  C_3
REMARK    3  A    between atoms: C_5  and  C_6
REMARK    4  A    between atoms: C_9  and  C_10
REMARK    5  A    between atoms: C_12  and  N_13
REMARK    6  A    between atoms: C_15  and  C_16
REMARK    7  A    between atoms: N_24  and  C_25
REMARK    8  A    between atoms: C_28  and  C_29
REMARK                            x       y       z     vdW  Elec       q    Type
REMARK                         _______ _______ _______ _____ _____    ______ ____
ROOT
ATOM      1  C   UNL     1       3.002   5.853  18.599  0.00  0.00    +0.000 A 
ATOM      2  C   UNL     1       2.535   7.131  18.871  0.00  0.00    +0.000 A 
ATOM      3  C   UNL     1       1.794   7.327  20.026  0.00  0.00    +0.000 A 
ATOM      4  N   UNL     1       1.418   6.283  20.780  0.00  0.00    +0.000 NA
ATOM      5  C   UNL     1       1.796   5.057  20.379  0.00  0.00    +0.000 A 
ATOM      6  C   UNL     1       1.165   3.874  21.045  0.00  0.00    +0.000 C 
ATOM      7  N   UNL     1       2.631   4.804  19.357  0.00  0.00    +0.000 NA
ENDROOT
BRANCH   1  14
ATOM      8  C   UNL     1       4.534   4.294  17.305  0.00  0.00    +0.000 A 
ATOM      9  N   UNL     1       5.389   3.990  16.294  0.00  0.00    +0.000 NA
ATOM     10  C   UNL     1       5.793   4.989  15.482  0.00  0.00    +0.000 A 
ATOM     11  C   UNL     1       6.747   4.633  14.382  0.00  0.00    +0.000 C 
ATOM     12  C   UNL     1       5.365   6.296  15.657  0.00  0.00    +0.000 A 
ATOM     13  C   UNL     1       4.464   6.577  16.689  0.00  0.00    +0.000 A 
ATOM     14  C   UNL     1       3.995   5.561  17.542  0.00  0.00    +0.000 A 
BRANCH   8  16
ATOM     15  C   UNL     1       3.407   2.267  17.485  0.00  0.00    +0.000 C 
ATOM     16  O   UNL     1       4.170   3.266  18.154  0.00  0.00    +0.000 OA
ENDBRANCH   8  16
ENDBRANCH   1  14
BRANCH   3  17
ATOM     17  N   UNL     1       1.486   8.629  20.477  0.00  0.00    +0.000 N 
ATOM     18  C   UNL     1       0.321   9.140  21.124  0.00  0.00    +0.000 C 
ATOM     19  C   UNL     1       0.376  10.388  20.220  0.00  0.00    +0.000 C 
ATOM     20  C   UNL     1       1.749   9.851  19.774  0.00  0.00    +0.000 C 
BRANCH  19  21
ATOM     21  C   UNL     1      -0.752  10.454  19.161  0.00  0.00    +0.000 A 
ATOM     22  N   UNL     1      -0.667   9.743  18.045  0.00  0.00    +0.000 NA
ATOM     23  C   UNL     1      -1.775  10.070  17.293  0.00  0.00    +0.000 A 
ATOM     24  C   UNL     1      -2.174   9.637  16.017  0.00  0.00    +0.000 A 
ATOM     25  C   UNL     1      -3.359  10.147  15.463  0.00  0.00    +0.000 A 
ATOM     26  C   UNL     1      -4.142  11.063  16.166  0.00  0.00    +0.000 A 
ATOM     27  C   UNL     1      -3.760  11.504  17.433  0.00  0.00    +0.000 A 
ATOM     28  C   UNL     1      -2.572  10.983  17.963  0.00  0.00    +0.000 A 
ATOM     29  N   UNL     1      -1.907  11.215  19.150  0.00  0.00    +0.000 N 
ATOM     30  C   UNL     1      -2.346  12.167  20.128  0.00  0.00    +0.000 C 
ENDBRANCH  19  21
ENDBRANCH   3  17
TORSDOF 4
ENDMDL
MODEL 2
REMARK VINA RESULT:      -8.6      3.308      4.352
REMARK  Name = 
REMARK  8 active torsions:
REMARK  status: ('A' for Active; 'I' for Inactive)
REMARK    1  A    between atoms: C_1  and  O_2
REMARK    2  A    between atoms: O_2  and  C_3
REMARK    3  A    between atoms: C_5  and  C_6
REMARK    4  A    between atoms: C_9  and  C_10
REMARK    5  A    between atoms: C_12  and  N_13
REMARK    6  A    between atoms: C_15  and  C_16
REMARK    7  A    between atoms: N_24  and  C_25
REMARK    8  A    between atoms: C_28  and  C_29
REMARK                            x       y       z     vdW  Elec       q    Type
REMARK                         _______ _______ _______ _____ _____    ______ ____
ROOT
ATOM      1  C   UNL     1       2.304   6.556  19.441  0.00  0.00    +0.000 A 
ATOM      2  C   UNL     1       1.826   6.930  20.688  0.00  0.00    +0.000 A 
ATOM      3  C   UNL     1       1.258   8.187  20.825  0.00  0.00    +0.000 A 
ATOM      4  N   UNL     1       1.300   9.068  19.813  0.00  0.00    +0.000 NA
ATOM      5  C   UNL     1       1.900   8.679  18.674  0.00  0.00    +0.000 A 
ATOM      6  C   UNL     1       2.196   9.724  17.644  0.00  0.00    +0.000 C 
ATOM      7  N   UNL     1       2.342   7.436  18.422  0.00  0.00    +0.000 NA
ENDROOT
BRANCH   1  14
ATOM      8  C   UNL     1       4.001   4.674  19.277  0.00  0.00    +0.000 A 
ATOM      9  N   UNL     1       4.374   3.387  19.049  0.00  0.00    +0.000 NA
ATOM     10  C   UNL     1       3.445   2.531  18.578  0.00  0.00    +0.000 A 
ATOM     11  C   UNL     1       3.883   1.120  18.321  0.00  0.00    +0.000 C 
ATOM     12  C   UNL     1       2.142   2.929  18.321  0.00  0.00    +0.000 A 
ATOM     13  C   UNL     1       1.777   4.252  18.590  0.00  0.00    +0.000 A 
ATOM     14  C   UNL     1       2.707   5.172  19.109  0.00  0.00    +0.000 A 
BRANCH   8  16
ATOM     15  C   UNL     1       6.238   5.290  19.098  0.00  0.00    +0.000 C 
ATOM     16  O   UNL     1       4.980   5.546  19.715  0.00  0.00    +0.000 OA
ENDBRANCH   8  16
ENDBRANCH   1  14
BRANCH   3  17
ATOM     17  N   UNL     1       0.554   8.541  21.996  0.00  0.00    +0.000 N 
ATOM     18  C   UNL     1      -0.822   8.865  22.194  0.00  0.00    +0.000 C 
ATOM     19  C   UNL     1      -0.406  10.029  23.117  0.00  0.00    +0.000 C 
ATOM     20  C   UNL     1       1.012   9.434  23.019  0.00  0.00    +0.000 C 
BRANCH  19  21
ATOM     21  C   UNL     1      -0.644  11.434  22.512  0.00  0.00    +0.000 A 
ATOM     22  N   UNL     1       0.291  12.011  21.767  0.00  0.00    +0.000 NA
ATOM     23  C   UNL     1      -0.190  13.261  21.444  0.00  0.00    +0.000 A 
ATOM     24  C   UNL     1       0.393  14.301  20.700  0.00  0.00    +0.000 A 
ATOM     25  C   UNL     1      -0.315  15.501  20.530  0.00  0.00    +0.000 A 
ATOM     26  C   UNL     1      -1.588  15.663  21.079  0.00  0.00    +0.000 A 
ATOM     27  C   UNL     1      -2.182  14.642  21.820  0.00  0.00    +0.000 A 
ATOM     28  C   UNL     1      -1.453  13.456  21.978  0.00  0.00    +0.000 A 
ATOM     29  N   UNL     1      -1.726  12.283  22.653  0.00  0.00    +0.000 N 
ATOM     30  C   UNL     1      -2.914  12.077  23.428  0.00  0.00    +0.000 C 
ENDBRANCH  19  21
ENDBRANCH   3  17
TORSDOF 4
ENDMDL
MODEL 3
REMARK VINA RESULT:      -8.4      2.060      3.989
REMARK  Name = 
REMARK  8 active torsions:
REMARK  status: ('A' for Active; 'I' for Inactive)
REMARK    1  A    between atoms: C_1  and  O_2
REMARK    2  A    between atoms: O_2  and  C_3
REMARK    3  A    between atoms: C_5  and  C_6
REMARK    4  A    between atoms: C_9  and  C_10
REMARK    5  A    between atoms: C_12  and  N_13
REMARK    6  A    between atoms: C_15  and  C_16
REMARK    7  A    between atoms: N_24  and  C_25
REMARK    8  A    between atoms: C_28  and  C_29
REMARK                            x       y       z     vdW  Elec       q    Type
REMARK                         _______ _______ _______ _____ _____    ______ ____
ROOT
ATOM      1  C   UNL     1       2.008   7.839  18.804  0.00  0.00    +0.000 A 
ATOM      2  C   UNL     1       1.145   8.699  18.142  0.00  0.00    +0.000 A 
ATOM      3  C   UNL     1       0.500   9.680  18.880  0.00  0.00    +0.000 A 
ATOM      4  N   UNL     1       0.600   9.702  20.218  0.00  0.00    +0.000 NA
ATOM      5  C   UNL     1       1.350   8.751  20.803  0.00  0.00    +0.000 A 
ATOM      6  C   UNL     1       1.253   8.594  22.288  0.00  0.00    +0.000 C 
ATOM      7  N   UNL     1       2.114   7.862  20.147  0.00  0.00    +0.000 NA
ENDROOT
BRANCH   1  14
ATOM      8  C   UNL     1       2.773   5.530  18.073  0.00  0.00    +0.000 A 
ATOM      9  N   UNL     1       3.564   4.674  17.374  0.00  0.00    +0.000 NA
ATOM     10  C   UNL     1       4.611   5.187  16.697  0.00  0.00    +0.000 A 
ATOM     11  C   UNL     1       5.478   4.223  15.945  0.00  0.00    +0.000 C 
ATOM     12  C   UNL     1       4.895   6.544  16.702  0.00  0.00    +0.000 A 
ATOM     13  C   UNL     1       4.050   7.406  17.406  0.00  0.00    +0.000 A 
ATOM     14  C   UNL     1       2.930   6.918  18.104  0.00  0.00    +0.000 A 
BRANCH   8  16
ATOM     15  C   UNL     1       1.535   3.604  18.484  0.00  0.00    +0.000 C 
ATOM     16  O   UNL     1       1.734   4.979  18.798  0.00  0.00    +0.000 OA
ENDBRANCH   8  16
ENDBRANCH   1  14
BRANCH   3  17
ATOM     17  N   UNL     1      -0.206  10.721  18.241  0.00  0.00    +0.000 N 
ATOM     18  C   UNL     1      -0.203  12.130  18.473  0.00  0.00    +0.000 C 
ATOM     19  C   UNL     1      -1.739  12.149  18.326  0.00  0.00    +0.000 C 
ATOM     20  C   UNL     1      -1.586  10.691  17.852  0.00  0.00    +0.000 C 
BRANCH  19  21
ATOM     21  C   UNL     1      -2.500  12.403  19.650  0.00  0.00    +0.000 A 
ATOM     22  N   UNL     1      -1.837  12.517  20.794  0.00  0.00    +0.000 NA
ATOM     23  C   UNL     1      -2.790  12.665  21.778  0.00  0.00    +0.000 A 
ATOM     24  C   UNL     1      -2.652  12.799  23.170  0.00  0.00    +0.000 A 
ATOM     25  C   UNL     1      -3.805  12.921  23.962  0.00  0.00    +0.000 A 
ATOM     26  C   UNL     1      -5.074  12.921  23.383  0.00  0.00    +0.000 A 
ATOM     27  C   UNL     1      -5.229  12.789  22.003  0.00  0.00    +0.000 A 
ATOM     28  C   UNL     1      -4.064  12.665  21.235  0.00  0.00    +0.000 A 
ATOM     29  N   UNL     1      -3.860  12.499  19.880  0.00  0.00    +0.000 N 
ATOM     30  C   UNL     1      -4.927  12.365  18.932  0.00  0.00    +0.000 C 
ENDBRANCH  19  21
ENDBRANCH   3  17
TORSDOF 4
ENDMDL
MODEL 4
REMARK VINA RESULT:      -8.4      1.169      1.715
REMARK  Name = 
REMARK  8 active torsions:
REMARK  status: ('A' for Active; 'I' for Inactive)
REMARK    1  A    between atoms: C_1  and  O_2
REMARK    2  A    between atoms: O_2  and  C_3
REMARK    3  A    between atoms: C_5  and  C_6
REMARK    4  A    between atoms: C_9  and  C_10
REMARK    5  A    between atoms: C_12  and  N_13
REMARK    6  A    between atoms: C_15  and  C_16
REMARK    7  A    between atoms: N_24  and  C_25
REMARK    8  A    between atoms: C_28  and  C_29
REMARK                            x       y       z     vdW  Elec       q    Type
REMARK                         _______ _______ _______ _____ _____    ______ ____
ROOT
ATOM      1  C   UNL     1       3.238   5.898  18.203  0.00  0.00    +0.000 A 
ATOM      2  C   UNL     1       2.825   7.199  18.450  0.00  0.00    +0.000 A 
ATOM      3  C   UNL     1       2.094   7.450  19.600  0.00  0.00    +0.000 A 
ATOM      4  N   UNL     1       1.675   6.439  20.376  0.00  0.00    +0.000 NA
ATOM      5  C   UNL     1       2.001   5.189  19.999  0.00  0.00    +0.000 A 
ATOM      6  C   UNL     1       1.322   4.048  20.690  0.00  0.00    +0.000 C 
ATOM      7  N   UNL     1       2.823   4.881  18.983  0.00  0.00    +0.000 NA
ENDROOT
BRANCH   1  14
ATOM      8  C   UNL     1       5.343   6.310  16.844  0.00  0.00    +0.000 A 
ATOM      9  N   UNL     1       6.293   5.963  15.935  0.00  0.00    +0.000 NA
ATOM     10  C   UNL     1       6.119   4.822  15.239  0.00  0.00    +0.000 A 
ATOM     11  C   UNL     1       7.172   4.467  14.232  0.00  0.00    +0.000 C 
ATOM     12  C   UNL     1       5.009   4.011  15.423  0.00  0.00    +0.000 A 
ATOM     13  C   UNL     1       4.061   4.375  16.383  0.00  0.00    +0.000 A 
ATOM     14  C   UNL     1       4.216   5.543  17.152  0.00  0.00    +0.000 A 
BRANCH   8  16
ATOM     15  C   UNL     1       6.887   7.889  17.574  0.00  0.00    +0.000 C 
ATOM     16  O   UNL     1       5.517   7.506  17.513  0.00  0.00    +0.000 OA
ENDBRANCH   8  16
ENDBRANCH   1  14
BRANCH   3  17
ATOM     17  N   UNL     1       1.841   8.772  20.024  0.00  0.00    +0.000 N 
ATOM     18  C   UNL     1       0.767   9.316  20.792  0.00  0.00    +0.000 C 
ATOM     19  C   UNL     1       0.700  10.520  19.829  0.00  0.00    +0.000 C 
ATOM     20  C   UNL     1       2.007   9.959  19.237  0.00  0.00    +0.000 C 
BRANCH  19  21
ATOM     21  C   UNL     1      -0.555  10.538  18.923  0.00  0.00    +0.000 A 
ATOM     22  N   UNL     1      -0.572   9.853  17.786  0.00  0.00    +0.000 NA
ATOM     23  C   UNL     1      -1.782  10.128  17.188  0.00  0.00    +0.000 A 
ATOM     24  C   UNL     1      -2.315   9.695  15.962  0.00  0.00    +0.000 A 
ATOM     25  C   UNL     1      -3.587  10.143  15.573  0.00  0.00    +0.000 A 
ATOM     26  C   UNL     1      -4.326  10.998  16.393  0.00  0.00    +0.000 A 
ATOM     27  C   UNL     1      -3.812  11.437  17.612  0.00  0.00    +0.000 A 
ATOM     28  C   UNL     1      -2.539  10.979  17.976  0.00  0.00    +0.000 A 
ATOM     29  N   UNL     1      -1.743  11.228  19.076  0.00  0.00    +0.000 N 
ATOM     30  C   UNL     1      -2.109  12.134  20.125  0.00  0.00    +0.000 C 
ENDBRANCH  19  21
ENDBRANCH   3  17
TORSDOF 4
ENDMDL
MODEL 5
REMARK VINA RESULT:      -8.2      3.523      6.753
REMARK  Name = 
REMARK  8 active torsions:
REMARK  status: ('A' for Active; 'I' for Inactive)
REMARK    1  A    between atoms: C_1  and  O_2
REMARK    2  A    between atoms: O_2  and  C_3
REMARK    3  A    between atoms: C_5  and  C_6
REMARK    4  A    between atoms: C_9  and  C_10
REMARK    5  A    between atoms: C_12  and  N_13
REMARK    6  A    between atoms: C_15  and  C_16
REMARK    7  A    between atoms: N_24  and  C_25
REMARK    8  A    between atoms: C_28  and  C_29
REMARK                            x       y       z     vdW  Elec       q    Type
REMARK                         _______ _______ _______ _____ _____    ______ ____
ROOT
ATOM      1  C   UNL     1      -0.159  10.434  18.711  0.00  0.00    +0.000 A 
ATOM      2  C   UNL     1      -1.508  10.208  18.484  0.00  0.00    +0.000 A 
ATOM      3  C   UNL     1      -2.302  11.284  18.118  0.00  0.00    +0.000 A 
ATOM      4  N   UNL     1      -1.805  12.531  18.125  0.00  0.00    +0.000 NA
ATOM      5  C   UNL     1      -0.519  12.687  18.487  0.00  0.00    +0.000 A 
ATOM      6  C   UNL     1      -0.031  14.075  18.762  0.00  0.00    +0.000 C 
ATOM      7  N   UNL     1       0.344  11.683  18.714  0.00  0.00    +0.000 NA
ENDROOT
BRANCH   1  14
ATOM      8  C   UNL     1       1.157   8.757  20.094  0.00  0.00    +0.000 A 
ATOM      9  N   UNL     1       2.005   7.706  20.250  0.00  0.00    +0.000 NA
ATOM     10  C   UNL     1       2.620   7.219  19.153  0.00  0.00    +0.000 A 
ATOM     11  C   UNL     1       3.562   6.070  19.351  0.00  0.00    +0.000 C 
ATOM     12  C   UNL     1       2.414   7.760  17.894  0.00  0.00    +0.000 A 
ATOM     13  C   UNL     1       1.515   8.823  17.756  0.00  0.00    +0.000 A 
ATOM     14  C   UNL     1       0.830   9.344  18.869  0.00  0.00    +0.000 A 
BRANCH   8  16
ATOM     15  C   UNL     1      -0.396   8.384  21.785  0.00  0.00    +0.000 C 
ATOM     16  O   UNL     1       0.573   9.272  21.235  0.00  0.00    +0.000 OA
ENDBRANCH   8  16
ENDBRANCH   1  14
BRANCH   3  17
ATOM     17  N   UNL     1      -3.620  11.088  17.655  0.00  0.00    +0.000 N 
ATOM     18  C   UNL     1      -4.649  12.028  17.345  0.00  0.00    +0.000 C 
ATOM     19  C   UNL     1      -5.677  11.127  18.061  0.00  0.00    +0.000 C 
ATOM     20  C   UNL     1      -4.539  10.089  18.118  0.00  0.00    +0.000 C 
BRANCH  19  21
ATOM     21  C   UNL     1      -6.199  11.700  19.400  0.00  0.00    +0.000 A 
ATOM     22  N   UNL     1      -5.856  12.922  19.787  0.00  0.00    +0.000 NA
ATOM     23  C   UNL     1      -6.417  13.105  21.032  0.00  0.00    +0.000 A 
ATOM     24  C   UNL     1      -6.353  14.199  21.911  0.00  0.00    +0.000 A 
ATOM     25  C   UNL     1      -7.014  14.122  23.148  0.00  0.00    +0.000 A 
ATOM     26  C   UNL     1      -7.737  12.982  23.502  0.00  0.00    +0.000 A 
ATOM     27  C   UNL     1      -7.811  11.888  22.642  0.00  0.00    +0.000 A 
ATOM     28  C   UNL     1      -7.140  11.988  21.416  0.00  0.00    +0.000 A 
ATOM     29  N   UNL     1      -6.991  11.105  20.365  0.00  0.00    +0.000 N 
ATOM     30  C   UNL     1      -7.520   9.772  20.373  0.00  0.00    +0.000 C 
ENDBRANCH  19  21
ENDBRANCH   3  17
TORSDOF 4
ENDMDL
MODEL 6
REMARK VINA RESULT:      -8.2      2.582      8.727
REMARK  Name = 
REMARK  8 active torsions:
REMARK  status: ('A' for Active; 'I' for Inactive)
REMARK    1  A    between atoms: C_1  and  O_2
REMARK    2  A    between atoms: O_2  and  C_3
REMARK    3  A    between atoms: C_5  and  C_6
REMARK    4  A    between atoms: C_9  and  C_10
REMARK    5  A    between atoms: C_12  and  N_13
REMARK    6  A    between atoms: C_15  and  C_16
REMARK    7  A    between atoms: N_24  and  C_25
REMARK    8  A    between atoms: C_28  and  C_29
REMARK                            x       y       z     vdW  Elec       q    Type
REMARK                         _______ _______ _______ _____ _____    ______ ____
ROOT
ATOM      1  C   UNL     1      -1.580  11.410  18.823  0.00  0.00    +0.000 A 
ATOM      2  C   UNL     1      -1.250  10.285  19.565  0.00  0.00    +0.000 A 
ATOM      3  C   UNL     1       0.031  10.196  20.089  0.00  0.00    +0.000 A 
ATOM      4  N   UNL     1       0.964  11.104  19.764  0.00  0.00    +0.000 NA
ATOM      5  C   UNL     1       0.606  12.095  18.929  0.00  0.00    +0.000 A 
ATOM      6  C   UNL     1       1.689  12.948  18.346  0.00  0.00    +0.000 C 
ATOM      7  N   UNL     1      -0.646  12.325  18.500  0.00  0.00    +0.000 NA
ENDROOT
BRANCH   1  14
ATOM      8  C   UNL     1      -3.467  11.550  17.128  0.00  0.00    +0.000 A 
ATOM      9  N   UNL     1      -4.755  11.772  16.755  0.00  0.00    +0.000 NA
ATOM     10  C   UNL     1      -5.608  12.258  17.681  0.00  0.00    +0.000 A 
ATOM     11  C   UNL     1      -7.020  12.509  17.243  0.00  0.00    +0.000 C 
ATOM     12  C   UNL     1      -5.206  12.533  18.978  0.00  0.00    +0.000 A 
ATOM     13  C   UNL     1      -3.882  12.269  19.343  0.00  0.00    +0.000 A 
ATOM     14  C   UNL     1      -2.965  11.736  18.419  0.00  0.00    +0.000 A 
BRANCH   8  16
ATOM     15  C   UNL     1      -3.069   9.908  15.529  0.00  0.00    +0.000 C 
ATOM     16  O   UNL     1      -2.597  11.098  16.154  0.00  0.00    +0.000 OA
ENDBRANCH   8  16
ENDBRANCH   1  14
BRANCH   3  17
ATOM     17  N   UNL     1       0.359   9.201  21.034  0.00  0.00    +0.000 N 
ATOM     18  C   UNL     1       1.620   8.813  21.579  0.00  0.00    +0.000 C 
ATOM     19  C   UNL     1       1.222   7.331  21.426  0.00  0.00    +0.000 C 
ATOM     20  C   UNL     1      -0.180   7.873  21.085  0.00  0.00    +0.000 C 
BRANCH  19  21
ATOM     21  C   UNL     1       1.995   6.578  20.317  0.00  0.00    +0.000 A 
ATOM     22  N   UNL     1       2.789   7.239  19.485  0.00  0.00    +0.000 NA
ATOM     23  C   UNL     1       3.267   6.309  18.587  0.00  0.00    +0.000 A 
ATOM     24  C   UNL     1       4.121   6.462  17.481  0.00  0.00    +0.000 A 
ATOM     25  C   UNL     1       4.446   5.335  16.708  0.00  0.00    +0.000 A 
ATOM     26  C   UNL     1       3.941   4.076  17.033  0.00  0.00    +0.000 A 
ATOM     27  C   UNL     1       3.093   3.907  18.127  0.00  0.00    +0.000 A 
ATOM     28  C   UNL     1       2.781   5.046  18.880  0.00  0.00    +0.000 A 
ATOM     29  N   UNL     1       1.975   5.236  19.984  0.00  0.00    +0.000 N 
ATOM     30  C   UNL     1       1.200   4.189  20.584  0.00  0.00    +0.000 C 
ENDBRANCH  19  21
ENDBRANCH   3  17
TORSDOF 4
ENDMDL
MODEL 7
REMARK VINA RESULT:      -8.1      2.568      4.786
REMARK  Name = 
REMARK  8 active torsions:
REMARK  status: ('A' for Active; 'I' for Inactive)
REMARK    1  A    between atoms: C_1  and  O_2
REMARK    2  A    between atoms: O_2  and  C_3
REMARK    3  A    between atoms: C_5  and  C_6
REMARK    4  A    between atoms: C_9  and  C_10
REMARK    5  A    between atoms: C_12  and  N_13
REMARK    6  A    between atoms: C_15  and  C_16
REMARK    7  A    between atoms: N_24  and  C_25
REMARK    8  A    between atoms: C_28  and  C_29
REMARK                            x       y       z     vdW  Elec       q    Type
REMARK                         _______ _______ _______ _____ _____    ______ ____
ROOT
ATOM      1  C   UNL     1       1.409   8.433  19.825  0.00  0.00    +0.000 A 
ATOM      2  C   UNL     1       0.549   9.303  19.170  0.00  0.00    +0.000 A 
ATOM      3  C   UNL     1      -0.062  10.304  19.910  0.00  0.00    +0.000 A 
ATOM      4  N   UNL     1       0.063  10.337  21.246  0.00  0.00    +0.000 NA
ATOM      5  C   UNL     1       0.806   9.377  21.825  0.00  0.00    +0.000 A 
ATOM      6  C   UNL     1       0.734   9.237  23.314  0.00  0.00    +0.000 C 
ATOM      7  N   UNL     1       1.540   8.467  21.164  0.00  0.00    +0.000 NA
ENDROOT
BRANCH   1  14
ATOM      8  C   UNL     1       2.423   6.136  19.447  0.00  0.00    +0.000 A 
ATOM      9  N   UNL     1       3.177   5.235  18.762  0.00  0.00    +0.000 NA
ATOM     10  C   UNL     1       3.902   5.680  17.716  0.00  0.00    +0.000 A 
ATOM     11  C   UNL     1       4.737   4.672  16.984  0.00  0.00    +0.000 C 
ATOM     12  C   UNL     1       3.898   7.012  17.332  0.00  0.00    +0.000 A 
ATOM     13  C   UNL     1       3.093   7.913  18.035  0.00  0.00    +0.000 A 
ATOM     14  C   UNL     1       2.299   7.488  19.116  0.00  0.00    +0.000 A 
BRANCH   8  16
ATOM     15  C   UNL     1       2.253   4.438  21.028  0.00  0.00    +0.000 C 
ATOM     16  O   UNL     1       1.726   5.669  20.544  0.00  0.00    +0.000 OA
ENDBRANCH   8  16
ENDBRANCH   1  14
BRANCH   3  17
ATOM     17  N   UNL     1      -0.761  11.352  19.274  0.00  0.00    +0.000 N 
ATOM     18  C   UNL     1      -0.896  12.729  19.623  0.00  0.00    +0.000 C 
ATOM     19  C   UNL     1      -2.398  12.661  19.275  0.00  0.00    +0.000 C 
ATOM     20  C   UNL     1      -2.074  11.268  18.703  0.00  0.00    +0.000 C 
BRANCH  19  21
ATOM     21  C   UNL     1      -3.337  12.738  20.503  0.00  0.00    +0.000 A 
ATOM     22  N   UNL     1      -2.845  12.645  21.732  0.00  0.00    +0.000 NA
ATOM     23  C   UNL     1      -3.927  12.679  22.584  0.00  0.00    +0.000 A 
ATOM     24  C   UNL     1      -3.990  12.589  23.985  0.00  0.00    +0.000 A 
ATOM     25  C   UNL     1      -5.243  12.635  24.618  0.00  0.00    +0.000 A 
ATOM     26  C   UNL     1      -6.414  12.779  23.874  0.00  0.00    +0.000 A 
ATOM     27  C   UNL     1      -6.370  12.869  22.483  0.00  0.00    +0.000 A 
ATOM     28  C   UNL     1      -5.109  12.818  21.876  0.00  0.00    +0.000 A 
ATOM     29  N   UNL     1      -4.714  12.855  20.553  0.00  0.00    +0.000 N 
ATOM     30  C   UNL     1      -5.635  12.916  19.456  0.00  0.00    +0.000 C 
ENDBRANCH  19  21
ENDBRANCH   3  17
TORSDOF 4
ENDMDL
MODEL 8
REMARK VINA RESULT:      -8.1      2.475      8.348
REMARK  Name = 
REMARK  8 active torsions:
REMARK  status: ('A' for Active; 'I' for Inactive)
REMARK    1  A    between atoms: C_1  and  O_2
REMARK    2  A    between atoms: O_2  and  C_3
REMARK    3  A    between atoms: C_5  and  C_6
REMARK    4  A    between atoms: C_9  and  C_10
REMARK    5  A    between atoms: C_12  and  N_13
REMARK    6  A    between atoms: C_15  and  C_16
REMARK    7  A    between atoms: N_24  and  C_25
REMARK    8  A    between atoms: C_28  and  C_29
REMARK                            x       y       z     vdW  Elec       q    Type
REMARK                         _______ _______ _______ _____ _____    ______ ____
ROOT
ATOM      1  C   UNL     1       2.586   6.855  19.405  0.00  0.00    +0.000 A 
ATOM      2  C   UNL     1       3.968   6.863  19.290  0.00  0.00    +0.000 A 
ATOM      3  C   UNL     1       4.632   5.647  19.254  0.00  0.00    +0.000 A 
ATOM      4  N   UNL     1       3.968   4.501  19.470  0.00  0.00    +0.000 NA
ATOM      5  C   UNL     1       2.647   4.582  19.708  0.00  0.00    +0.000 A 
ATOM      6  C   UNL     1       1.948   3.359  20.215  0.00  0.00    +0.000 C 
ATOM      7  N   UNL     1       1.916   5.706  19.616  0.00  0.00    +0.000 NA
ENDROOT
BRANCH   1  14
ATOM      8  C   UNL     1       1.198   8.802  20.260  0.00  0.00    +0.000 A 
ATOM      9  N   UNL     1       0.490   9.952  20.108  0.00  0.00    +0.000 NA
ATOM     10  C   UNL     1       0.254  10.391  18.855  0.00  0.00    +0.000 A 
ATOM     11  C   UNL     1      -0.540  11.655  18.711  0.00  0.00    +0.000 C 
ATOM     12  C   UNL     1       0.706   9.704  17.739  0.00  0.00    +0.000 A 
ATOM     13  C   UNL     1       1.455   8.539  17.923  0.00  0.00    +0.000 A 
ATOM     14  C   UNL     1       1.749   8.059  19.213  0.00  0.00    +0.000 A 
BRANCH   8  16
ATOM     15  C   UNL     1       0.709   9.150  22.508  0.00  0.00    +0.000 C 
ATOM     16  O   UNL     1       1.388   8.344  21.550  0.00  0.00    +0.000 OA
ENDBRANCH   8  16
ENDBRANCH   1  14
BRANCH   3  17
ATOM     17  N   UNL     1       6.000   5.577  18.912  0.00  0.00    +0.000 N 
ATOM     18  C   UNL     1       6.780   6.374  18.021  0.00  0.00    +0.000 C 
ATOM     19  C   UNL     1       7.458   5.096  17.485  0.00  0.00    +0.000 C 
ATOM     20  C   UNL     1       6.745   4.381  18.649  0.00  0.00    +0.000 C 
BRANCH  19  21
ATOM     21  C   UNL     1       7.046   4.716  16.042  0.00  0.00    +0.000 A 
ATOM     22  N   UNL     1       7.807   5.067  15.013  0.00  0.00    +0.000 NA
ATOM     23  C   UNL     1       7.142   4.649  13.881  0.00  0.00    +0.000 A 
ATOM     24  C   UNL     1       7.475   4.782  12.523  0.00  0.00    +0.000 A 
ATOM     25  C   UNL     1       6.600   4.272  11.551  0.00  0.00    +0.000 A 
ATOM     26  C   UNL     1       5.418   3.630  11.920  0.00  0.00    +0.000 A 
ATOM     27  C   UNL     1       5.071   3.489  13.263  0.00  0.00    +0.000 A 
ATOM     28  C   UNL     1       5.959   4.009  14.213  0.00  0.00    +0.000 A 
ATOM     29  N   UNL     1       5.916   4.060  15.592  0.00  0.00    +0.000 N 
ATOM     30  C   UNL     1       4.810   3.575  16.365  0.00  0.00    +0.000 C 
ENDBRANCH  19  21
ENDBRANCH   3  17
TORSDOF 4
ENDMDL
MODEL 9
REMARK VINA RESULT:      -8.1      0.532      1.404
REMARK  Name = 
REMARK  8 active torsions:
REMARK  status: ('A' for Active; 'I' for Inactive)
REMARK    1  A    between atoms: C_1  and  O_2
REMARK    2  A    between atoms: O_2  and  C_3
REMARK    3  A    between atoms: C_5  and  C_6
REMARK    4  A    between atoms: C_9  and  C_10
REMARK    5  A    between atoms: C_12  and  N_13
REMARK    6  A    between atoms: C_15  and  C_16
REMARK    7  A    between atoms: N_24  and  C_25
REMARK    8  A    between atoms: C_28  and  C_29
REMARK                            x       y       z     vdW  Elec       q    Type
REMARK                         _______ _______ _______ _____ _____    ______ ____
ROOT
ATOM      1  C   UNL     1       2.956   5.848  18.745  0.00  0.00    +0.000 A 
ATOM      2  C   UNL     1       2.470   7.104  19.075  0.00  0.00    +0.000 A 
ATOM      3  C   UNL     1       1.710   7.233  20.227  0.00  0.00    +0.000 A 
ATOM      4  N   UNL     1       1.335   6.148  20.922  0.00  0.00    +0.000 NA
ATOM      5  C   UNL     1       1.734   4.948  20.464  0.00  0.00    +0.000 A 
ATOM      6  C   UNL     1       1.107   3.726  21.060  0.00  0.00    +0.000 C 
ATOM      7  N   UNL     1       2.586   4.757  19.443  0.00  0.00    +0.000 NA
ENDROOT
BRANCH   1  14
ATOM      8  C   UNL     1       4.592   4.393  17.457  0.00  0.00    +0.000 A 
ATOM      9  N   UNL     1       5.466   4.145  16.446  0.00  0.00    +0.000 NA
ATOM     10  C   UNL     1       5.800   5.166  15.631  0.00  0.00    +0.000 A 
ATOM     11  C   UNL     1       6.777   4.873  14.532  0.00  0.00    +0.000 C 
ATOM     12  C   UNL     1       5.284   6.441  15.802  0.00  0.00    +0.000 A 
ATOM     13  C   UNL     1       4.365   6.663  16.832  0.00  0.00    +0.000 A 
ATOM     14  C   UNL     1       3.967   5.621  17.689  0.00  0.00    +0.000 A 
BRANCH   8  16
ATOM     15  C   UNL     1       3.781   2.218  17.610  0.00  0.00    +0.000 C 
ATOM     16  O   UNL     1       4.299   3.345  18.309  0.00  0.00    +0.000 OA
ENDBRANCH   8  16
ENDBRANCH   1  14
BRANCH   3  17
ATOM     17  N   UNL     1       1.380   8.507  20.739  0.00  0.00    +0.000 N 
ATOM     18  C   UNL     1       0.167   8.996  21.310  0.00  0.00    +0.000 C 
ATOM     19  C   UNL     1       0.325  10.303  20.506  0.00  0.00    +0.000 C 
ATOM     20  C   UNL     1       1.727   9.769  20.153  0.00  0.00    +0.000 C 
BRANCH  19  21
ATOM     21  C   UNL     1      -0.696  10.467  19.355  0.00  0.00    +0.000 A 
ATOM     22  N   UNL     1      -1.836  11.116  19.556  0.00  0.00    +0.000 NA
ATOM     23  C   UNL     1      -2.544  11.028  18.378  0.00  0.00    +0.000 A 
ATOM     24  C   UNL     1      -3.820  11.511  18.040  0.00  0.00    +0.000 A 
ATOM     25  C   UNL     1      -4.324  11.268  16.752  0.00  0.00    +0.000 A 
ATOM     26  C   UNL     1      -3.570  10.566  15.810  0.00  0.00    +0.000 A 
ATOM     27  C   UNL     1      -2.303  10.080  16.129  0.00  0.00    +0.000 A 
ATOM     28  C   UNL     1      -1.824  10.333  17.421  0.00  0.00    +0.000 A 
ATOM     29  N   UNL     1      -0.650   9.985  18.060  0.00  0.00    +0.000 N 
ATOM     30  C   UNL     1       0.368   9.178  17.454  0.00  0.00    +0.000 C 
ENDBRANCH  19  21
ENDBRANCH   3  17
TORSDOF 4
ENDMDL
