MODEL 1
REMARK VINA RESULT:      -8.0      0.000      0.000
REMARK  Name = 
REMARK  3 active torsions:
REMARK  status: ('A' for Active; 'I' for Inactive)
REMARK    1  A    between atoms: C_1  and  C_2
REMARK    2  A    between atoms: C_3  and  C_4
REMARK    3  A    between atoms: N_13  and  C_14
REMARK                            x       y       z     vdW  Elec       q    Type
REMARK                         _______ _______ _______ _____ _____    ______ ____
ROOT
ATOM      1  C   UNL     1       3.904   7.881  17.450  0.00  0.00    +0.000 C 
ATOM      2  C   UNL     1       3.469   6.754  18.315  0.00  0.00    +0.000 A 
ATOM      3  C   UNL     1       2.510   6.733  19.341  0.00  0.00    +0.000 A 
ATOM      4  N   UNL     1       2.479   5.404  19.814  0.00  0.00    +0.000 N 
ATOM      5  C   UNL     1       3.388   4.679  19.146  0.00  0.00    +0.000 A 
ATOM      6  N   UNL     1       4.006   5.437  18.218  0.00  0.00    +0.000 N 
ATOM      7  S   UNL     1       3.762   3.003  19.547  0.00  0.00    +0.000 S 
ATOM      8  C   UNL     1       2.309   2.526  20.483  0.00  0.00    +0.000 C 
ATOM      9  C   UNL     1       1.987   3.606  21.491  0.00  0.00    +0.000 C 
ATOM     10  C   UNL     1       1.507   4.851  20.769  0.00  0.00    +0.000 C 
ENDROOT
BRANCH   3  11
ATOM     11  C   UNL     1       1.679   7.906  19.828  0.00  0.00    +0.000 A 
ATOM     12  C   UNL     1       1.297   8.014  21.172  0.00  0.00    +0.000 A 
ATOM     13  C   UNL     1       0.484   9.070  21.601  0.00  0.00    +0.000 A 
ATOM     14  C   UNL     1       0.091  10.056  20.702  0.00  0.00    +0.000 A 
ATOM     15 CL   UNL     1      -0.891  11.361  21.232  0.00  0.00    +0.000 Cl
ATOM     16  C   UNL     1       0.485   9.978  19.370  0.00  0.00    +0.000 A 
ATOM     17  C   UNL     1       1.254   8.893  18.929  0.00  0.00    +0.000 A 
ENDBRANCH   3  11
BRANCH   6  18
ATOM     18  C   UNL     1       5.064   4.959  17.291  0.00  0.00    +0.000 A 
ATOM     19  C   UNL     1       6.407   4.996  17.667  0.00  0.00    +0.000 A 
ATOM     20  C   UNL     1       7.400   4.614  16.756  0.00  0.00    +0.000 A 
ATOM     21  C   UNL     1       7.050   4.128  15.499  0.00  0.00    +0.000 A 
ATOM     22  C   UNL     1       5.707   4.042  15.144  0.00  0.00    +0.000 A 
ATOM     23  C   UNL     1       4.716   4.482  16.029  0.00  0.00    +0.000 A 
ENDBRANCH   6  18
TORSDOF 2
ENDMDL
MODEL 2
REMARK VINA RESULT:      -8.0      0.067      1.007
REMARK  Name = 
REMARK  3 active torsions:
REMARK  status: ('A' for Active; 'I' for Inactive)
REMARK    1  A    between atoms: C_1  and  C_2
REMARK    2  A    between atoms: C_3  and  C_4
REMARK    3  A    between atoms: N_13  and  C_14
REMARK                            x       y       z     vdW  Elec       q    Type
REMARK                         _______ _______ _______ _____ _____    ______ ____
ROOT
ATOM      1  C   UNL     1       3.869   7.902  17.451  0.00  0.00    +0.000 C 
ATOM      2  C   UNL     1       3.439   6.774  18.316  0.00  0.00    +0.000 A 
ATOM      3  C   UNL     1       2.482   6.750  19.345  0.00  0.00    +0.000 A 
ATOM      4  N   UNL     1       2.455   5.421  19.816  0.00  0.00    +0.000 N 
ATOM      5  C   UNL     1       3.364   4.698  19.146  0.00  0.00    +0.000 A 
ATOM      6  N   UNL     1       3.978   5.458  18.218  0.00  0.00    +0.000 N 
ATOM      7  S   UNL     1       3.743   3.023  19.545  0.00  0.00    +0.000 S 
ATOM      8  C   UNL     1       2.293   2.541  20.484  0.00  0.00    +0.000 C 
ATOM      9  C   UNL     1       1.970   3.621  21.494  0.00  0.00    +0.000 C 
ATOM     10  C   UNL     1       1.486   4.865  20.774  0.00  0.00    +0.000 C 
ENDROOT
BRANCH   3  11
ATOM     11  C   UNL     1       1.649   7.921  19.834  0.00  0.00    +0.000 A 
ATOM     12  C   UNL     1       1.231   8.929  18.955  0.00  0.00    +0.000 A 
ATOM     13  C   UNL     1       0.510  10.033  19.426  0.00  0.00    +0.000 A 
ATOM     14  C   UNL     1       0.154  10.111  20.768  0.00  0.00    +0.000 A 
ATOM     15 CL   UNL     1      -0.746  11.457  21.342  0.00  0.00    +0.000 Cl
ATOM     16  C   UNL     1       0.538   9.105  21.648  0.00  0.00    +0.000 A 
ATOM     17  C   UNL     1       1.305   8.027  21.188  0.00  0.00    +0.000 A 
ENDBRANCH   3  11
BRANCH   6  18
ATOM     18  C   UNL     1       5.035   4.983  17.288  0.00  0.00    +0.000 A 
ATOM     19  C   UNL     1       6.374   4.972  17.681  0.00  0.00    +0.000 A 
ATOM     20  C   UNL     1       7.368   4.594  16.769  0.00  0.00    +0.000 A 
ATOM     21  C   UNL     1       7.021   4.159  15.492  0.00  0.00    +0.000 A 
ATOM     22  C   UNL     1       5.681   4.121  15.119  0.00  0.00    +0.000 A 
ATOM     23  C   UNL     1       4.691   4.558  16.006  0.00  0.00    +0.000 A 
ENDBRANCH   6  18
TORSDOF 2
ENDMDL
MODEL 3
REMARK VINA RESULT:      -7.9      0.066      1.006
REMARK  Name = 
REMARK  3 active torsions:
REMARK  status: ('A' for Active; 'I' for Inactive)
REMARK    1  A    between atoms: C_1  and  C_2
REMARK    2  A    between atoms: C_3  and  C_4
REMARK    3  A    between atoms: N_13  and  C_14
REMARK                            x       y       z     vdW  Elec       q    Type
REMARK                         _______ _______ _______ _____ _____    ______ ____
ROOT
ATOM      1  C   UNL     1       3.874   7.909  17.448  0.00  0.00    +0.000 C 
ATOM      2  C   UNL     1       3.448   6.779  18.315  0.00  0.00    +0.000 A 
ATOM      3  C   UNL     1       2.485   6.750  19.337  0.00  0.00    +0.000 A 
ATOM      4  N   UNL     1       2.467   5.423  19.814  0.00  0.00    +0.000 N 
ATOM      5  C   UNL     1       3.387   4.706  19.152  0.00  0.00    +0.000 A 
ATOM      6  N   UNL     1       4.001   5.468  18.225  0.00  0.00    +0.000 N 
ATOM      7  S   UNL     1       3.780   3.036  19.559  0.00  0.00    +0.000 S 
ATOM      8  C   UNL     1       2.328   2.544  20.491  0.00  0.00    +0.000 C 
ATOM      9  C   UNL     1       1.989   3.624  21.494  0.00  0.00    +0.000 C 
ATOM     10  C   UNL     1       1.498   4.861  20.767  0.00  0.00    +0.000 C 
ENDROOT
BRANCH   3  11
ATOM     11  C   UNL     1       1.638   7.915  19.817  0.00  0.00    +0.000 A 
ATOM     12  C   UNL     1       1.201   7.993  21.146  0.00  0.00    +0.000 A 
ATOM     13  C   UNL     1       0.374   9.042  21.567  0.00  0.00    +0.000 A 
ATOM     14  C   UNL     1       0.023  10.050  20.675  0.00  0.00    +0.000 A 
ATOM     15 CL   UNL     1      -0.977  11.347  21.195  0.00  0.00    +0.000 Cl
ATOM     16  C   UNL     1       0.471  10.002  19.360  0.00  0.00    +0.000 A 
ATOM     17  C   UNL     1       1.254   8.925  18.925  0.00  0.00    +0.000 A 
ENDBRANCH   3  11
BRANCH   6  18
ATOM     18  C   UNL     1       5.068   5.001  17.304  0.00  0.00    +0.000 A 
ATOM     19  C   UNL     1       4.747   4.497  16.043  0.00  0.00    +0.000 A 
ATOM     20  C   UNL     1       5.756   3.989  15.214  0.00  0.00    +0.000 A 
ATOM     21  C   UNL     1       7.089   4.050  15.612  0.00  0.00    +0.000 A 
ATOM     22  C   UNL     1       7.413   4.600  16.850  0.00  0.00    +0.000 A 
ATOM     23  C   UNL     1       6.402   5.050  17.705  0.00  0.00    +0.000 A 
ENDBRANCH   6  18
TORSDOF 2
ENDMDL
MODEL 4
REMARK VINA RESULT:      -7.9      0.099      1.424
REMARK  Name = 
REMARK  3 active torsions:
REMARK  status: ('A' for Active; 'I' for Inactive)
REMARK    1  A    between atoms: C_1  and  C_2
REMARK    2  A    between atoms: C_3  and  C_4
REMARK    3  A    between atoms: N_13  and  C_14
REMARK                            x       y       z     vdW  Elec       q    Type
REMARK                         _______ _______ _______ _____ _____    ______ ____
ROOT
ATOM      1  C   UNL     1       3.841   7.965  17.458  0.00  0.00    +0.000 C 
ATOM      2  C   UNL     1       3.436   6.830  18.327  0.00  0.00    +0.000 A 
ATOM      3  C   UNL     1       2.492   6.792  19.366  0.00  0.00    +0.000 A 
ATOM      4  N   UNL     1       2.489   5.462  19.837  0.00  0.00    +0.000 N 
ATOM      5  C   UNL     1       3.401   4.753  19.156  0.00  0.00    +0.000 A 
ATOM      6  N   UNL     1       3.994   5.523  18.222  0.00  0.00    +0.000 N 
ATOM      7  S   UNL     1       3.809   3.084  19.550  0.00  0.00    +0.000 S 
ATOM      8  C   UNL     1       2.376   2.580  20.504  0.00  0.00    +0.000 C 
ATOM      9  C   UNL     1       2.049   3.654  21.518  0.00  0.00    +0.000 C 
ATOM     10  C   UNL     1       1.539   4.892  20.805  0.00  0.00    +0.000 C 
ENDROOT
BRANCH   3  11
ATOM     11  C   UNL     1       1.647   7.950  19.866  0.00  0.00    +0.000 A 
ATOM     12  C   UNL     1       1.193   8.945  18.990  0.00  0.00    +0.000 A 
ATOM     13  C   UNL     1       0.460  10.039  19.468  0.00  0.00    +0.000 A 
ATOM     14  C   UNL     1       0.131  10.118  20.817  0.00  0.00    +0.000 A 
ATOM     15 CL   UNL     1      -0.783  11.451  21.402  0.00  0.00    +0.000 Cl
ATOM     16  C   UNL     1       0.551   9.125  21.695  0.00  0.00    +0.000 A 
ATOM     17  C   UNL     1       1.328   8.058  21.225  0.00  0.00    +0.000 A 
ENDBRANCH   3  11
BRANCH   6  18
ATOM     18  C   UNL     1       5.047   5.064  17.280  0.00  0.00    +0.000 A 
ATOM     19  C   UNL     1       4.708   4.578  16.017  0.00  0.00    +0.000 A 
ATOM     20  C   UNL     1       5.704   4.078  15.168  0.00  0.00    +0.000 A 
ATOM     21  C   UNL     1       7.042   4.131  15.549  0.00  0.00    +0.000 A 
ATOM     22  C   UNL     1       7.385   4.664  16.788  0.00  0.00    +0.000 A 
ATOM     23  C   UNL     1       6.387   5.106  17.664  0.00  0.00    +0.000 A 
ENDBRANCH   6  18
TORSDOF 2
ENDMDL
MODEL 5
REMARK VINA RESULT:      -6.4      4.508      9.166
REMARK  Name = 
REMARK  3 active torsions:
REMARK  status: ('A' for Active; 'I' for Inactive)
REMARK    1  A    between atoms: C_1  and  C_2
REMARK    2  A    between atoms: C_3  and  C_4
REMARK    3  A    between atoms: N_13  and  C_14
REMARK                            x       y       z     vdW  Elec       q    Type
REMARK                         _______ _______ _______ _____ _____    ______ ____
ROOT
ATOM      1  C   UNL     1       1.001  10.348  22.217  0.00  0.00    +0.000 C 
ATOM      2  C   UNL     1       0.116  10.538  21.038  0.00  0.00    +0.000 A 
ATOM      3  C   UNL     1       0.175   9.937  19.770  0.00  0.00    +0.000 A 
ATOM      4  N   UNL     1      -0.917  10.458  19.045  0.00  0.00    +0.000 N 
ATOM      5  C   UNL     1      -1.568  11.347  19.809  0.00  0.00    +0.000 A 
ATOM      6  N   UNL     1      -0.999  11.426  21.028  0.00  0.00    +0.000 N 
ATOM      7  S   UNL     1      -2.904  12.330  19.212  0.00  0.00    +0.000 S 
ATOM      8  C   UNL     1      -3.413  11.402  17.765  0.00  0.00    +0.000 C 
ATOM      9  C   UNL     1      -2.191  11.022  16.960  0.00  0.00    +0.000 C 
ATOM     10  C   UNL     1      -1.374   9.998  17.725  0.00  0.00    +0.000 C 
ENDROOT
BRANCH   3  11
ATOM     11  C   UNL     1       1.204   8.928  19.293  0.00  0.00    +0.000 A 
ATOM     12  C   UNL     1       1.868   9.096  18.070  0.00  0.00    +0.000 A 
ATOM     13  C   UNL     1       2.775   8.132  17.612  0.00  0.00    +0.000 A 
ATOM     14  C   UNL     1       3.065   7.021  18.396  0.00  0.00    +0.000 A 
ATOM     15 CL   UNL     1       4.191   5.848  17.843  0.00  0.00    +0.000 Cl
ATOM     16  C   UNL     1       2.434   6.854  19.625  0.00  0.00    +0.000 A 
ATOM     17  C   UNL     1       1.488   7.791  20.059  0.00  0.00    +0.000 A 
ENDBRANCH   3  11
BRANCH   6  18
ATOM     18  C   UNL     1      -1.464  12.304  22.133  0.00  0.00    +0.000 A 
ATOM     19  C   UNL     1      -2.625  11.997  22.843  0.00  0.00    +0.000 A 
ATOM     20  C   UNL     1      -3.093  12.872  23.832  0.00  0.00    +0.000 A 
ATOM     21  C   UNL     1      -2.366  14.013  24.160  0.00  0.00    +0.000 A 
ATOM     22  C   UNL     1      -1.180  14.292  23.487  0.00  0.00    +0.000 A 
ATOM     23  C   UNL     1      -0.743  13.452  22.456  0.00  0.00    +0.000 A 
ENDBRANCH   6  18
TORSDOF 2
ENDMDL
MODEL 6
REMARK VINA RESULT:      -6.4      8.735     11.780
REMARK  Name = 
REMARK  3 active torsions:
REMARK  status: ('A' for Active; 'I' for Inactive)
REMARK    1  A    between atoms: C_1  and  C_2
REMARK    2  A    between atoms: C_3  and  C_4
REMARK    3  A    between atoms: N_13  and  C_14
REMARK                            x       y       z     vdW  Elec       q    Type
REMARK                         _______ _______ _______ _____ _____    ______ ____
ROOT
ATOM      1  C   UNL     1      -2.032  13.575  20.301  0.00  0.00    +0.000 C 
ATOM      2  C   UNL     1      -3.427  13.120  20.536  0.00  0.00    +0.000 A 
ATOM      3  C   UNL     1      -4.247  12.301  19.742  0.00  0.00    +0.000 A 
ATOM      4  N   UNL     1      -5.462  12.171  20.446  0.00  0.00    +0.000 N 
ATOM      5  C   UNL     1      -5.397  12.897  21.572  0.00  0.00    +0.000 A 
ATOM      6  N   UNL     1      -4.187  13.480  21.687  0.00  0.00    +0.000 N 
ATOM      7  S   UNL     1      -6.772  13.116  22.654  0.00  0.00    +0.000 S 
ATOM      8  C   UNL     1      -7.825  11.744  22.178  0.00  0.00    +0.000 C 
ATOM      9  C   UNL     1      -7.911  11.681  20.669  0.00  0.00    +0.000 C 
ATOM     10  C   UNL     1      -6.569  11.267  20.097  0.00  0.00    +0.000 C 
ENDROOT
BRANCH   3  11
ATOM     11  C   UNL     1      -3.884  11.682  18.404  0.00  0.00    +0.000 A 
ATOM     12  C   UNL     1      -2.710  10.933  18.248  0.00  0.00    +0.000 A 
ATOM     13  C   UNL     1      -2.356  10.412  16.996  0.00  0.00    +0.000 A 
ATOM     14  C   UNL     1      -3.199  10.590  15.905  0.00  0.00    +0.000 A 
ATOM     15 CL   UNL     1      -2.774   9.937  14.374  0.00  0.00    +0.000 Cl
ATOM     16  C   UNL     1      -4.382  11.308  16.050  0.00  0.00    +0.000 A 
ATOM     17  C   UNL     1      -4.710  11.874  17.289  0.00  0.00    +0.000 A 
ENDBRANCH   3  11
BRANCH   6  18
ATOM     18  C   UNL     1      -3.762  14.349  22.814  0.00  0.00    +0.000 A 
ATOM     19  C   UNL     1      -3.278  13.792  23.997  0.00  0.00    +0.000 A 
ATOM     20  C   UNL     1      -2.951  14.620  25.080  0.00  0.00    +0.000 A 
ATOM     21  C   UNL     1      -3.039  16.004  24.956  0.00  0.00    +0.000 A 
ATOM     22  C   UNL     1      -3.473  16.561  23.757  0.00  0.00    +0.000 A 
ATOM     23  C   UNL     1      -3.859  15.735  22.696  0.00  0.00    +0.000 A 
ENDBRANCH   6  18
TORSDOF 2
ENDMDL
MODEL 7
REMARK VINA RESULT:      -6.4      4.475      9.054
REMARK  Name = 
REMARK  3 active torsions:
REMARK  status: ('A' for Active; 'I' for Inactive)
REMARK    1  A    between atoms: C_1  and  C_2
REMARK    2  A    between atoms: C_3  and  C_4
REMARK    3  A    between atoms: N_13  and  C_14
REMARK                            x       y       z     vdW  Elec       q    Type
REMARK                         _______ _______ _______ _____ _____    ______ ____
ROOT
ATOM      1  C   UNL     1       1.112  10.346  22.116  0.00  0.00    +0.000 C 
ATOM      2  C   UNL     1       0.204  10.523  20.953  0.00  0.00    +0.000 A 
ATOM      3  C   UNL     1       0.231   9.898  19.695  0.00  0.00    +0.000 A 
ATOM      4  N   UNL     1      -0.872  10.415  18.983  0.00  0.00    +0.000 N 
ATOM      5  C   UNL     1      -1.499  11.323  19.744  0.00  0.00    +0.000 A 
ATOM      6  N   UNL     1      -0.904  11.420  20.950  0.00  0.00    +0.000 N 
ATOM      7  S   UNL     1      -2.839  12.308  19.158  0.00  0.00    +0.000 S 
ATOM      8  C   UNL     1      -3.386  11.358  17.738  0.00  0.00    +0.000 C 
ATOM      9  C   UNL     1      -2.184  10.952  16.915  0.00  0.00    +0.000 C 
ATOM     10  C   UNL     1      -1.360   9.935  17.681  0.00  0.00    +0.000 C 
ENDROOT
BRANCH   3  11
ATOM     11  C   UNL     1       1.241   8.872  19.214  0.00  0.00    +0.000 A 
ATOM     12  C   UNL     1       1.528   7.730  19.973  0.00  0.00    +0.000 A 
ATOM     13  C   UNL     1       2.502   6.816  19.549  0.00  0.00    +0.000 A 
ATOM     14  C   UNL     1       3.155   7.008  18.337  0.00  0.00    +0.000 A 
ATOM     15 CL   UNL     1       4.336   5.879  17.807  0.00  0.00    +0.000 Cl
ATOM     16  C   UNL     1       2.861   8.123  17.559  0.00  0.00    +0.000 A 
ATOM     17  C   UNL     1       1.926   9.064  18.008  0.00  0.00    +0.000 A 
ENDBRANCH   3  11
BRANCH   6  18
ATOM     18  C   UNL     1      -1.338  12.321  22.048  0.00  0.00    +0.000 A 
ATOM     19  C   UNL     1      -2.454  12.008  22.824  0.00  0.00    +0.000 A 
ATOM     20  C   UNL     1      -2.898  12.903  23.806  0.00  0.00    +0.000 A 
ATOM     21  C   UNL     1      -2.187  14.073  24.062  0.00  0.00    +0.000 A 
ATOM     22  C   UNL     1      -1.043  14.359  23.322  0.00  0.00    +0.000 A 
ATOM     23  C   UNL     1      -0.634  13.498  22.298  0.00  0.00    +0.000 A 
ENDBRANCH   6  18
TORSDOF 2
ENDMDL
MODEL 8
REMARK VINA RESULT:      -6.3      8.814     11.959
REMARK  Name = 
REMARK  3 active torsions:
REMARK  status: ('A' for Active; 'I' for Inactive)
REMARK    1  A    between atoms: C_1  and  C_2
REMARK    2  A    between atoms: C_3  and  C_4
REMARK    3  A    between atoms: N_13  and  C_14
REMARK                            x       y       z     vdW  Elec       q    Type
REMARK                         _______ _______ _______ _____ _____    ______ ____
ROOT
ATOM      1  C   UNL     1      -2.147  13.852  20.512  0.00  0.00    +0.000 C 
ATOM      2  C   UNL     1      -3.514  13.328  20.768  0.00  0.00    +0.000 A 
ATOM      3  C   UNL     1      -4.302  12.467  19.985  0.00  0.00    +0.000 A 
ATOM      4  N   UNL     1      -5.499  12.276  20.707  0.00  0.00    +0.000 N 
ATOM      5  C   UNL     1      -5.454  13.005  21.832  0.00  0.00    +0.000 A 
ATOM      6  N   UNL     1      -4.274  13.649  21.929  0.00  0.00    +0.000 N 
ATOM      7  S   UNL     1      -6.822  13.156  22.934  0.00  0.00    +0.000 S 
ATOM      8  C   UNL     1      -7.811  11.732  22.474  0.00  0.00    +0.000 C 
ATOM      9  C   UNL     1      -7.917  11.664  20.966  0.00  0.00    +0.000 C 
ATOM     10  C   UNL     1      -6.563  11.317  20.375  0.00  0.00    +0.000 C 
ENDROOT
BRANCH   3  11
ATOM     11  C   UNL     1      -3.929  11.867  18.642  0.00  0.00    +0.000 A 
ATOM     12  C   UNL     1      -4.804  11.937  17.550  0.00  0.00    +0.000 A 
ATOM     13  C   UNL     1      -4.474  11.332  16.330  0.00  0.00    +0.000 A 
ATOM     14  C   UNL     1      -3.244  10.700  16.177  0.00  0.00    +0.000 A 
ATOM     15 CL   UNL     1      -2.832   9.974  14.676  0.00  0.00    +0.000 Cl
ATOM     16  C   UNL     1      -2.353  10.646  17.244  0.00  0.00    +0.000 A 
ATOM     17  C   UNL     1      -2.705  11.205  18.479  0.00  0.00    +0.000 A 
ENDBRANCH   3  11
BRANCH   6  18
ATOM     18  C   UNL     1      -3.877  14.540  23.050  0.00  0.00    +0.000 A 
ATOM     19  C   UNL     1      -3.148  14.041  24.129  0.00  0.00    +0.000 A 
ATOM     20  C   UNL     1      -2.845  14.874  25.215  0.00  0.00    +0.000 A 
ATOM     21  C   UNL     1      -3.205  16.219  25.190  0.00  0.00    +0.000 A 
ATOM     22  C   UNL     1      -3.888  16.728  24.089  0.00  0.00    +0.000 A 
ATOM     23  C   UNL     1      -4.246  15.884  23.032  0.00  0.00    +0.000 A 
ENDBRANCH   6  18
TORSDOF 2
ENDMDL
MODEL 9
REMARK VINA RESULT:      -6.3      4.125      6.901
REMARK  Name = 
REMARK  3 active torsions:
REMARK  status: ('A' for Active; 'I' for Inactive)
REMARK    1  A    between atoms: C_1  and  C_2
REMARK    2  A    between atoms: C_3  and  C_4
REMARK    3  A    between atoms: N_13  and  C_14
REMARK                            x       y       z     vdW  Elec       q    Type
REMARK                         _______ _______ _______ _____ _____    ______ ____
ROOT
ATOM      1  C   UNL     1       1.101  10.428  22.132  0.00  0.00    +0.000 C 
ATOM      2  C   UNL     1       0.109  10.666  21.052  0.00  0.00    +0.000 A 
ATOM      3  C   UNL     1      -1.014  11.510  21.040  0.00  0.00    +0.000 A 
ATOM      4  N   UNL     1      -1.589  11.369  19.760  0.00  0.00    +0.000 N 
ATOM      5  C   UNL     1      -0.886  10.468  19.059  0.00  0.00    +0.000 A 
ATOM      6  N   UNL     1       0.160  10.021  19.782  0.00  0.00    +0.000 N 
ATOM      7  S   UNL     1      -1.373   9.900  17.463  0.00  0.00    +0.000 S 
ATOM      8  C   UNL     1      -2.496  11.200  16.947  0.00  0.00    +0.000 C 
ATOM      9  C   UNL     1      -3.445  11.518  18.080  0.00  0.00    +0.000 C 
ATOM     10  C   UNL     1      -2.685  12.183  19.212  0.00  0.00    +0.000 C 
ENDROOT
BRANCH   3  11
ATOM     11  C   UNL     1      -1.495  12.394  22.176  0.00  0.00    +0.000 A 
ATOM     12  C   UNL     1      -2.684  12.110  22.860  0.00  0.00    +0.000 A 
ATOM     13  C   UNL     1      -3.149  12.962  23.871  0.00  0.00    +0.000 A 
ATOM     14  C   UNL     1      -2.401  14.074  24.241  0.00  0.00    +0.000 A 
ATOM     15 CL   UNL     1      -2.961  15.109  25.492  0.00  0.00    +0.000 Cl
ATOM     16  C   UNL     1      -1.205  14.355  23.590  0.00  0.00    +0.000 A 
ATOM     17  C   UNL     1      -0.767  13.533  22.544  0.00  0.00    +0.000 A 
ENDBRANCH   3  11
BRANCH   6  18
ATOM     18  C   UNL     1       1.156   9.022  19.317  0.00  0.00    +0.000 A 
ATOM     19  C   UNL     1       1.826   9.198  18.106  0.00  0.00    +0.000 A 
ATOM     20  C   UNL     1       2.707   8.212  17.643  0.00  0.00    +0.000 A 
ATOM     21  C   UNL     1       2.973   7.088  18.420  0.00  0.00    +0.000 A 
ATOM     22  C   UNL     1       2.343   6.938  19.652  0.00  0.00    +0.000 A 
ATOM     23  C   UNL     1       1.416   7.890  20.088  0.00  0.00    +0.000 A 
ENDBRANCH   6  18
TORSDOF 2
ENDMDL
