MODEL 1
REMARK VINA RESULT:      -7.7      0.000      0.000
REMARK  Name = 
REMARK  5 active torsions:
REMARK  status: ('A' for Active; 'I' for Inactive)
REMARK    1  A    between atoms: N_3  and  C_4
REMARK    2  A    between atoms: C_17  and  C_18
REMARK    3  A    between atoms: C_22  and  O_23
REMARK    4  A    between atoms: O_23  and  C_24
REMARK    5  A    between atoms: C_27  and  C_28
REMARK                            x       y       z     vdW  Elec       q    Type
REMARK                         _______ _______ _______ _____ _____    ______ ____
ROOT
ATOM      1  O   UNL     1       1.787  12.161  20.431  0.00  0.00    +0.000 OA
ATOM      2  C   UNL     1       0.643  11.869  20.103  0.00  0.00    +0.000 C 
ATOM      3  N   UNL     1       0.310  10.695  19.450  0.00  0.00    +0.000 N 
ATOM      4  N   UNL     1      -0.435  12.722  20.364  0.00  0.00    +0.000 N 
ATOM      5  C   UNL     1      -1.860  12.483  20.138  0.00  0.00    +0.000 C 
ATOM      6  C   UNL     1      -2.634  12.478  21.458  0.00  0.00    +0.000 C 
ATOM      7  C   UNL     1      -2.356  13.747  22.284  0.00  0.00    +0.000 C 
ATOM      8  C   UNL     1      -0.850  14.021  22.406  0.00  0.00    +0.000 C 
ATOM      9  C   UNL     1      -0.166  13.990  21.043  0.00  0.00    +0.000 C 
ATOM     10  C   UNL     1      -2.999  13.750  23.709  0.00  0.00    +0.000 C 
ATOM     11  C   UNL     1      -4.258  14.431  23.118  0.00  0.00    +0.000 C 
ATOM     12  C   UNL     1      -3.319  14.937  21.971  0.00  0.00    +0.000 C 
ATOM     13  H   UNL     1      -0.604  10.640  19.043  0.00  0.00    +0.000 HD
ENDROOT
BRANCH   3  14
ATOM     14  C   UNL     1       1.162   9.603  19.148  0.00  0.00    +0.000 A 
ATOM     15  C   UNL     1       1.444   8.548  20.011  0.00  0.00    +0.000 A 
ATOM     16  C   UNL     1       2.267   7.503  19.584  0.00  0.00    +0.000 A 
ATOM     17  C   UNL     1       2.791   7.549  18.301  0.00  0.00    +0.000 A 
ATOM     18  N   UNL     1       2.554   8.552  17.438  0.00  0.00    +0.000 NA
ATOM     19  C   UNL     1       1.748   9.549  17.882  0.00  0.00    +0.000 A 
ENDBRANCH   3  14
BRANCH  11  20
ATOM     20  C   UNL     1      -5.542  13.536  22.777  0.00  0.00    +0.000 A 
ATOM     21  C   UNL     1      -6.493  13.143  23.741  0.00  0.00    +0.000 A 
ATOM     22  C   UNL     1      -7.651  12.430  23.403  0.00  0.00    +0.000 A 
ATOM     23  C   UNL     1      -7.917  12.125  22.071  0.00  0.00    +0.000 A 
ATOM     24  C   UNL     1      -7.018  12.517  21.087  0.00  0.00    +0.000 A 
ATOM     25  C   UNL     1      -5.824  13.157  21.452  0.00  0.00    +0.000 A 
BRANCH  24  26
ATOM     26  O   UNL     1      -7.345  12.214  19.783  0.00  0.00    +0.000 OA
BRANCH  26  27
ATOM     27  C   UNL     1      -6.306  11.900  18.913  0.00  0.00    +0.000 A 
ATOM     28  C   UNL     1      -6.244  12.606  17.724  0.00  0.00    +0.000 A 
ATOM     29  C   UNL     1      -5.272  12.241  16.791  0.00  0.00    +0.000 A 
ATOM     30  C   UNL     1      -4.391  11.193  17.079  0.00  0.00    +0.000 A 
ATOM     31  C   UNL     1      -4.504  10.583  18.319  0.00  0.00    +0.000 A 
ATOM     32  N   UNL     1      -5.426  10.926  19.243  0.00  0.00    +0.000 NA
BRANCH  30  33
ATOM     33  C   UNL     1      -3.349  10.706  16.122  0.00  0.00    +0.000 C 
ATOM     34  F   UNL     1      -3.424   9.370  15.872  0.00  0.00    +0.000 F 
ATOM     35  F   UNL     1      -3.424  11.322  14.911  0.00  0.00    +0.000 F 
ATOM     36  F   UNL     1      -2.083  10.929  16.577  0.00  0.00    +0.000 F 
ENDBRANCH  30  33
ENDBRANCH  26  27
ENDBRANCH  24  26
ENDBRANCH  11  20
TORSDOF 5
ENDMDL
MODEL 2
REMARK VINA RESULT:      -7.5      5.924      8.963
REMARK  Name = 
REMARK  5 active torsions:
REMARK  status: ('A' for Active; 'I' for Inactive)
REMARK    1  A    between atoms: N_3  and  C_4
REMARK    2  A    between atoms: C_17  and  C_18
REMARK    3  A    between atoms: C_22  and  O_23
REMARK    4  A    between atoms: O_23  and  C_24
REMARK    5  A    between atoms: C_27  and  C_28
REMARK                            x       y       z     vdW  Elec       q    Type
REMARK                         _______ _______ _______ _____ _____    ______ ____
ROOT
ATOM      1  O   UNL     1       3.744  17.342  18.815  0.00  0.00    +0.000 OA
ATOM      2  C   UNL     1       4.059  16.160  18.743  0.00  0.00    +0.000 C 
ATOM      3  N   UNL     1       5.352  15.699  18.919  0.00  0.00    +0.000 N 
ATOM      4  N   UNL     1       3.114  15.166  18.463  0.00  0.00    +0.000 N 
ATOM      5  C   UNL     1       3.298  13.715  18.445  0.00  0.00    +0.000 C 
ATOM      6  C   UNL     1       2.448  13.038  19.522  0.00  0.00    +0.000 C 
ATOM      7  C   UNL     1       0.971  13.463  19.429  0.00  0.00    +0.000 C 
ATOM      8  C   UNL     1       0.828  14.989  19.341  0.00  0.00    +0.000 C 
ATOM      9  C   UNL     1       1.724  15.571  18.252  0.00  0.00    +0.000 C 
ATOM     10  C   UNL     1       0.065  12.925  20.584  0.00  0.00    +0.000 C 
ATOM     11  C   UNL     1      -0.257  11.678  19.724  0.00  0.00    +0.000 C 
ATOM     12  C   UNL     1       0.106  12.566  18.486  0.00  0.00    +0.000 C 
ATOM     13  H   UNL     1       5.545  14.757  18.638  0.00  0.00    +0.000 HD
ENDROOT
BRANCH   3  14
ATOM     14  C   UNL     1       6.490  16.449  19.311  0.00  0.00    +0.000 A 
ATOM     15  C   UNL     1       7.608  16.676  18.515  0.00  0.00    +0.000 A 
ATOM     16  C   UNL     1       8.652  17.470  18.995  0.00  0.00    +0.000 A 
ATOM     17  C   UNL     1       8.547  18.011  20.267  0.00  0.00    +0.000 A 
ATOM     18  N   UNL     1       7.491  17.811  21.074  0.00  0.00    +0.000 NA
ATOM     19  C   UNL     1       6.493  17.038  20.576  0.00  0.00    +0.000 A 
ENDBRANCH   3  14
BRANCH  11  20
ATOM     20  C   UNL     1       0.535  10.313  20.001  0.00  0.00    +0.000 A 
ATOM     21  C   UNL     1       0.458   9.604  21.218  0.00  0.00    +0.000 A 
ATOM     22  C   UNL     1       1.095   8.369  21.406  0.00  0.00    +0.000 A 
ATOM     23  C   UNL     1       1.797   7.781  20.358  0.00  0.00    +0.000 A 
ATOM     24  C   UNL     1       1.875   8.435  19.134  0.00  0.00    +0.000 A 
ATOM     25  C   UNL     1       1.302   9.708  18.990  0.00  0.00    +0.000 A 
BRANCH  24  26
ATOM     26  O   UNL     1       2.558   7.794  18.123  0.00  0.00    +0.000 OA
BRANCH  26  27
ATOM     27  C   UNL     1       2.726   6.418  18.230  0.00  0.00    +0.000 A 
ATOM     28  C   UNL     1       1.651   5.622  17.874  0.00  0.00    +0.000 A 
ATOM     29  C   UNL     1       1.760   4.244  18.067  0.00  0.00    +0.000 A 
ATOM     30  C   UNL     1       2.936   3.707  18.599  0.00  0.00    +0.000 A 
ATOM     31  C   UNL     1       3.973   4.585  18.876  0.00  0.00    +0.000 A 
ATOM     32  N   UNL     1       3.898   5.918  18.686  0.00  0.00    +0.000 NA
BRANCH  30  33
ATOM     33  C   UNL     1       3.124   2.249  18.881  0.00  0.00    +0.000 C 
ATOM     34  F   UNL     1       3.949   2.002  19.935  0.00  0.00    +0.000 F 
ATOM     35  F   UNL     1       1.952   1.617  19.162  0.00  0.00    +0.000 F 
ATOM     36  F   UNL     1       3.664   1.582  17.821  0.00  0.00    +0.000 F 
ENDBRANCH  30  33
ENDBRANCH  26  27
ENDBRANCH  24  26
ENDBRANCH  11  20
TORSDOF 5
ENDMDL
MODEL 3
REMARK VINA RESULT:      -7.5      5.570      8.231
REMARK  Name = 
REMARK  5 active torsions:
REMARK  status: ('A' for Active; 'I' for Inactive)
REMARK    1  A    between atoms: N_3  and  C_4
REMARK    2  A    between atoms: C_17  and  C_18
REMARK    3  A    between atoms: C_22  and  O_23
REMARK    4  A    between atoms: O_23  and  C_24
REMARK    5  A    between atoms: C_27  and  C_28
REMARK                            x       y       z     vdW  Elec       q    Type
REMARK                         _______ _______ _______ _____ _____    ______ ____
ROOT
ATOM      1  O   UNL     1       6.215  16.824  19.441  0.00  0.00    +0.000 OA
ATOM      2  C   UNL     1       5.769  15.899  18.773  0.00  0.00    +0.000 C 
ATOM      3  N   UNL     1       6.562  15.027  18.047  0.00  0.00    +0.000 N 
ATOM      4  N   UNL     1       4.395  15.653  18.687  0.00  0.00    +0.000 N 
ATOM      5  C   UNL     1       3.708  14.541  18.028  0.00  0.00    +0.000 C 
ATOM      6  C   UNL     1       2.944  13.687  19.041  0.00  0.00    +0.000 C 
ATOM      7  C   UNL     1       2.009  14.544  19.915  0.00  0.00    +0.000 C 
ATOM      8  C   UNL     1       2.742  15.760  20.499  0.00  0.00    +0.000 C 
ATOM      9  C   UNL     1       3.485  16.537  19.417  0.00  0.00    +0.000 C 
ATOM     10  C   UNL     1       1.300  13.764  21.068  0.00  0.00    +0.000 C 
ATOM     11  C   UNL     1       0.114  13.471  20.116  0.00  0.00    +0.000 C 
ATOM     12  C   UNL     1       0.577  14.738  19.318  0.00  0.00    +0.000 C 
ATOM     13  H   UNL     1       6.104  14.442  17.375  0.00  0.00    +0.000 HD
ENDROOT
BRANCH   3  14
ATOM     14  C   UNL     1       7.979  14.964  18.023  0.00  0.00    +0.000 A 
ATOM     15  C   UNL     1       8.821  16.043  17.775  0.00  0.00    +0.000 A 
ATOM     16  C   UNL     1      10.206  15.868  17.822  0.00  0.00    +0.000 A 
ATOM     17  C   UNL     1      10.709  14.608  18.111  0.00  0.00    +0.000 A 
ATOM     18  N   UNL     1       9.933  13.535  18.347  0.00  0.00    +0.000 NA
ATOM     19  C   UNL     1       8.593  13.741  18.298  0.00  0.00    +0.000 A 
ENDBRANCH   3  14
BRANCH  11  20
ATOM     20  C   UNL     1       0.029  12.046  19.391  0.00  0.00    +0.000 A 
ATOM     21  C   UNL     1      -1.135  11.566  18.755  0.00  0.00    +0.000 A 
ATOM     22  C   UNL     1      -1.160  10.351  18.057  0.00  0.00    +0.000 A 
ATOM     23  C   UNL     1       0.002   9.594  17.935  0.00  0.00    +0.000 A 
ATOM     24  C   UNL     1       1.176  10.044  18.524  0.00  0.00    +0.000 A 
ATOM     25  C   UNL     1       1.163  11.220  19.289  0.00  0.00    +0.000 A 
BRANCH  24  26
ATOM     26  O   UNL     1       2.303   9.270  18.347  0.00  0.00    +0.000 OA
BRANCH  26  27
ATOM     27  C   UNL     1       2.256   7.952  18.789  0.00  0.00    +0.000 A 
ATOM     28  C   UNL     1       2.573   6.967  17.869  0.00  0.00    +0.000 A 
ATOM     29  C   UNL     1       2.437   5.634  18.258  0.00  0.00    +0.000 A 
ATOM     30  C   UNL     1       1.998   5.329  19.551  0.00  0.00    +0.000 A 
ATOM     31  C   UNL     1       1.755   6.388  20.412  0.00  0.00    +0.000 A 
ATOM     32  N   UNL     1       1.892   7.684  20.065  0.00  0.00    +0.000 NA
BRANCH  30  33
ATOM     33  C   UNL     1       1.781   3.931  20.039  0.00  0.00    +0.000 C 
ATOM     34  F   UNL     1       0.971   3.857  21.131  0.00  0.00    +0.000 F 
ATOM     35  F   UNL     1       1.216   3.130  19.095  0.00  0.00    +0.000 F 
ATOM     36  F   UNL     1       2.946   3.321  20.398  0.00  0.00    +0.000 F 
ENDBRANCH  30  33
ENDBRANCH  26  27
ENDBRANCH  24  26
ENDBRANCH  11  20
TORSDOF 5
ENDMDL
MODEL 4
REMARK VINA RESULT:      -7.3      5.755      8.676
REMARK  Name = 
REMARK  5 active torsions:
REMARK  status: ('A' for Active; 'I' for Inactive)
REMARK    1  A    between atoms: N_3  and  C_4
REMARK    2  A    between atoms: C_17  and  C_18
REMARK    3  A    between atoms: C_22  and  O_23
REMARK    4  A    between atoms: O_23  and  C_24
REMARK    5  A    between atoms: C_27  and  C_28
REMARK                            x       y       z     vdW  Elec       q    Type
REMARK                         _______ _______ _______ _____ _____    ______ ____
ROOT
ATOM      1  O   UNL     1       3.319  16.715  18.307  0.00  0.00    +0.000 OA
ATOM      2  C   UNL     1       3.577  15.519  18.250  0.00  0.00    +0.000 C 
ATOM      3  N   UNL     1       4.865  15.014  18.206  0.00  0.00    +0.000 N 
ATOM      4  N   UNL     1       2.567  14.552  18.219  0.00  0.00    +0.000 N 
ATOM      5  C   UNL     1       2.699  13.095  18.258  0.00  0.00    +0.000 C 
ATOM      6  C   UNL     1       2.052  12.516  19.517  0.00  0.00    +0.000 C 
ATOM      7  C   UNL     1       0.597  12.997  19.680  0.00  0.00    +0.000 C 
ATOM      8  C   UNL     1       0.488  14.521  19.525  0.00  0.00    +0.000 C 
ATOM      9  C   UNL     1       1.174  15.003  18.251  0.00  0.00    +0.000 C 
ATOM     10  C   UNL     1      -0.085  12.564  21.017  0.00  0.00    +0.000 C 
ATOM     11  C   UNL     1      -0.605  11.285  20.315  0.00  0.00    +0.000 C 
ATOM     12  C   UNL     1      -0.459  12.086  18.976  0.00  0.00    +0.000 C 
ATOM     13  H   UNL     1       4.972  14.051  17.953  0.00  0.00    +0.000 HD
ENDROOT
BRANCH   3  14
ATOM     14  C   UNL     1       6.080  15.736  18.326  0.00  0.00    +0.000 A 
ATOM     15  C   UNL     1       6.218  16.963  18.969  0.00  0.00    +0.000 A 
ATOM     16  C   UNL     1       7.478  17.560  19.062  0.00  0.00    +0.000 A 
ATOM     17  C   UNL     1       8.566  16.909  18.500  0.00  0.00    +0.000 A 
ATOM     18  N   UNL     1       8.478  15.729  17.861  0.00  0.00    +0.000 NA
ATOM     19  C   UNL     1       7.241  15.176  17.793  0.00  0.00    +0.000 A 
ENDBRANCH   3  14
BRANCH  11  20
ATOM     20  C   UNL     1       0.183   9.906  20.522  0.00  0.00    +0.000 A 
ATOM     21  C   UNL     1      -0.033   9.044  21.617  0.00  0.00    +0.000 A 
ATOM     22  C   UNL     1       0.610   7.804  21.732  0.00  0.00    +0.000 A 
ATOM     23  C   UNL     1       1.461   7.365  20.723  0.00  0.00    +0.000 A 
ATOM     24  C   UNL     1       1.681   8.172  19.614  0.00  0.00    +0.000 A 
ATOM     25  C   UNL     1       1.095   9.445  19.555  0.00  0.00    +0.000 A 
BRANCH  24  26
ATOM     26  O   UNL     1       2.511   7.675  18.631  0.00  0.00    +0.000 OA
BRANCH  26  27
ATOM     27  C   UNL     1       2.735   6.303  18.609  0.00  0.00    +0.000 A 
ATOM     28  C   UNL     1       1.848   5.531  17.877  0.00  0.00    +0.000 A 
ATOM     29  C   UNL     1       1.993   4.144  17.921  0.00  0.00    +0.000 A 
ATOM     30  C   UNL     1       3.017   3.575  18.684  0.00  0.00    +0.000 A 
ATOM     31  C   UNL     1       3.883   4.437  19.340  0.00  0.00    +0.000 A 
ATOM     32  N   UNL     1       3.773   5.781  19.303  0.00  0.00    +0.000 NA
BRANCH  30  33
ATOM     33  C   UNL     1       3.219   2.098  18.824  0.00  0.00    +0.000 C 
ATOM     34  F   UNL     1       4.192   1.765  19.716  0.00  0.00    +0.000 F 
ATOM     35  F   UNL     1       2.093   1.455  19.236  0.00  0.00    +0.000 F 
ATOM     36  F   UNL     1       3.577   1.511  17.647  0.00  0.00    +0.000 F 
ENDBRANCH  30  33
ENDBRANCH  26  27
ENDBRANCH  24  26
ENDBRANCH  11  20
TORSDOF 5
ENDMDL
MODEL 5
REMARK VINA RESULT:      -7.3      5.398      7.700
REMARK  Name = 
REMARK  5 active torsions:
REMARK  status: ('A' for Active; 'I' for Inactive)
REMARK    1  A    between atoms: N_3  and  C_4
REMARK    2  A    between atoms: C_17  and  C_18
REMARK    3  A    between atoms: C_22  and  O_23
REMARK    4  A    between atoms: O_23  and  C_24
REMARK    5  A    between atoms: C_27  and  C_28
REMARK                            x       y       z     vdW  Elec       q    Type
REMARK                         _______ _______ _______ _____ _____    ______ ____
ROOT
ATOM      1  O   UNL     1       7.681  15.909  18.651  0.00  0.00    +0.000 OA
ATOM      2  C   UNL     1       6.896  15.071  18.223  0.00  0.00    +0.000 C 
ATOM      3  N   UNL     1       7.278  13.815  17.786  0.00  0.00    +0.000 N 
ATOM      4  N   UNL     1       5.523  15.330  18.137  0.00  0.00    +0.000 N 
ATOM      5  C   UNL     1       4.446  14.416  17.754  0.00  0.00    +0.000 C 
ATOM      6  C   UNL     1       3.476  14.191  18.915  0.00  0.00    +0.000 C 
ATOM      7  C   UNL     1       2.963  15.524  19.492  0.00  0.00    +0.000 C 
ATOM      8  C   UNL     1       4.118  16.495  19.778  0.00  0.00    +0.000 C 
ATOM      9  C   UNL     1       5.036  16.640  18.570  0.00  0.00    +0.000 C 
ATOM     10  C   UNL     1       2.078  15.381  20.772  0.00  0.00    +0.000 C 
ATOM     11  C   UNL     1       0.821  15.306  19.871  0.00  0.00    +0.000 C 
ATOM     12  C   UNL     1       1.672  16.066  18.797  0.00  0.00    +0.000 C 
ATOM     13  H   UNL     1       6.605  13.285  17.266  0.00  0.00    +0.000 HD
ENDROOT
BRANCH   3  14
ATOM     14  C   UNL     1       8.571  13.236  17.848  0.00  0.00    +0.000 A 
ATOM     15  C   UNL     1       8.835  11.903  18.149  0.00  0.00    +0.000 A 
ATOM     16  C   UNL     1      10.151  11.436  18.138  0.00  0.00    +0.000 A 
ATOM     17  C   UNL     1      11.170  12.324  17.829  0.00  0.00    +0.000 A 
ATOM     18  N   UNL     1      10.964  13.621  17.541  0.00  0.00    +0.000 NA
ATOM     19  C   UNL     1       9.673  14.041  17.558  0.00  0.00    +0.000 A 
ENDBRANCH   3  14
BRANCH  11  20
ATOM     20  C   UNL     1       0.185  13.875  19.535  0.00  0.00    +0.000 A 
ATOM     21  C   UNL     1      -0.587  13.619  18.383  0.00  0.00    +0.000 A 
ATOM     22  C   UNL     1      -1.063  12.338  18.070  0.00  0.00    +0.000 A 
ATOM     23  C   UNL     1      -0.740  11.257  18.885  0.00  0.00    +0.000 A 
ATOM     24  C   UNL     1       0.041  11.462  20.016  0.00  0.00    +0.000 A 
ATOM     25  C   UNL     1       0.438  12.763  20.359  0.00  0.00    +0.000 A 
BRANCH  24  26
ATOM     26  O   UNL     1       0.354  10.352  20.771  0.00  0.00    +0.000 OA
BRANCH  26  27
ATOM     27  C   UNL     1       1.074   9.334  20.154  0.00  0.00    +0.000 A 
ATOM     28  C   UNL     1       1.532   9.575  18.870  0.00  0.00    +0.000 A 
ATOM     29  C   UNL     1       2.169   8.534  18.192  0.00  0.00    +0.000 A 
ATOM     30  C   UNL     1       2.334   7.295  18.818  0.00  0.00    +0.000 A 
ATOM     31  C   UNL     1       1.884   7.172  20.124  0.00  0.00    +0.000 A 
ATOM     32  N   UNL     1       1.277   8.166  20.806  0.00  0.00    +0.000 NA
BRANCH  30  33
ATOM     33  C   UNL     1       2.963   6.112  18.153  0.00  0.00    +0.000 C 
ATOM     34  F   UNL     1       3.684   5.330  19.003  0.00  0.00    +0.000 F 
ATOM     35  F   UNL     1       2.047   5.292  17.571  0.00  0.00    +0.000 F 
ATOM     36  F   UNL     1       3.825   6.474  17.160  0.00  0.00    +0.000 F 
ENDBRANCH  30  33
ENDBRANCH  26  27
ENDBRANCH  24  26
ENDBRANCH  11  20
TORSDOF 5
ENDMDL
MODEL 6
REMARK VINA RESULT:      -7.3      5.342      7.762
REMARK  Name = 
REMARK  5 active torsions:
REMARK  status: ('A' for Active; 'I' for Inactive)
REMARK    1  A    between atoms: N_3  and  C_4
REMARK    2  A    between atoms: C_17  and  C_18
REMARK    3  A    between atoms: C_22  and  O_23
REMARK    4  A    between atoms: O_23  and  C_24
REMARK    5  A    between atoms: C_27  and  C_28
REMARK                            x       y       z     vdW  Elec       q    Type
REMARK                         _______ _______ _______ _____ _____    ______ ____
ROOT
ATOM      1  O   UNL     1       6.535  16.436  18.599  0.00  0.00    +0.000 OA
ATOM      2  C   UNL     1       5.965  15.416  18.228  0.00  0.00    +0.000 C 
ATOM      3  N   UNL     1       6.630  14.276  17.811  0.00  0.00    +0.000 N 
ATOM      4  N   UNL     1       4.569  15.328  18.192  0.00  0.00    +0.000 N 
ATOM      5  C   UNL     1       3.738  14.165  17.882  0.00  0.00    +0.000 C 
ATOM      6  C   UNL     1       2.892  13.753  19.088  0.00  0.00    +0.000 C 
ATOM      7  C   UNL     1       2.087  14.941  19.648  0.00  0.00    +0.000 C 
ATOM      8  C   UNL     1       2.977  16.175  19.858  0.00  0.00    +0.000 C 
ATOM      9  C   UNL     1       3.790  16.495  18.608  0.00  0.00    +0.000 C 
ATOM     10  C   UNL     1       1.308  14.635  20.968  0.00  0.00    +0.000 C 
ATOM     11  C   UNL     1       0.078  14.221  20.123  0.00  0.00    +0.000 C 
ATOM     12  C   UNL     1       0.680  15.124  18.993  0.00  0.00    +0.000 C 
ATOM     13  H   UNL     1       6.090  13.579  17.336  0.00  0.00    +0.000 HD
ENDROOT
BRANCH   3  14
ATOM     14  C   UNL     1       8.027  14.033  17.835  0.00  0.00    +0.000 A 
ATOM     15  C   UNL     1       8.619  12.776  17.772  0.00  0.00    +0.000 A 
ATOM     16  C   UNL     1      10.012  12.664  17.760  0.00  0.00    +0.000 A 
ATOM     17  C   UNL     1      10.773  13.822  17.818  0.00  0.00    +0.000 A 
ATOM     18  N   UNL     1      10.245  15.056  17.890  0.00  0.00    +0.000 NA
ATOM     19  C   UNL     1       8.889  15.129  17.896  0.00  0.00    +0.000 A 
ENDBRANCH   3  14
BRANCH  11  20
ATOM     20  C   UNL     1      -0.197  12.666  19.855  0.00  0.00    +0.000 A 
ATOM     21  C   UNL     1      -1.026  12.192  18.817  0.00  0.00    +0.000 A 
ATOM     22  C   UNL     1      -1.186  10.824  18.552  0.00  0.00    +0.000 A 
ATOM     23  C   UNL     1      -0.479   9.884  19.295  0.00  0.00    +0.000 A 
ATOM     24  C   UNL     1       0.369  10.311  20.310  0.00  0.00    +0.000 A 
ATOM     25  C   UNL     1       0.453  11.678  20.616  0.00  0.00    +0.000 A 
BRANCH  24  26
ATOM     26  O   UNL     1       1.066   9.339  20.994  0.00  0.00    +0.000 OA
BRANCH  26  27
ATOM     27  C   UNL     1       1.580   8.275  20.261  0.00  0.00    +0.000 A 
ATOM     28  C   UNL     1       2.012   8.548  18.974  0.00  0.00    +0.000 A 
ATOM     29  C   UNL     1       2.438   7.480  18.183  0.00  0.00    +0.000 A 
ATOM     30  C   UNL     1       2.426   6.181  18.702  0.00  0.00    +0.000 A 
ATOM     31  C   UNL     1       2.022   6.021  20.019  0.00  0.00    +0.000 A 
ATOM     32  N   UNL     1       1.618   7.038  20.809  0.00  0.00    +0.000 NA
BRANCH  30  33
ATOM     33  C   UNL     1       2.822   4.973  17.912  0.00  0.00    +0.000 C 
ATOM     34  F   UNL     1       1.789   4.409  17.228  0.00  0.00    +0.000 F 
ATOM     35  F   UNL     1       3.783   5.246  16.989  0.00  0.00    +0.000 F 
ATOM     36  F   UNL     1       3.330   3.983  18.700  0.00  0.00    +0.000 F 
ENDBRANCH  30  33
ENDBRANCH  26  27
ENDBRANCH  24  26
ENDBRANCH  11  20
TORSDOF 5
ENDMDL
MODEL 7
REMARK VINA RESULT:      -7.2      3.157      6.139
REMARK  Name = 
REMARK  5 active torsions:
REMARK  status: ('A' for Active; 'I' for Inactive)
REMARK    1  A    between atoms: N_3  and  C_4
REMARK    2  A    between atoms: C_17  and  C_18
REMARK    3  A    between atoms: C_22  and  O_23
REMARK    4  A    between atoms: O_23  and  C_24
REMARK    5  A    between atoms: C_27  and  C_28
REMARK                            x       y       z     vdW  Elec       q    Type
REMARK                         _______ _______ _______ _____ _____    ______ ____
ROOT
ATOM      1  O   UNL     1      -6.714  11.028  18.351  0.00  0.00    +0.000 OA
ATOM      2  C   UNL     1      -5.815  11.371  19.110  0.00  0.00    +0.000 C 
ATOM      3  N   UNL     1      -4.470  11.273  18.799  0.00  0.00    +0.000 N 
ATOM      4  N   UNL     1      -6.087  11.892  20.380  0.00  0.00    +0.000 N 
ATOM      5  C   UNL     1      -5.149  12.442  21.359  0.00  0.00    +0.000 C 
ATOM      6  C   UNL     1      -5.426  13.924  21.616  0.00  0.00    +0.000 C 
ATOM      7  C   UNL     1      -6.901  14.170  21.985  0.00  0.00    +0.000 C 
ATOM      8  C   UNL     1      -7.852  13.485  20.993  0.00  0.00    +0.000 C 
ATOM      9  C   UNL     1      -7.486  12.019  20.792  0.00  0.00    +0.000 C 
ATOM     10  C   UNL     1      -7.294  15.677  22.123  0.00  0.00    +0.000 C 
ATOM     11  C   UNL     1      -6.945  15.610  23.630  0.00  0.00    +0.000 C 
ATOM     12  C   UNL     1      -7.201  14.068  23.515  0.00  0.00    +0.000 C 
ATOM     13  H   UNL     1      -3.817  11.380  19.550  0.00  0.00    +0.000 HD
ENDROOT
BRANCH   3  14
ATOM     14  C   UNL     1      -3.897  10.885  17.561  0.00  0.00    +0.000 A 
ATOM     15  C   UNL     1      -2.979   9.852  17.397  0.00  0.00    +0.000 A 
ATOM     16  C   UNL     1      -2.516   9.531  16.119  0.00  0.00    +0.000 A 
ATOM     17  C   UNL     1      -2.983  10.263  15.038  0.00  0.00    +0.000 A 
ATOM     18  N   UNL     1      -3.861  11.275  15.150  0.00  0.00    +0.000 NA
ATOM     19  C   UNL     1      -4.294  11.558  16.405  0.00  0.00    +0.000 A 
ENDBRANCH   3  14
BRANCH  11  20
ATOM     20  C   UNL     1      -5.525  16.159  24.128  0.00  0.00    +0.000 A 
ATOM     21  C   UNL     1      -5.306  17.492  24.533  0.00  0.00    +0.000 A 
ATOM     22  C   UNL     1      -4.075  17.927  25.042  0.00  0.00    +0.000 A 
ATOM     23  C   UNL     1      -3.030  17.022  25.204  0.00  0.00    +0.000 A 
ATOM     24  C   UNL     1      -3.212  15.694  24.841  0.00  0.00    +0.000 A 
ATOM     25  C   UNL     1      -4.423  15.294  24.256  0.00  0.00    +0.000 A 
BRANCH  24  26
ATOM     26  O   UNL     1      -2.154  14.836  25.050  0.00  0.00    +0.000 OA
BRANCH  26  27
ATOM     27  C   UNL     1      -1.650  14.153  23.949  0.00  0.00    +0.000 A 
ATOM     28  C   UNL     1      -2.191  12.909  23.676  0.00  0.00    +0.000 A 
ATOM     29  C   UNL     1      -1.633  12.162  22.637  0.00  0.00    +0.000 A 
ATOM     30  C   UNL     1      -0.562  12.683  21.903  0.00  0.00    +0.000 A 
ATOM     31  C   UNL     1      -0.127  13.959  22.223  0.00  0.00    +0.000 A 
ATOM     32  N   UNL     1      -0.657  14.707  23.213  0.00  0.00    +0.000 NA
BRANCH  30  33
ATOM     33  C   UNL     1       0.125  11.935  20.804  0.00  0.00    +0.000 C 
ATOM     34  F   UNL     1       0.995  12.700  20.088  0.00  0.00    +0.000 F 
ATOM     35  F   UNL     1       0.844  10.875  21.265  0.00  0.00    +0.000 F 
ATOM     36  F   UNL     1      -0.754  11.424  19.896  0.00  0.00    +0.000 F 
ENDBRANCH  30  33
ENDBRANCH  26  27
ENDBRANCH  24  26
ENDBRANCH  11  20
TORSDOF 5
ENDMDL
MODEL 8
REMARK VINA RESULT:      -7.2      6.123     10.776
REMARK  Name = 
REMARK  5 active torsions:
REMARK  status: ('A' for Active; 'I' for Inactive)
REMARK    1  A    between atoms: N_3  and  C_4
REMARK    2  A    between atoms: C_17  and  C_18
REMARK    3  A    between atoms: C_22  and  O_23
REMARK    4  A    between atoms: O_23  and  C_24
REMARK    5  A    between atoms: C_27  and  C_28
REMARK                            x       y       z     vdW  Elec       q    Type
REMARK                         _______ _______ _______ _____ _____    ______ ____
ROOT
ATOM      1  O   UNL     1       0.500  11.679  20.862  0.00  0.00    +0.000 OA
ATOM      2  C   UNL     1       0.857  11.053  19.871  0.00  0.00    +0.000 C 
ATOM      3  N   UNL     1       1.436  11.642  18.760  0.00  0.00    +0.000 N 
ATOM      4  N   UNL     1       0.696   9.666  19.783  0.00  0.00    +0.000 N 
ATOM      5  C   UNL     1       1.158   8.761  18.730  0.00  0.00    +0.000 C 
ATOM      6  C   UNL     1       2.181   7.761  19.271  0.00  0.00    +0.000 C 
ATOM      7  C   UNL     1       1.651   7.024  20.516  0.00  0.00    +0.000 C 
ATOM      8  C   UNL     1       1.078   8.004  21.549  0.00  0.00    +0.000 C 
ATOM      9  C   UNL     1       0.081   8.966  20.912  0.00  0.00    +0.000 C 
ATOM     10  C   UNL     1       2.693   6.090  21.211  0.00  0.00    +0.000 C 
ATOM     11  C   UNL     1       2.203   4.917  20.327  0.00  0.00    +0.000 C 
ATOM     12  C   UNL     1       0.861   5.714  20.193  0.00  0.00    +0.000 C 
ATOM     13  H   UNL     1       1.501  11.087  17.928  0.00  0.00    +0.000 HD
ENDROOT
BRANCH   3  14
ATOM     14  C   UNL     1       1.816  12.999  18.602  0.00  0.00    +0.000 A 
ATOM     15  C   UNL     1       0.962  14.088  18.744  0.00  0.00    +0.000 A 
ATOM     16  C   UNL     1       1.462  15.385  18.607  0.00  0.00    +0.000 A 
ATOM     17  C   UNL     1       2.809  15.553  18.324  0.00  0.00    +0.000 A 
ATOM     18  N   UNL     1       3.669  14.531  18.168  0.00  0.00    +0.000 NA
ATOM     19  C   UNL     1       3.151  13.285  18.311  0.00  0.00    +0.000 A 
ENDBRANCH   3  14
BRANCH  11  20
ATOM     20  C   UNL     1       3.042   4.519  19.022  0.00  0.00    +0.000 A 
ATOM     21  C   UNL     1       2.447   4.192  17.786  0.00  0.00    +0.000 A 
ATOM     22  C   UNL     1       3.205   3.927  16.637  0.00  0.00    +0.000 A 
ATOM     23  C   UNL     1       4.592   4.028  16.680  0.00  0.00    +0.000 A 
ATOM     24  C   UNL     1       5.217   4.374  17.871  0.00  0.00    +0.000 A 
ATOM     25  C   UNL     1       4.448   4.553  19.032  0.00  0.00    +0.000 A 
BRANCH  24  26
ATOM     26  O   UNL     1       6.590   4.487  17.850  0.00  0.00    +0.000 OA
BRANCH  26  27
ATOM     27  C   UNL     1       7.132   5.767  17.889  0.00  0.00    +0.000 A 
ATOM     28  C   UNL     1       8.040   6.036  18.899  0.00  0.00    +0.000 A 
ATOM     29  C   UNL     1       8.522   7.341  19.020  0.00  0.00    +0.000 A 
ATOM     30  C   UNL     1       8.090   8.328  18.128  0.00  0.00    +0.000 A 
ATOM     31  C   UNL     1       7.218   7.943  17.120  0.00  0.00    +0.000 A 
ATOM     32  N   UNL     1       6.748   6.687  16.974  0.00  0.00    +0.000 NA
BRANCH  30  33
ATOM     33  C   UNL     1       8.519   9.759  18.210  0.00  0.00    +0.000 C 
ATOM     34  F   UNL     1       7.655  10.620  17.606  0.00  0.00    +0.000 F 
ATOM     35  F   UNL     1       8.649  10.191  19.493  0.00  0.00    +0.000 F 
ATOM     36  F   UNL     1       9.729   9.972  17.619  0.00  0.00    +0.000 F 
ENDBRANCH  30  33
ENDBRANCH  26  27
ENDBRANCH  24  26
ENDBRANCH  11  20
TORSDOF 5
ENDMDL
MODEL 9
REMARK VINA RESULT:      -7.1      6.254     10.795
REMARK  Name = 
REMARK  5 active torsions:
REMARK  status: ('A' for Active; 'I' for Inactive)
REMARK    1  A    between atoms: N_3  and  C_4
REMARK    2  A    between atoms: C_17  and  C_18
REMARK    3  A    between atoms: C_22  and  O_23
REMARK    4  A    between atoms: O_23  and  C_24
REMARK    5  A    between atoms: C_27  and  C_28
REMARK                            x       y       z     vdW  Elec       q    Type
REMARK                         _______ _______ _______ _____ _____    ______ ____
ROOT
ATOM      1  O   UNL     1       0.614  11.656  20.679  0.00  0.00    +0.000 OA
ATOM      2  C   UNL     1       1.011  11.028  19.705  0.00  0.00    +0.000 C 
ATOM      3  N   UNL     1       1.656  11.611  18.627  0.00  0.00    +0.000 N 
ATOM      4  N   UNL     1       0.833   9.644  19.603  0.00  0.00    +0.000 N 
ATOM      5  C   UNL     1       1.332   8.735  18.571  0.00  0.00    +0.000 C 
ATOM      6  C   UNL     1       2.311   7.717  19.159  0.00  0.00    +0.000 C 
ATOM      7  C   UNL     1       1.706   6.984  20.372  0.00  0.00    +0.000 C 
ATOM      8  C   UNL     1       1.097   7.970  21.379  0.00  0.00    +0.000 C 
ATOM      9  C   UNL     1       0.150   8.951  20.696  0.00  0.00    +0.000 C 
ATOM     10  C   UNL     1       2.696   6.031  21.116  0.00  0.00    +0.000 C 
ATOM     11  C   UNL     1       2.233   4.869  20.203  0.00  0.00    +0.000 C 
ATOM     12  C   UNL     1       0.913   5.689  20.004  0.00  0.00    +0.000 C 
ATOM     13  H   UNL     1       1.754  11.058  17.798  0.00  0.00    +0.000 HD
ENDROOT
BRANCH   3  14
ATOM     14  C   UNL     1       2.065  12.962  18.494  0.00  0.00    +0.000 A 
ATOM     15  C   UNL     1       1.228  14.066  18.627  0.00  0.00    +0.000 A 
ATOM     16  C   UNL     1       1.756  15.354  18.518  0.00  0.00    +0.000 A 
ATOM     17  C   UNL     1       3.113  15.500  18.271  0.00  0.00    +0.000 A 
ATOM     18  N   UNL     1       3.957  14.463  18.125  0.00  0.00    +0.000 NA
ATOM     19  C   UNL     1       3.412  13.225  18.241  0.00  0.00    +0.000 A 
ENDBRANCH   3  14
BRANCH  11  20
ATOM     20  C   UNL     1       3.130   4.462  18.940  0.00  0.00    +0.000 A 
ATOM     21  C   UNL     1       2.593   3.998  17.722  0.00  0.00    +0.000 A 
ATOM     22  C   UNL     1       3.395   3.727  16.605  0.00  0.00    +0.000 A 
ATOM     23  C   UNL     1       4.766   3.957  16.660  0.00  0.00    +0.000 A 
ATOM     24  C   UNL     1       5.333   4.439  17.833  0.00  0.00    +0.000 A 
ATOM     25  C   UNL     1       4.527   4.625  18.967  0.00  0.00    +0.000 A 
BRANCH  24  26
ATOM     26  O   UNL     1       6.690   4.676  17.823  0.00  0.00    +0.000 OA
BRANCH  26  27
ATOM     27  C   UNL     1       7.117   5.990  17.981  0.00  0.00    +0.000 A 
ATOM     28  C   UNL     1       6.585   6.934  17.119  0.00  0.00    +0.000 A 
ATOM     29  C   UNL     1       7.072   8.240  17.192  0.00  0.00    +0.000 A 
ATOM     30  C   UNL     1       8.063   8.562  18.124  0.00  0.00    +0.000 A 
ATOM     31  C   UNL     1       8.493   7.555  18.976  0.00  0.00    +0.000 A 
ATOM     32  N   UNL     1       8.030   6.289  18.935  0.00  0.00    +0.000 NA
BRANCH  30  33
ATOM     33  C   UNL     1       8.674   9.923  18.242  0.00  0.00    +0.000 C 
ATOM     34  F   UNL     1       8.917  10.300  19.527  0.00  0.00    +0.000 F 
ATOM     35  F   UNL     1       9.864  10.019  17.589  0.00  0.00    +0.000 F 
ATOM     36  F   UNL     1       7.878  10.895  17.714  0.00  0.00    +0.000 F 
ENDBRANCH  30  33
ENDBRANCH  26  27
ENDBRANCH  24  26
ENDBRANCH  11  20
TORSDOF 5
ENDMDL
