MODEL 1
REMARK VINA RESULT:      -7.5      0.000      0.000
REMARK  Name = 
REMARK  3 active torsions:
REMARK  status: ('A' for Active; 'I' for Inactive)
REMARK    1  A    between atoms: C_4  and  C_5
REMARK    2  A    between atoms: C_13  and  C_14
REMARK    3  A    between atoms: C_14  and  N_15
REMARK                            x       y       z     vdW  Elec       q    Type
REMARK                         _______ _______ _______ _____ _____    ______ ____
ROOT
ATOM      1  O   UNL     1       1.525   3.674  17.505  0.00  0.00    +0.000 OA
ATOM      2  C   UNL     1       2.276   4.416  18.116  0.00  0.00    +0.000 C 
ATOM      3  O   UNL     1       1.855   5.186  19.159  0.00  0.00    +0.000 OA
ATOM      4  C   UNL     1       2.823   6.202  19.437  0.00  0.00    +0.000 C 
ATOM      5  C   UNL     1       3.919   6.037  18.394  0.00  0.00    +0.000 C 
ATOM      6  C   UNL     1       3.760   4.595  17.940  0.00  0.00    +0.000 C 
ENDROOT
BRANCH   4   7
ATOM      7  C   UNL     1       2.136   7.551  19.378  0.00  0.00    +0.000 A 
ATOM      8  C   UNL     1       1.524   8.092  20.517  0.00  0.00    +0.000 A 
ATOM      9  C   UNL     1       0.878   9.332  20.448  0.00  0.00    +0.000 A 
ATOM     10  C   UNL     1       0.849  10.031  19.248  0.00  0.00    +0.000 A 
ATOM     11  F   UNL     1       0.224  11.213  19.185  0.00  0.00    +0.000 F 
ATOM     12  C   UNL     1       1.457   9.521  18.110  0.00  0.00    +0.000 A 
ATOM     13  C   UNL     1       2.103   8.288  18.176  0.00  0.00    +0.000 A 
ENDBRANCH   4   7
BRANCH   6  14
ATOM     14  C   UNL     1       4.286   4.365  16.517  0.00  0.00    +0.000 C 
BRANCH  14  15
ATOM     15  N   UNL     1       5.655   3.841  16.450  0.00  0.00    +0.000 NA
ATOM     16  C   UNL     1       6.662   4.566  17.241  0.00  0.00    +0.000 C 
ATOM     17  C   UNL     1       7.177   5.848  16.572  0.00  0.00    +0.000 C 
ATOM     18  O   UNL     1       7.707   5.574  15.270  0.00  0.00    +0.000 OA
ATOM     19  C   UNL     1       6.710   4.969  14.439  0.00  0.00    +0.000 C 
ATOM     20  C   UNL     1       6.148   3.682  15.066  0.00  0.00    +0.000 C 
ENDBRANCH  14  15
ENDBRANCH   6  14
TORSDOF 3
ENDMDL
MODEL 2
REMARK VINA RESULT:      -7.4      0.078      1.084
REMARK  Name = 
REMARK  3 active torsions:
REMARK  status: ('A' for Active; 'I' for Inactive)
REMARK    1  A    between atoms: C_4  and  C_5
REMARK    2  A    between atoms: C_13  and  C_14
REMARK    3  A    between atoms: C_14  and  N_15
REMARK                            x       y       z     vdW  Elec       q    Type
REMARK                         _______ _______ _______ _____ _____    ______ ____
ROOT
ATOM      1  O   UNL     1       1.530   3.648  17.679  0.00  0.00    +0.000 OA
ATOM      2  C   UNL     1       2.288   4.425  18.235  0.00  0.00    +0.000 C 
ATOM      3  O   UNL     1       1.891   5.228  19.262  0.00  0.00    +0.000 OA
ATOM      4  C   UNL     1       2.849   6.270  19.466  0.00  0.00    +0.000 C 
ATOM      5  C   UNL     1       3.911   6.083  18.392  0.00  0.00    +0.000 C 
ATOM      6  C   UNL     1       3.762   4.622  17.999  0.00  0.00    +0.000 C 
ENDROOT
BRANCH   4   7
ATOM      7  C   UNL     1       2.137   7.604  19.379  0.00  0.00    +0.000 A 
ATOM      8  C   UNL     1       2.105   8.321  18.174  0.00  0.00    +0.000 A 
ATOM      9  C   UNL     1       1.459   9.560  18.108  0.00  0.00    +0.000 A 
ATOM     10  C   UNL     1       0.840  10.078  19.240  0.00  0.00    +0.000 A 
ATOM     11  F   UNL     1       0.229  11.268  19.174  0.00  0.00    +0.000 F 
ATOM     12  C   UNL     1       0.848   9.383  20.440  0.00  0.00    +0.000 A 
ATOM     13  C   UNL     1       1.489   8.147  20.507  0.00  0.00    +0.000 A 
ENDBRANCH   4   7
BRANCH   6  14
ATOM     14  C   UNL     1       4.242   4.344  16.568  0.00  0.00    +0.000 C 
BRANCH  14  15
ATOM     15  N   UNL     1       5.612   3.829  16.473  0.00  0.00    +0.000 NA
ATOM     16  C   UNL     1       6.627   4.545  17.262  0.00  0.00    +0.000 C 
ATOM     17  C   UNL     1       7.127   5.840  16.605  0.00  0.00    +0.000 C 
ATOM     18  O   UNL     1       7.639   5.589  15.292  0.00  0.00    +0.000 OA
ATOM     19  C   UNL     1       6.633   4.992  14.465  0.00  0.00    +0.000 C 
ATOM     20  C   UNL     1       6.085   3.693  15.080  0.00  0.00    +0.000 C 
ENDBRANCH  14  15
ENDBRANCH   6  14
TORSDOF 3
ENDMDL
MODEL 3
REMARK VINA RESULT:      -7.2      4.135      7.003
REMARK  Name = 
REMARK  3 active torsions:
REMARK  status: ('A' for Active; 'I' for Inactive)
REMARK    1  A    between atoms: C_4  and  C_5
REMARK    2  A    between atoms: C_13  and  C_14
REMARK    3  A    between atoms: C_14  and  N_15
REMARK                            x       y       z     vdW  Elec       q    Type
REMARK                         _______ _______ _______ _____ _____    ______ ____
ROOT
ATOM      1  O   UNL     1       3.990   7.256  17.369  0.00  0.00    +0.000 OA
ATOM      2  C   UNL     1       5.010   6.590  17.321  0.00  0.00    +0.000 C 
ATOM      3  O   UNL     1       5.939   6.742  16.335  0.00  0.00    +0.000 OA
ATOM      4  C   UNL     1       6.818   5.614  16.315  0.00  0.00    +0.000 C 
ATOM      5  C   UNL     1       6.308   4.661  17.386  0.00  0.00    +0.000 C 
ATOM      6  C   UNL     1       5.503   5.564  18.306  0.00  0.00    +0.000 C 
ENDROOT
BRANCH   4   7
ATOM      7  C   UNL     1       6.802   5.017  14.923  0.00  0.00    +0.000 A 
ATOM      8  C   UNL     1       5.877   4.019  14.584  0.00  0.00    +0.000 A 
ATOM      9  C   UNL     1       5.881   3.460  13.300  0.00  0.00    +0.000 A 
ATOM     10  C   UNL     1       6.800   3.902  12.357  0.00  0.00    +0.000 A 
ATOM     11  F   UNL     1       6.805   3.361  11.132  0.00  0.00    +0.000 F 
ATOM     12  C   UNL     1       7.718   4.896  12.665  0.00  0.00    +0.000 A 
ATOM     13  C   UNL     1       7.714   5.455  13.942  0.00  0.00    +0.000 A 
ENDBRANCH   4   7
BRANCH   6  14
ATOM     14  C   UNL     1       4.409   4.804  19.068  0.00  0.00    +0.000 C 
BRANCH  14  15
ATOM     15  N   UNL     1       3.953   3.573  18.414  0.00  0.00    +0.000 NA
ATOM     16  C   UNL     1       2.817   3.716  17.490  0.00  0.00    +0.000 C 
ATOM     17  C   UNL     1       1.451   3.787  18.187  0.00  0.00    +0.000 C 
ATOM     18  O   UNL     1       1.237   2.646  19.024  0.00  0.00    +0.000 OA
ATOM     19  C   UNL     1       2.272   2.544  20.010  0.00  0.00    +0.000 C 
ATOM     20  C   UNL     1       3.668   2.480  19.368  0.00  0.00    +0.000 C 
ENDBRANCH  14  15
ENDBRANCH   6  14
TORSDOF 3
ENDMDL
MODEL 4
REMARK VINA RESULT:      -7.2      4.137      7.034
REMARK  Name = 
REMARK  3 active torsions:
REMARK  status: ('A' for Active; 'I' for Inactive)
REMARK    1  A    between atoms: C_4  and  C_5
REMARK    2  A    between atoms: C_13  and  C_14
REMARK    3  A    between atoms: C_14  and  N_15
REMARK                            x       y       z     vdW  Elec       q    Type
REMARK                         _______ _______ _______ _____ _____    ______ ____
ROOT
ATOM      1  O   UNL     1       4.051   7.292  17.402  0.00  0.00    +0.000 OA
ATOM      2  C   UNL     1       5.087   6.661  17.280  0.00  0.00    +0.000 C 
ATOM      3  O   UNL     1       5.877   6.756  16.173  0.00  0.00    +0.000 OA
ATOM      4  C   UNL     1       6.798   5.663  16.135  0.00  0.00    +0.000 C 
ATOM      5  C   UNL     1       6.471   4.794  17.341  0.00  0.00    +0.000 C 
ATOM      6  C   UNL     1       5.748   5.748  18.277  0.00  0.00    +0.000 C 
ENDROOT
BRANCH   4   7
ATOM      7  C   UNL     1       6.635   4.941  14.814  0.00  0.00    +0.000 A 
ATOM      8  C   UNL     1       7.578   5.105  13.788  0.00  0.00    +0.000 A 
ATOM      9  C   UNL     1       7.410   4.448  12.565  0.00  0.00    +0.000 A 
ATOM     10  C   UNL     1       6.309   3.623  12.368  0.00  0.00    +0.000 A 
ATOM     11  F   UNL     1       6.149   3.000  11.194  0.00  0.00    +0.000 F 
ATOM     12  C   UNL     1       5.369   3.436  13.371  0.00  0.00    +0.000 A 
ATOM     13  C   UNL     1       5.535   4.088  14.591  0.00  0.00    +0.000 A 
ENDBRANCH   4   7
BRANCH   6  14
ATOM     14  C   UNL     1       4.795   5.022  19.236  0.00  0.00    +0.000 C 
BRANCH  14  15
ATOM     15  N   UNL     1       4.272   3.748  18.730  0.00  0.00    +0.000 NA
ATOM     16  C   UNL     1       2.965   3.810  18.056  0.00  0.00    +0.000 C 
ATOM     17  C   UNL     1       1.769   3.855  19.019  0.00  0.00    +0.000 C 
ATOM     18  O   UNL     1       1.785   2.741  19.917  0.00  0.00    +0.000 OA
ATOM     19  C   UNL     1       3.004   2.720  20.670  0.00  0.00    +0.000 C 
ATOM     20  C   UNL     1       4.240   2.685  19.756  0.00  0.00    +0.000 C 
ENDBRANCH  14  15
ENDBRANCH   6  14
TORSDOF 3
ENDMDL
MODEL 5
REMARK VINA RESULT:      -7.1      0.822      1.708
REMARK  Name = 
REMARK  3 active torsions:
REMARK  status: ('A' for Active; 'I' for Inactive)
REMARK    1  A    between atoms: C_4  and  C_5
REMARK    2  A    between atoms: C_13  and  C_14
REMARK    3  A    between atoms: C_14  and  N_15
REMARK                            x       y       z     vdW  Elec       q    Type
REMARK                         _______ _______ _______ _____ _____    ______ ____
ROOT
ATOM      1  O   UNL     1       1.979   3.528  17.312  0.00  0.00    +0.000 OA
ATOM      2  C   UNL     1       2.456   4.136  18.255  0.00  0.00    +0.000 C 
ATOM      3  O   UNL     1       1.695   4.879  19.108  0.00  0.00    +0.000 OA
ATOM      4  C   UNL     1       2.530   5.756  19.868  0.00  0.00    +0.000 C 
ATOM      5  C   UNL     1       3.947   5.537  19.359  0.00  0.00    +0.000 C 
ATOM      6  C   UNL     1       3.885   4.156  18.727  0.00  0.00    +0.000 C 
ENDROOT
BRANCH   4   7
ATOM      7  C   UNL     1       2.038   7.176  19.677  0.00  0.00    +0.000 A 
ATOM      8  C   UNL     1       2.217   7.836  18.452  0.00  0.00    +0.000 A 
ATOM      9  C   UNL     1       1.774   9.154  18.291  0.00  0.00    +0.000 A 
ATOM     10  C   UNL     1       1.147   9.807  19.345  0.00  0.00    +0.000 A 
ATOM     11  F   UNL     1       0.730  11.069  19.188  0.00  0.00    +0.000 F 
ATOM     12  C   UNL     1       0.947   9.171  20.561  0.00  0.00    +0.000 A 
ATOM     13  C   UNL     1       1.386   7.858  20.724  0.00  0.00    +0.000 A 
ENDBRANCH   4   7
BRANCH   6  14
ATOM     14  C   UNL     1       4.942   3.961  17.632  0.00  0.00    +0.000 C 
BRANCH  14  15
ATOM     15  N   UNL     1       4.939   4.993  16.589  0.00  0.00    +0.000 NA
ATOM     16  C   UNL     1       5.421   4.571  15.264  0.00  0.00    +0.000 C 
ATOM     17  C   UNL     1       6.951   4.530  15.142  0.00  0.00    +0.000 C 
ATOM     18  O   UNL     1       7.531   5.796  15.476  0.00  0.00    +0.000 OA
ATOM     19  C   UNL     1       7.169   6.180  16.807  0.00  0.00    +0.000 C 
ATOM     20  C   UNL     1       5.643   6.228  16.993  0.00  0.00    +0.000 C 
ENDBRANCH  14  15
ENDBRANCH   6  14
TORSDOF 3
ENDMDL
MODEL 6
REMARK VINA RESULT:      -7.1      0.785      1.311
REMARK  Name = 
REMARK  3 active torsions:
REMARK  status: ('A' for Active; 'I' for Inactive)
REMARK    1  A    between atoms: C_4  and  C_5
REMARK    2  A    between atoms: C_13  and  C_14
REMARK    3  A    between atoms: C_14  and  N_15
REMARK                            x       y       z     vdW  Elec       q    Type
REMARK                         _______ _______ _______ _____ _____    ______ ____
ROOT
ATOM      1  O   UNL     1       1.922   3.499  17.395  0.00  0.00    +0.000 OA
ATOM      2  C   UNL     1       2.433   4.135  18.301  0.00  0.00    +0.000 C 
ATOM      3  O   UNL     1       1.704   4.908  19.155  0.00  0.00    +0.000 OA
ATOM      4  C   UNL     1       2.567   5.807  19.857  0.00  0.00    +0.000 C 
ATOM      5  C   UNL     1       3.965   5.565  19.308  0.00  0.00    +0.000 C 
ATOM      6  C   UNL     1       3.877   4.165  18.723  0.00  0.00    +0.000 C 
ENDROOT
BRANCH   4   7
ATOM      7  C   UNL     1       2.072   7.221  19.637  0.00  0.00    +0.000 A 
ATOM      8  C   UNL     1       1.422   7.920  20.665  0.00  0.00    +0.000 A 
ATOM      9  C   UNL     1       0.954   9.220  20.447  0.00  0.00    +0.000 A 
ATOM     10  C   UNL     1       1.139   9.824  19.209  0.00  0.00    +0.000 A 
ATOM     11  F   UNL     1       0.684  11.066  19.003  0.00  0.00    +0.000 F 
ATOM     12  C   UNL     1       1.789   9.157  18.180  0.00  0.00    +0.000 A 
ATOM     13  C   UNL     1       2.258   7.863  18.396  0.00  0.00    +0.000 A 
ENDBRANCH   4   7
BRANCH   6  14
ATOM     14  C   UNL     1       4.896   3.931  17.600  0.00  0.00    +0.000 C 
BRANCH  14  15
ATOM     15  N   UNL     1       4.904   4.963  16.558  0.00  0.00    +0.000 NA
ATOM     16  C   UNL     1       5.363   4.533  15.227  0.00  0.00    +0.000 C 
ATOM     17  C   UNL     1       6.890   4.458  15.088  0.00  0.00    +0.000 C 
ATOM     18  O   UNL     1       7.501   5.710  15.417  0.00  0.00    +0.000 OA
ATOM     19  C   UNL     1       7.162   6.100  16.752  0.00  0.00    +0.000 C 
ATOM     20  C   UNL     1       5.640   6.182  16.954  0.00  0.00    +0.000 C 
ENDBRANCH  14  15
ENDBRANCH   6  14
TORSDOF 3
ENDMDL
MODEL 7
REMARK VINA RESULT:      -7.0      4.076      7.247
REMARK  Name = 
REMARK  3 active torsions:
REMARK  status: ('A' for Active; 'I' for Inactive)
REMARK    1  A    between atoms: C_4  and  C_5
REMARK    2  A    between atoms: C_13  and  C_14
REMARK    3  A    between atoms: C_14  and  N_15
REMARK                            x       y       z     vdW  Elec       q    Type
REMARK                         _______ _______ _______ _____ _____    ______ ____
ROOT
ATOM      1  O   UNL     1       3.882   7.498  17.063  0.00  0.00    +0.000 OA
ATOM      2  C   UNL     1       4.740   6.634  17.121  0.00  0.00    +0.000 C 
ATOM      3  O   UNL     1       5.868   6.670  16.358  0.00  0.00    +0.000 OA
ATOM      4  C   UNL     1       6.495   5.385  16.353  0.00  0.00    +0.000 C 
ATOM      5  C   UNL     1       5.594   4.472  17.172  0.00  0.00    +0.000 C 
ATOM      6  C   UNL     1       4.803   5.441  18.036  0.00  0.00    +0.000 C 
ENDROOT
BRANCH   4   7
ATOM      7  C   UNL     1       6.660   4.933  14.917  0.00  0.00    +0.000 A 
ATOM      8  C   UNL     1       5.807   3.963  14.370  0.00  0.00    +0.000 A 
ATOM      9  C   UNL     1       5.978   3.540  13.047  0.00  0.00    +0.000 A 
ATOM     10  C   UNL     1       6.991   4.090  12.270  0.00  0.00    +0.000 A 
ATOM     11  F   UNL     1       7.154   3.678  11.007  0.00  0.00    +0.000 F 
ATOM     12  C   UNL     1       7.839   5.059  12.785  0.00  0.00    +0.000 A 
ATOM     13  C   UNL     1       7.670   5.483  14.102  0.00  0.00    +0.000 A 
ENDBRANCH   4   7
BRANCH   6  14
ATOM     14  C   UNL     1       3.446   4.871  18.469  0.00  0.00    +0.000 C 
BRANCH  14  15
ATOM     15  N   UNL     1       3.460   4.174  19.760  0.00  0.00    +0.000 NA
ATOM     16  C   UNL     1       3.363   2.707  19.701  0.00  0.00    +0.000 C 
ATOM     17  C   UNL     1       1.934   2.184  19.497  0.00  0.00    +0.000 C 
ATOM     18  O   UNL     1       1.053   2.676  20.512  0.00  0.00    +0.000 OA
ATOM     19  C   UNL     1       1.042   4.108  20.518  0.00  0.00    +0.000 C 
ATOM     20  C   UNL     1       2.452   4.690  20.709  0.00  0.00    +0.000 C 
ENDBRANCH  14  15
ENDBRANCH   6  14
TORSDOF 3
ENDMDL
MODEL 8
REMARK VINA RESULT:      -7.0      4.390      7.742
REMARK  Name = 
REMARK  3 active torsions:
REMARK  status: ('A' for Active; 'I' for Inactive)
REMARK    1  A    between atoms: C_4  and  C_5
REMARK    2  A    between atoms: C_13  and  C_14
REMARK    3  A    between atoms: C_14  and  N_15
REMARK                            x       y       z     vdW  Elec       q    Type
REMARK                         _______ _______ _______ _____ _____    ______ ____
ROOT
ATOM      1  O   UNL     1       1.781   9.303  17.435  0.00  0.00    +0.000 OA
ATOM      2  C   UNL     1       1.986   8.691  18.469  0.00  0.00    +0.000 C 
ATOM      3  O   UNL     1       2.702   7.531  18.505  0.00  0.00    +0.000 OA
ATOM      4  C   UNL     1       2.474   6.854  19.743  0.00  0.00    +0.000 C 
ATOM      5  C   UNL     1       1.459   7.695  20.503  0.00  0.00    +0.000 C 
ATOM      6  C   UNL     1       1.598   9.071  19.873  0.00  0.00    +0.000 C 
ENDROOT
BRANCH   4   7
ATOM      7  C   UNL     1       1.987   5.452  19.443  0.00  0.00    +0.000 A 
ATOM      8  C   UNL     1       2.099   4.917  18.151  0.00  0.00    +0.000 A 
ATOM      9  C   UNL     1       1.631   3.626  17.879  0.00  0.00    +0.000 A 
ATOM     10  C   UNL     1       1.059   2.870  18.896  0.00  0.00    +0.000 A 
ATOM     11  F   UNL     1       0.607   1.638  18.630  0.00  0.00    +0.000 F 
ATOM     12  C   UNL     1       0.948   3.373  20.184  0.00  0.00    +0.000 A 
ATOM     13  C   UNL     1       1.415   4.657  20.457  0.00  0.00    +0.000 A 
ENDBRANCH   4   7
BRANCH   6  14
ATOM     14  C   UNL     1       0.318   9.908  19.997  0.00  0.00    +0.000 C 
BRANCH  14  15
ATOM     15  N   UNL     1       0.545  11.342  20.208  0.00  0.00    +0.000 NA
ATOM     16  C   UNL     1      -0.229  11.964  21.295  0.00  0.00    +0.000 C 
ATOM     17  C   UNL     1      -1.677  12.305  20.914  0.00  0.00    +0.000 C 
ATOM     18  O   UNL     1      -1.723  13.148  19.759  0.00  0.00    +0.000 OA
ATOM     19  C   UNL     1      -1.073  12.518  18.649  0.00  0.00    +0.000 C 
ATOM     20  C   UNL     1       0.382  12.143  18.977  0.00  0.00    +0.000 C 
ENDBRANCH  14  15
ENDBRANCH   6  14
TORSDOF 3
ENDMDL
MODEL 9
REMARK VINA RESULT:      -6.9      4.436      7.524
REMARK  Name = 
REMARK  3 active torsions:
REMARK  status: ('A' for Active; 'I' for Inactive)
REMARK    1  A    between atoms: C_4  and  C_5
REMARK    2  A    between atoms: C_13  and  C_14
REMARK    3  A    between atoms: C_14  and  N_15
REMARK                            x       y       z     vdW  Elec       q    Type
REMARK                         _______ _______ _______ _____ _____    ______ ____
ROOT
ATOM      1  O   UNL     1       1.613   9.386  17.460  0.00  0.00    +0.000 OA
ATOM      2  C   UNL     1       1.845   8.786  18.495  0.00  0.00    +0.000 C 
ATOM      3  O   UNL     1       2.601   7.652  18.531  0.00  0.00    +0.000 OA
ATOM      4  C   UNL     1       2.404   6.973  19.774  0.00  0.00    +0.000 C 
ATOM      5  C   UNL     1       1.364   7.782  20.536  0.00  0.00    +0.000 C 
ATOM      6  C   UNL     1       1.453   9.159  19.899  0.00  0.00    +0.000 C 
ENDROOT
BRANCH   4   7
ATOM      7  C   UNL     1       1.963   5.553  19.482  0.00  0.00    +0.000 A 
ATOM      8  C   UNL     1       1.400   4.758  20.490  0.00  0.00    +0.000 A 
ATOM      9  C   UNL     1       1.012   3.442  20.215  0.00  0.00    +0.000 A 
ATOM     10  C   UNL     1       1.179   2.924  18.936  0.00  0.00    +0.000 A 
ATOM     11  F   UNL     1       0.812   1.663  18.679  0.00  0.00    +0.000 F 
ATOM     12  C   UNL     1       1.723   3.695  17.919  0.00  0.00    +0.000 A 
ATOM     13  C   UNL     1       2.108   5.007  18.190  0.00  0.00    +0.000 A 
ENDBRANCH   4   7
BRANCH   6  14
ATOM     14  C   UNL     1       0.146   9.952  20.028  0.00  0.00    +0.000 C 
BRANCH  14  15
ATOM     15  N   UNL     1       0.298  11.290  20.611  0.00  0.00    +0.000 NA
ATOM     16  C   UNL     1      -0.935  12.085  20.730  0.00  0.00    +0.000 C 
ATOM     17  C   UNL     1      -1.368  12.764  19.423  0.00  0.00    +0.000 C 
ATOM     18  O   UNL     1      -0.323  13.588  18.897  0.00  0.00    +0.000 OA
ATOM     19  C   UNL     1       0.860  12.815  18.665  0.00  0.00    +0.000 C 
ATOM     20  C   UNL     1       1.336  12.100  19.940  0.00  0.00    +0.000 C 
ENDBRANCH  14  15
ENDBRANCH   6  14
TORSDOF 3
ENDMDL
