MODEL 1
REMARK VINA RESULT:      -7.5      0.000      0.000
REMARK  Name = 
REMARK  6 active torsions:
REMARK  status: ('A' for Active; 'I' for Inactive)
REMARK    1  A    between atoms: C_1  and  C_2
REMARK    2  A    between atoms: C_2  and  O_3
REMARK    3  A    between atoms: O_3  and  C_4
REMARK    4  A    between atoms: C_7  and  N_8
REMARK    5  A    between atoms: N_11  and  N_12
REMARK    6  A    between atoms: C_20  and  C_21
REMARK                            x       y       z     vdW  Elec       q    Type
REMARK                         _______ _______ _______ _____ _____    ______ ____
ROOT
ATOM      1  N   UNL     1       1.356   8.111  20.781  0.00  0.00    +0.000 N 
ATOM      2  C   UNL     1       1.850   7.618  19.527  0.00  0.00    +0.000 C 
ATOM      3  O   UNL     1       1.788   8.316  18.510  0.00  0.00    +0.000 OA
ATOM      4  N   UNL     1       2.358   6.249  19.422  0.00  0.00    +0.000 N 
ATOM      5  H   UNL     1       1.428   7.419  21.524  0.00  0.00    +0.000 HD
ATOM      6  H   UNL     1       2.345   5.814  20.333  0.00  0.00    +0.000 HD
ENDROOT
BRANCH   4   7
ATOM      7  N   UNL     1       2.735   5.383  18.329  0.00  0.00    +0.000 NA
ATOM      8  C   UNL     1       4.031   5.457  17.835  0.00  0.00    +0.000 C 
ATOM      9  C   UNL     1       4.908   6.040  18.881  0.00  0.00    +0.000 C 
ATOM     10  C   UNL     1       6.052   5.093  19.114  0.00  0.00    +0.000 C 
ATOM     11 SE   UNL     1       7.371   6.037  18.206  0.00  0.00    +0.000 Se
ATOM     12  C   UNL     1       6.447   5.371  16.654  0.00  0.00    +0.000 A 
ATOM     13  C   UNL     1       7.455   5.199  15.733  0.00  0.00    +0.000 A 
ATOM     14  C   UNL     1       7.267   4.629  14.550  0.00  0.00    +0.000 A 
ATOM     15  C   UNL     1       6.015   4.183  14.182  0.00  0.00    +0.000 A 
ATOM     16  C   UNL     1       6.157   3.525  12.760  0.00  0.00    +0.000 C 
ATOM     17  C   UNL     1       4.854   4.386  15.114  0.00  0.00    +0.000 A 
ATOM     18  C   UNL     1       5.012   5.035  16.484  0.00  0.00    +0.000 A 
ENDBRANCH   4   7
BRANCH   1  22
ATOM     19  C   UNL     1      -0.711  11.669  22.607  0.00  0.00    +0.000 A 
ATOM     20  C   UNL     1       0.149  11.818  21.492  0.00  0.00    +0.000 A 
ATOM     21  C   UNL     1       0.839  10.716  20.868  0.00  0.00    +0.000 A 
ATOM     22  C   UNL     1       0.708   9.372  21.341  0.00  0.00    +0.000 A 
ATOM     23  C   UNL     1      -0.152   9.266  22.507  0.00  0.00    +0.000 A 
ATOM     24  C   UNL     1      -0.845  10.367  23.112  0.00  0.00    +0.000 A 
BRANCH  19  25
ATOM     25  O   UNL     1      -1.338  12.781  23.125  0.00  0.00    +0.000 OA
BRANCH  25  27
ATOM     26  C   UNL     1      -3.314  12.780  21.674  0.00  0.00    +0.000 C 
ATOM     27  C   UNL     1      -2.565  13.432  22.840  0.00  0.00    +0.000 C 
ENDBRANCH  25  27
ENDBRANCH  19  25
ENDBRANCH   1  22
TORSDOF 4
ENDMDL
MODEL 2
REMARK VINA RESULT:      -7.5      0.401      1.032
REMARK  Name = 
REMARK  6 active torsions:
REMARK  status: ('A' for Active; 'I' for Inactive)
REMARK    1  A    between atoms: C_1  and  C_2
REMARK    2  A    between atoms: C_2  and  O_3
REMARK    3  A    between atoms: O_3  and  C_4
REMARK    4  A    between atoms: C_7  and  N_8
REMARK    5  A    between atoms: N_11  and  N_12
REMARK    6  A    between atoms: C_20  and  C_21
REMARK                            x       y       z     vdW  Elec       q    Type
REMARK                         _______ _______ _______ _____ _____    ______ ____
ROOT
ATOM      1  N   UNL     1       1.386   7.640  21.026  0.00  0.00    +0.000 N 
ATOM      2  C   UNL     1       1.926   7.179  19.779  0.00  0.00    +0.000 C 
ATOM      3  O   UNL     1       1.879   7.892  18.772  0.00  0.00    +0.000 OA
ATOM      4  N   UNL     1       2.465   5.822  19.668  0.00  0.00    +0.000 N 
ATOM      5  H   UNL     1       1.451   6.937  21.760  0.00  0.00    +0.000 HD
ATOM      6  H   UNL     1       2.435   5.371  20.571  0.00  0.00    +0.000 HD
ENDROOT
BRANCH   4   7
ATOM      7  N   UNL     1       2.891   4.982  18.571  0.00  0.00    +0.000 NA
ATOM      8  C   UNL     1       4.121   5.232  17.978  0.00  0.00    +0.000 C 
ATOM      9  C   UNL     1       4.971   5.981  18.937  0.00  0.00    +0.000 C 
ATOM     10  C   UNL     1       6.261   5.228  19.106  0.00  0.00    +0.000 C 
ATOM     11 SE   UNL     1       7.350   6.326  18.074  0.00  0.00    +0.000 Se
ATOM     12  C   UNL     1       6.430   5.469  16.616  0.00  0.00    +0.000 A 
ATOM     13  C   UNL     1       7.384   5.417  15.626  0.00  0.00    +0.000 A 
ATOM     14  C   UNL     1       7.200   4.781  14.476  0.00  0.00    +0.000 A 
ATOM     15  C   UNL     1       6.009   4.136  14.218  0.00  0.00    +0.000 A 
ATOM     16  C   UNL     1       6.148   3.453  12.807  0.00  0.00    +0.000 C 
ATOM     17  C   UNL     1       4.901   4.196  15.231  0.00  0.00    +0.000 A 
ATOM     18  C   UNL     1       5.056   4.913  16.567  0.00  0.00    +0.000 A 
ENDBRANCH   4   7
BRANCH   1  22
ATOM     19  C   UNL     1      -0.516  11.451  22.484  0.00  0.00    +0.000 A 
ATOM     20  C   UNL     1      -0.670  10.239  23.200  0.00  0.00    +0.000 A 
ATOM     21  C   UNL     1      -0.086   8.988  22.779  0.00  0.00    +0.000 A 
ATOM     22  C   UNL     1       0.697   8.879  21.587  0.00  0.00    +0.000 A 
ATOM     23  C   UNL     1       0.801  10.134  20.863  0.00  0.00    +0.000 A 
ATOM     24  C   UNL     1       0.228  11.375  21.298  0.00  0.00    +0.000 A 
BRANCH  19  25
ATOM     25  O   UNL     1      -1.100  12.599  22.975  0.00  0.00    +0.000 OA
BRANCH  25  27
ATOM     26  C   UNL     1      -3.495  12.736  22.467  0.00  0.00    +0.000 C 
ATOM     27  C   UNL     1      -2.138  13.444  22.505  0.00  0.00    +0.000 C 
ENDBRANCH  25  27
ENDBRANCH  19  25
ENDBRANCH   1  22
TORSDOF 4
ENDMDL
MODEL 3
REMARK VINA RESULT:      -7.4      2.156      2.841
REMARK  Name = 
REMARK  6 active torsions:
REMARK  status: ('A' for Active; 'I' for Inactive)
REMARK    1  A    between atoms: C_1  and  C_2
REMARK    2  A    between atoms: C_2  and  O_3
REMARK    3  A    between atoms: O_3  and  C_4
REMARK    4  A    between atoms: C_7  and  N_8
REMARK    5  A    between atoms: N_11  and  N_12
REMARK    6  A    between atoms: C_20  and  C_21
REMARK                            x       y       z     vdW  Elec       q    Type
REMARK                         _______ _______ _______ _____ _____    ______ ____
ROOT
ATOM      1  N   UNL     1       0.253  10.740  20.188  0.00  0.00    +0.000 N 
ATOM      2  C   UNL     1       0.529  10.248  18.869  0.00  0.00    +0.000 C 
ATOM      3  O   UNL     1      -0.336  10.288  17.989  0.00  0.00    +0.000 OA
ATOM      4  N   UNL     1       1.817   9.615  18.574  0.00  0.00    +0.000 N 
ATOM      5  H   UNL     1       1.036  10.605  20.824  0.00  0.00    +0.000 HD
ATOM      6  H   UNL     1       2.411   9.662  19.389  0.00  0.00    +0.000 HD
ENDROOT
BRANCH   4   7
ATOM      7  N   UNL     1       2.350   8.860  17.464  0.00  0.00    +0.000 NA
ATOM      8  C   UNL     1       3.079   7.708  17.729  0.00  0.00    +0.000 C 
ATOM      9  C   UNL     1       2.713   7.212  19.079  0.00  0.00    +0.000 C 
ATOM     10  C   UNL     1       2.279   5.778  18.948  0.00  0.00    +0.000 C 
ATOM     11 SE   UNL     1       3.809   4.971  19.627  0.00  0.00    +0.000 Se
ATOM     12  C   UNL     1       4.539   5.454  17.913  0.00  0.00    +0.000 A 
ATOM     13  C   UNL     1       5.430   4.440  17.649  0.00  0.00    +0.000 A 
ATOM     14  C   UNL     1       6.067   4.319  16.491  0.00  0.00    +0.000 A 
ATOM     15  C   UNL     1       5.863   5.236  15.482  0.00  0.00    +0.000 A 
ATOM     16  C   UNL     1       6.723   4.771  14.250  0.00  0.00    +0.000 C 
ATOM     17  C   UNL     1       4.945   6.403  15.719  0.00  0.00    +0.000 A 
ATOM     18  C   UNL     1       4.189   6.593  17.028  0.00  0.00    +0.000 A 
ENDBRANCH   4   7
BRANCH   1  22
ATOM     19  C   UNL     1      -3.061  12.499  22.676  0.00  0.00    +0.000 A 
ATOM     20  C   UNL     1      -3.003  12.719  21.278  0.00  0.00    +0.000 A 
ATOM     21  C   UNL     1      -1.964  12.184  20.432  0.00  0.00    +0.000 A 
ATOM     22  C   UNL     1      -0.898  11.384  20.952  0.00  0.00    +0.000 A 
ATOM     23  C   UNL     1      -0.973  11.212  22.393  0.00  0.00    +0.000 A 
ATOM     24  C   UNL     1      -2.018  11.737  23.223  0.00  0.00    +0.000 A 
BRANCH  19  25
ATOM     25  O   UNL     1      -4.103  13.041  23.398  0.00  0.00    +0.000 OA
BRANCH  25  27
ATOM     26  C   UNL     1      -6.472  12.745  23.952  0.00  0.00    +0.000 C 
ATOM     27  C   UNL     1      -5.012  12.511  24.348  0.00  0.00    +0.000 C 
ENDBRANCH  25  27
ENDBRANCH  19  25
ENDBRANCH   1  22
TORSDOF 4
ENDMDL
MODEL 4
REMARK VINA RESULT:      -7.3      2.897     10.506
REMARK  Name = 
REMARK  6 active torsions:
REMARK  status: ('A' for Active; 'I' for Inactive)
REMARK    1  A    between atoms: C_1  and  C_2
REMARK    2  A    between atoms: C_2  and  O_3
REMARK    3  A    between atoms: O_3  and  C_4
REMARK    4  A    between atoms: C_7  and  N_8
REMARK    5  A    between atoms: N_11  and  N_12
REMARK    6  A    between atoms: C_20  and  C_21
REMARK                            x       y       z     vdW  Elec       q    Type
REMARK                         _______ _______ _______ _____ _____    ______ ____
ROOT
ATOM      1  N   UNL     1       3.832   6.410  18.621  0.00  0.00    +0.000 N 
ATOM      2  C   UNL     1       2.590   6.443  19.337  0.00  0.00    +0.000 C 
ATOM      3  O   UNL     1       1.684   5.650  19.060  0.00  0.00    +0.000 OA
ATOM      4  N   UNL     1       2.351   7.472  20.350  0.00  0.00    +0.000 N 
ATOM      5  H   UNL     1       4.471   7.144  18.920  0.00  0.00    +0.000 HD
ATOM      6  H   UNL     1       3.181   8.037  20.461  0.00  0.00    +0.000 HD
ENDROOT
BRANCH   4   7
ATOM      7  N   UNL     1       1.197   7.918  21.098  0.00  0.00    +0.000 NA
ATOM      8  C   UNL     1       0.664   9.170  20.821  0.00  0.00    +0.000 C 
ATOM      9  C   UNL     1       1.075   9.570  19.452  0.00  0.00    +0.000 C 
ATOM     10  C   UNL     1      -0.165   9.908  18.671  0.00  0.00    +0.000 C 
ATOM     11 SE   UNL     1      -0.010  11.759  18.707  0.00  0.00    +0.000 Se
ATOM     12  C   UNL     1      -0.585  11.536  20.531  0.00  0.00    +0.000 A 
ATOM     13  C   UNL     1      -1.317  12.674  20.775  0.00  0.00    +0.000 A 
ATOM     14  C   UNL     1      -2.007  12.866  21.892  0.00  0.00    +0.000 A 
ATOM     15  C   UNL     1      -2.009  11.908  22.884  0.00  0.00    +0.000 A 
ATOM     16  C   UNL     1      -2.955  12.428  24.029  0.00  0.00    +0.000 C 
ATOM     17  C   UNL     1      -1.186  10.663  22.711  0.00  0.00    +0.000 A 
ATOM     18  C   UNL     1      -0.374  10.391  21.450  0.00  0.00    +0.000 A 
ENDBRANCH   4   7
BRANCH   1  22
ATOM     19  C   UNL     1       5.788   4.302  15.157  0.00  0.00    +0.000 A 
ATOM     20  C   UNL     1       5.244   3.571  16.242  0.00  0.00    +0.000 A 
ATOM     21  C   UNL     1       4.609   4.193  17.379  0.00  0.00    +0.000 A 
ATOM     22  C   UNL     1       4.486   5.613  17.497  0.00  0.00    +0.000 A 
ATOM     23  C   UNL     1       5.088   6.327  16.383  0.00  0.00    +0.000 A 
ATOM     24  C   UNL     1       5.705   5.698  15.251  0.00  0.00    +0.000 A 
BRANCH  19  25
ATOM     25  O   UNL     1       6.362   3.617  14.108  0.00  0.00    +0.000 OA
BRANCH  25  27
ATOM     26  C   UNL     1       4.950   3.395  12.116  0.00  0.00    +0.000 C 
ATOM     27  C   UNL     1       6.315   3.770  12.699  0.00  0.00    +0.000 C 
ENDBRANCH  25  27
ENDBRANCH  19  25
ENDBRANCH   1  22
TORSDOF 4
ENDMDL
MODEL 5
REMARK VINA RESULT:      -7.3      3.060     10.859
REMARK  Name = 
REMARK  6 active torsions:
REMARK  status: ('A' for Active; 'I' for Inactive)
REMARK    1  A    between atoms: C_1  and  C_2
REMARK    2  A    between atoms: C_2  and  O_3
REMARK    3  A    between atoms: O_3  and  C_4
REMARK    4  A    between atoms: C_7  and  N_8
REMARK    5  A    between atoms: N_11  and  N_12
REMARK    6  A    between atoms: C_20  and  C_21
REMARK                            x       y       z     vdW  Elec       q    Type
REMARK                         _______ _______ _______ _____ _____    ______ ____
ROOT
ATOM      1  N   UNL     1       3.055   7.347  18.463  0.00  0.00    +0.000 N 
ATOM      2  C   UNL     1       2.178   7.350  19.598  0.00  0.00    +0.000 C 
ATOM      3  O   UNL     1       1.815   6.289  20.115  0.00  0.00    +0.000 OA
ATOM      4  N   UNL     1       1.638   8.612  20.107  0.00  0.00    +0.000 N 
ATOM      5  H   UNL     1       3.237   8.285  18.111  0.00  0.00    +0.000 HD
ATOM      6  H   UNL     1       2.029   9.383  19.584  0.00  0.00    +0.000 HD
ENDROOT
BRANCH   4   7
ATOM      7  N   UNL     1       0.616   8.970  21.065  0.00  0.00    +0.000 NA
ATOM      8  C   UNL     1      -0.167  10.090  20.817  0.00  0.00    +0.000 C 
ATOM      9  C   UNL     1      -0.137  10.381  19.362  0.00  0.00    +0.000 C 
ATOM     10  C   UNL     1      -1.556  10.440  18.868  0.00  0.00    +0.000 C 
ATOM     11 SE   UNL     1      -1.711  12.286  18.714  0.00  0.00    +0.000 Se
ATOM     12  C   UNL     1      -1.829  12.199  20.633  0.00  0.00    +0.000 A 
ATOM     13  C   UNL     1      -2.672  13.240  20.948  0.00  0.00    +0.000 A 
ATOM     14  C   UNL     1      -3.125  13.460  22.175  0.00  0.00    +0.000 A 
ATOM     15  C   UNL     1      -2.750  12.636  23.216  0.00  0.00    +0.000 A 
ATOM     16  C   UNL     1      -3.498  13.144  24.503  0.00  0.00    +0.000 C 
ATOM     17  C   UNL     1      -1.787  11.511  22.958  0.00  0.00    +0.000 A 
ATOM     18  C   UNL     1      -1.235  11.213  21.569  0.00  0.00    +0.000 A 
ENDBRANCH   4   7
BRANCH   1  22
ATOM     19  C   UNL     1       5.318   4.590  15.716  0.00  0.00    +0.000 A 
ATOM     20  C   UNL     1       4.368   4.084  16.636  0.00  0.00    +0.000 A 
ATOM     21  C   UNL     1       3.616   4.918  17.542  0.00  0.00    +0.000 A 
ATOM     22  C   UNL     1       3.782   6.339  17.580  0.00  0.00    +0.000 A 
ATOM     23  C   UNL     1       4.790   6.815  16.648  0.00  0.00    +0.000 A 
ATOM     24  C   UNL     1       5.522   5.977  15.742  0.00  0.00    +0.000 A 
BRANCH  19  25
ATOM     25  O   UNL     1       5.976   3.713  14.880  0.00  0.00    +0.000 OA
BRANCH  25  27
ATOM     26  C   UNL     1       5.652   3.348  12.478  0.00  0.00    +0.000 C 
ATOM     27  C   UNL     1       6.569   3.845  13.599  0.00  0.00    +0.000 C 
ENDBRANCH  25  27
ENDBRANCH  19  25
ENDBRANCH   1  22
TORSDOF 4
ENDMDL
MODEL 6
REMARK VINA RESULT:      -7.2      1.990      2.811
REMARK  Name = 
REMARK  6 active torsions:
REMARK  status: ('A' for Active; 'I' for Inactive)
REMARK    1  A    between atoms: C_1  and  C_2
REMARK    2  A    between atoms: C_2  and  O_3
REMARK    3  A    between atoms: O_3  and  C_4
REMARK    4  A    between atoms: C_7  and  N_8
REMARK    5  A    between atoms: N_11  and  N_12
REMARK    6  A    between atoms: C_20  and  C_21
REMARK                            x       y       z     vdW  Elec       q    Type
REMARK                         _______ _______ _______ _____ _____    ______ ____
ROOT
ATOM      1  N   UNL     1       0.384  10.594  20.311  0.00  0.00    +0.000 N 
ATOM      2  C   UNL     1       0.662  10.148  18.977  0.00  0.00    +0.000 C 
ATOM      3  O   UNL     1      -0.199  10.230  18.094  0.00  0.00    +0.000 OA
ATOM      4  N   UNL     1       1.945   9.515  18.664  0.00  0.00    +0.000 N 
ATOM      5  H   UNL     1       1.163  10.428  20.945  0.00  0.00    +0.000 HD
ATOM      6  H   UNL     1       2.535   9.526  19.483  0.00  0.00    +0.000 HD
ENDROOT
BRANCH   4   7
ATOM      7  N   UNL     1       2.476   8.796  17.529  0.00  0.00    +0.000 NA
ATOM      8  C   UNL     1       3.181   7.621  17.753  0.00  0.00    +0.000 C 
ATOM      9  C   UNL     1       2.791   7.076  19.078  0.00  0.00    +0.000 C 
ATOM     10  C   UNL     1       2.332   5.658  18.883  0.00  0.00    +0.000 C 
ATOM     11 SE   UNL     1       3.839   4.794  19.544  0.00  0.00    +0.000 Se
ATOM     12  C   UNL     1       4.597   5.335  17.858  0.00  0.00    +0.000 A 
ATOM     13  C   UNL     1       5.472   4.315  17.561  0.00  0.00    +0.000 A 
ATOM     14  C   UNL     1       6.120   4.230  16.407  0.00  0.00    +0.000 A 
ATOM     15  C   UNL     1       5.944   5.192  15.435  0.00  0.00    +0.000 A 
ATOM     16  C   UNL     1       6.809   4.762  14.193  0.00  0.00    +0.000 C 
ATOM     17  C   UNL     1       5.045   6.365  15.710  0.00  0.00    +0.000 A 
ATOM     18  C   UNL     1       4.278   6.515  17.018  0.00  0.00    +0.000 A 
ENDBRANCH   4   7
BRANCH   1  22
ATOM     19  C   UNL     1      -3.080  12.586  22.385  0.00  0.00    +0.000 A 
ATOM     20  C   UNL     1      -2.153  11.797  23.109  0.00  0.00    +0.000 A 
ATOM     21  C   UNL     1      -1.028  11.133  22.497  0.00  0.00    +0.000 A 
ATOM     22  C   UNL     1      -0.765  11.221  21.094  0.00  0.00    +0.000 A 
ATOM     23  C   UNL     1      -1.757  12.008  20.382  0.00  0.00    +0.000 A 
ATOM     24  C   UNL     1      -2.866  12.676  21.002  0.00  0.00    +0.000 A 
BRANCH  19  25
ATOM     25  O   UNL     1      -4.116  13.194  23.061  0.00  0.00    +0.000 OA
BRANCH  25  27
ATOM     26  C   UNL     1      -2.998  15.304  23.613  0.00  0.00    +0.000 C 
ATOM     27  C   UNL     1      -4.287  14.478  23.636  0.00  0.00    +0.000 C 
ENDBRANCH  25  27
ENDBRANCH  19  25
ENDBRANCH   1  22
TORSDOF 4
ENDMDL
MODEL 7
REMARK VINA RESULT:      -7.1      2.960     10.565
REMARK  Name = 
REMARK  6 active torsions:
REMARK  status: ('A' for Active; 'I' for Inactive)
REMARK    1  A    between atoms: C_1  and  C_2
REMARK    2  A    between atoms: C_2  and  O_3
REMARK    3  A    between atoms: O_3  and  C_4
REMARK    4  A    between atoms: C_7  and  N_8
REMARK    5  A    between atoms: N_11  and  N_12
REMARK    6  A    between atoms: C_20  and  C_21
REMARK                            x       y       z     vdW  Elec       q    Type
REMARK                         _______ _______ _______ _____ _____    ______ ____
ROOT
ATOM      1  N   UNL     1       3.789   6.845  18.273  0.00  0.00    +0.000 N 
ATOM      2  C   UNL     1       2.603   6.796  19.078  0.00  0.00    +0.000 C 
ATOM      3  O   UNL     1       1.771   5.897  18.918  0.00  0.00    +0.000 OA
ATOM      4  N   UNL     1       2.324   7.860  20.044  0.00  0.00    +0.000 N 
ATOM      5  H   UNL     1       4.363   7.660  18.478  0.00  0.00    +0.000 HD
ATOM      6  H   UNL     1       3.094   8.514  20.058  0.00  0.00    +0.000 HD
ENDROOT
BRANCH   4   7
ATOM      7  N   UNL     1       1.183   8.232  20.850  0.00  0.00    +0.000 NA
ATOM      8  C   UNL     1       0.584   9.466  20.630  0.00  0.00    +0.000 C 
ATOM      9  C   UNL     1       0.920   9.922  19.258  0.00  0.00    +0.000 C 
ATOM     10  C   UNL     1      -0.364  10.223  18.538  0.00  0.00    +0.000 C 
ATOM     11 SE   UNL     1      -0.290  12.078  18.621  0.00  0.00    +0.000 Se
ATOM     12  C   UNL     1      -0.779  11.780  20.459  0.00  0.00    +0.000 A 
ATOM     13  C   UNL     1      -1.551  12.876  20.765  0.00  0.00    +0.000 A 
ATOM     14  C   UNL     1      -2.203  13.006  21.914  0.00  0.00    +0.000 A 
ATOM     15  C   UNL     1      -2.121  12.022  22.877  0.00  0.00    +0.000 A 
ATOM     16  C   UNL     1      -3.042  12.466  24.073  0.00  0.00    +0.000 C 
ATOM     17  C   UNL     1      -1.252  10.821  22.635  0.00  0.00    +0.000 A 
ATOM     18  C   UNL     1      -0.481  10.620  21.335  0.00  0.00    +0.000 A 
ENDBRANCH   4   7
BRANCH   1  22
ATOM     19  C   UNL     1       5.706   4.258  15.127  0.00  0.00    +0.000 A 
ATOM     20  C   UNL     1       5.653   5.665  14.980  0.00  0.00    +0.000 A 
ATOM     21  C   UNL     1       5.049   6.543  15.954  0.00  0.00    +0.000 A 
ATOM     22  C   UNL     1       4.446   6.047  17.152  0.00  0.00    +0.000 A 
ATOM     23  C   UNL     1       4.489   4.598  17.248  0.00  0.00    +0.000 A 
ATOM     24  C   UNL     1       5.104   3.735  16.281  0.00  0.00    +0.000 A 
BRANCH  19  25
ATOM     25  O   UNL     1       6.318   3.504  14.149  0.00  0.00    +0.000 OA
BRANCH  25  27
ATOM     26  C   UNL     1       5.027   3.370  12.069  0.00  0.00    +0.000 C 
ATOM     27  C   UNL     1       6.385   3.606  12.736  0.00  0.00    +0.000 C 
ENDBRANCH  25  27
ENDBRANCH  19  25
ENDBRANCH   1  22
TORSDOF 4
ENDMDL
MODEL 8
REMARK VINA RESULT:      -7.1      1.839      2.339
REMARK  Name = 
REMARK  6 active torsions:
REMARK  status: ('A' for Active; 'I' for Inactive)
REMARK    1  A    between atoms: C_1  and  C_2
REMARK    2  A    between atoms: C_2  and  O_3
REMARK    3  A    between atoms: O_3  and  C_4
REMARK    4  A    between atoms: C_7  and  N_8
REMARK    5  A    between atoms: N_11  and  N_12
REMARK    6  A    between atoms: C_20  and  C_21
REMARK                            x       y       z     vdW  Elec       q    Type
REMARK                         _______ _______ _______ _____ _____    ______ ____
ROOT
ATOM      1  N   UNL     1       0.711   9.861  20.599  0.00  0.00    +0.000 N 
ATOM      2  C   UNL     1       1.117   9.696  19.233  0.00  0.00    +0.000 C 
ATOM      3  O   UNL     1       0.551  10.321  18.330  0.00  0.00    +0.000 OA
ATOM      4  N   UNL     1       2.153   8.722  18.885  0.00  0.00    +0.000 N 
ATOM      5  H   UNL     1       1.229   9.255  21.233  0.00  0.00    +0.000 HD
ATOM      6  H   UNL     1       2.515   8.298  19.727  0.00  0.00    +0.000 HD
ENDROOT
BRANCH   4   7
ATOM      7  N   UNL     1       2.655   8.167  17.649  0.00  0.00    +0.000 NA
ATOM      8  C   UNL     1       3.445   7.025  17.702  0.00  0.00    +0.000 C 
ATOM      9  C   UNL     1       3.173   6.316  18.978  0.00  0.00    +0.000 C 
ATOM     10  C   UNL     1       2.792   4.899  18.653  0.00  0.00    +0.000 C 
ATOM     11 SE   UNL     1       4.388   4.075  19.128  0.00  0.00    +0.000 Se
ATOM     12  C   UNL     1       5.003   4.843  17.474  0.00  0.00    +0.000 A 
ATOM     13  C   UNL     1       5.920   3.924  17.017  0.00  0.00    +0.000 A 
ATOM     14  C   UNL     1       6.497   4.007  15.826  0.00  0.00    +0.000 A 
ATOM     15  C   UNL     1       6.201   5.054  14.978  0.00  0.00    +0.000 A 
ATOM     16  C   UNL     1       7.012   4.819  13.651  0.00  0.00    +0.000 C 
ATOM     17  C   UNL     1       5.251   6.127  15.432  0.00  0.00    +0.000 A 
ATOM     18  C   UNL     1       4.559   6.082  16.789  0.00  0.00    +0.000 A 
ENDBRANCH   4   7
BRANCH   1  22
ATOM     19  C   UNL     1      -2.294  12.417  22.768  0.00  0.00    +0.000 A 
ATOM     20  C   UNL     1      -1.753  11.257  23.372  0.00  0.00    +0.000 A 
ATOM     21  C   UNL     1      -0.790  10.399  22.725  0.00  0.00    +0.000 A 
ATOM     22  C   UNL     1      -0.310  10.659  21.403  0.00  0.00    +0.000 A 
ATOM     23  C   UNL     1      -0.915  11.837  20.804  0.00  0.00    +0.000 A 
ATOM     24  C   UNL     1      -1.861  12.691  21.462  0.00  0.00    +0.000 A 
BRANCH  19  25
ATOM     25  O   UNL     1      -3.198  13.182  23.473  0.00  0.00    +0.000 OA
BRANCH  25  27
ATOM     26  C   UNL     1      -5.633  12.938  23.613  0.00  0.00    +0.000 C 
ATOM     27  C   UNL     1      -4.283  12.869  24.331  0.00  0.00    +0.000 C 
ENDBRANCH  25  27
ENDBRANCH  19  25
ENDBRANCH   1  22
TORSDOF 4
ENDMDL
MODEL 9
REMARK VINA RESULT:      -7.0      2.038      2.847
REMARK  Name = 
REMARK  6 active torsions:
REMARK  status: ('A' for Active; 'I' for Inactive)
REMARK    1  A    between atoms: C_1  and  C_2
REMARK    2  A    between atoms: C_2  and  O_3
REMARK    3  A    between atoms: O_3  and  C_4
REMARK    4  A    between atoms: C_7  and  N_8
REMARK    5  A    between atoms: N_11  and  N_12
REMARK    6  A    between atoms: C_20  and  C_21
REMARK                            x       y       z     vdW  Elec       q    Type
REMARK                         _______ _______ _______ _____ _____    ______ ____
ROOT
ATOM      1  N   UNL     1       0.405  10.546  20.773  0.00  0.00    +0.000 N 
ATOM      2  C   UNL     1       1.223  10.359  19.610  0.00  0.00    +0.000 C 
ATOM      3  O   UNL     1       1.582  11.327  18.932  0.00  0.00    +0.000 OA
ATOM      4  N   UNL     1       1.574   9.009  19.165  0.00  0.00    +0.000 N 
ATOM      5  H   UNL     1       0.146   9.663  21.210  0.00  0.00    +0.000 HD
ATOM      6  H   UNL     1       1.211   8.332  19.821  0.00  0.00    +0.000 HD
ENDROOT
BRANCH   4   7
ATOM      7  N   UNL     1       2.186   8.453  17.980  0.00  0.00    +0.000 NA
ATOM      8  C   UNL     1       2.946   7.297  18.100  0.00  0.00    +0.000 C 
ATOM      9  C   UNL     1       2.536   6.583  19.336  0.00  0.00    +0.000 C 
ATOM     10  C   UNL     1       2.162   5.176  18.961  0.00  0.00    +0.000 C 
ATOM     11 SE   UNL     1       3.688   4.318  19.585  0.00  0.00    +0.000 Se
ATOM     12  C   UNL     1       4.479   5.087  18.007  0.00  0.00    +0.000 A 
ATOM     13  C   UNL     1       5.419   4.154  17.635  0.00  0.00    +0.000 A 
ATOM     14  C   UNL     1       6.113   4.235  16.507  0.00  0.00    +0.000 A 
ATOM     15  C   UNL     1       5.922   5.294  15.645  0.00  0.00    +0.000 A 
ATOM     16  C   UNL     1       6.856   5.053  14.402  0.00  0.00    +0.000 C 
ATOM     17  C   UNL     1       4.951   6.381  16.012  0.00  0.00    +0.000 A 
ATOM     18  C   UNL     1       4.128   6.339  17.293  0.00  0.00    +0.000 A 
ENDBRANCH   4   7
BRANCH   1  22
ATOM     19  C   UNL     1      -1.692  13.736  23.159  0.00  0.00    +0.000 A 
ATOM     20  C   UNL     1      -0.641  14.064  22.269  0.00  0.00    +0.000 A 
ATOM     21  C   UNL     1       0.068  13.084  21.482  0.00  0.00    +0.000 A 
ATOM     22  C   UNL     1      -0.240  11.689  21.549  0.00  0.00    +0.000 A 
ATOM     23  C   UNL     1      -1.298  11.390  22.499  0.00  0.00    +0.000 A 
ATOM     24  C   UNL     1      -2.006  12.373  23.267  0.00  0.00    +0.000 A 
BRANCH  19  25
ATOM     25  O   UNL     1      -2.320  14.745  23.858  0.00  0.00    +0.000 OA
BRANCH  25  27
ATOM     26  C   UNL     1      -1.453  15.584  25.992  0.00  0.00    +0.000 C 
ATOM     27  C   UNL     1      -2.617  14.944  25.230  0.00  0.00    +0.000 C 
ENDBRANCH  25  27
ENDBRANCH  19  25
ENDBRANCH   1  22
TORSDOF 4
ENDMDL
