MODEL 1
REMARK VINA RESULT:      -6.9      0.000      0.000
REMARK  Name = 
REMARK  5 active torsions:
REMARK  status: ('A' for Active; 'I' for Inactive)
REMARK    1  A    between atoms: C_2  and  C_8
REMARK    2  A    between atoms: N_3  and  C_4
REMARK    3  A    between atoms: C_4  and  C_5
REMARK    4  A    between atoms: N_13  and  C_14
REMARK    5  A    between atoms: C_14  and  C_15
REMARK                            x       y       z     vdW  Elec       q    Type
REMARK                         _______ _______ _______ _____ _____    ______ ____
ROOT
ATOM      1  C   UNL     1       5.263   4.310  19.455  0.00  0.00    +0.000 C 
ATOM      2  C   UNL     1       4.748   5.654  18.920  0.00  0.00    +0.000 C 
ATOM      3  C   UNL     1       5.382   5.723  17.556  0.00  0.00    +0.000 C 
ATOM      4  C   UNL     1       4.672   6.482  16.457  0.00  0.00    +0.000 C 
ATOM      5  C   UNL     1       5.478   6.328  15.155  0.00  0.00    +0.000 C 
ATOM      6  N   UNL     1       5.784   4.926  14.788  0.00  0.00    +0.000 NA
ATOM      7  C   UNL     1       6.328   4.133  15.921  0.00  0.00    +0.000 C 
ATOM      8  C   UNL     1       5.438   4.265  17.160  0.00  0.00    +0.000 C 
ATOM      9  O   UNL     1       5.896   3.611  18.349  0.00  0.00    +0.000 OA
ENDROOT
BRANCH   1  11
ATOM     10  O   UNL     1       4.206   2.314  20.376  0.00  0.00    +0.000 OA
ATOM     11  C   UNL     1       4.117   3.506  20.095  0.00  0.00    +0.000 C 
ATOM     12  N   UNL     1       2.965   4.235  20.272  0.00  0.00    +0.000 N 
ATOM     13  H   UNL     1       3.028   5.238  20.125  0.00  0.00    +0.000 HD
BRANCH  12  14
ATOM     14  C   UNL     1       1.808   3.661  20.909  0.00  0.00    +0.000 C 
BRANCH  14  15
ATOM     15  C   UNL     1       0.744   3.429  19.888  0.00  0.00    +0.000 C 
ATOM     16  C   UNL     1       1.047   3.599  18.421  0.00  0.00    +0.000 C 
ATOM     17  C   UNL     1       0.790   2.227  18.978  0.00  0.00    +0.000 C 
ENDBRANCH  14  15
ENDBRANCH  12  14
ENDBRANCH   1  11
BRANCH   6  18
ATOM     18  C   UNL     1       6.738   4.874  13.658  0.00  0.00    +0.000 C 
BRANCH  18  19
ATOM     19  C   UNL     1       6.478   3.765  12.656  0.00  0.00    +0.000 A 
ATOM     20  C   UNL     1       7.551   3.099  12.041  0.00  0.00    +0.000 A 
ATOM     21  C   UNL     1       7.318   2.047  11.147  0.00  0.00    +0.000 A 
ATOM     22  C   UNL     1       6.016   1.647  10.871  0.00  0.00    +0.000 A 
ATOM     23  C   UNL     1       4.942   2.312  11.462  0.00  0.00    +0.000 A 
ATOM     24  C   UNL     1       5.171   3.365  12.352  0.00  0.00    +0.000 A 
ENDBRANCH  18  19
ENDBRANCH   6  18
TORSDOF 5
ENDMDL
MODEL 2
REMARK VINA RESULT:      -6.9      3.261      8.196
REMARK  Name = 
REMARK  5 active torsions:
REMARK  status: ('A' for Active; 'I' for Inactive)
REMARK    1  A    between atoms: C_2  and  C_8
REMARK    2  A    between atoms: N_3  and  C_4
REMARK    3  A    between atoms: C_4  and  C_5
REMARK    4  A    between atoms: N_13  and  C_14
REMARK    5  A    between atoms: C_14  and  C_15
REMARK                            x       y       z     vdW  Elec       q    Type
REMARK                         _______ _______ _______ _____ _____    ______ ____
ROOT
ATOM      1  C   UNL     1       5.933   3.919  17.689  0.00  0.00    +0.000 C 
ATOM      2  C   UNL     1       4.571   3.272  17.402  0.00  0.00    +0.000 C 
ATOM      3  C   UNL     1       3.673   3.951  18.401  0.00  0.00    +0.000 C 
ATOM      4  C   UNL     1       2.209   4.133  18.065  0.00  0.00    +0.000 C 
ATOM      5  C   UNL     1       1.539   4.923  19.203  0.00  0.00    +0.000 C 
ATOM      6  N   UNL     1       2.216   6.194  19.547  0.00  0.00    +0.000 NA
ATOM      7  C   UNL     1       3.686   6.043  19.712  0.00  0.00    +0.000 C 
ATOM      8  C   UNL     1       4.302   5.322  18.511  0.00  0.00    +0.000 C 
ATOM      9  O   UNL     1       5.705   5.043  18.584  0.00  0.00    +0.000 OA
ENDROOT
BRANCH   1  11
ATOM     10  O   UNL     1       7.821   4.605  16.304  0.00  0.00    +0.000 OA
ATOM     11  C   UNL     1       6.626   4.331  16.378  0.00  0.00    +0.000 C 
ATOM     12  N   UNL     1       5.769   4.414  15.305  0.00  0.00    +0.000 N 
ATOM     13  H   UNL     1       4.831   4.050  15.437  0.00  0.00    +0.000 HD
BRANCH  12  14
ATOM     14  C   UNL     1       6.252   4.730  13.986  0.00  0.00    +0.000 C 
BRANCH  14  15
ATOM     15  C   UNL     1       6.254   3.495  13.149  0.00  0.00    +0.000 C 
ATOM     16  C   UNL     1       5.302   3.363  11.986  0.00  0.00    +0.000 C 
ATOM     17  C   UNL     1       6.776   3.516  11.734  0.00  0.00    +0.000 C 
ENDBRANCH  14  15
ENDBRANCH  12  14
ENDBRANCH   1  11
BRANCH   6  18
ATOM     18  C   UNL     1       1.647   6.778  20.781  0.00  0.00    +0.000 C 
BRANCH  18  19
ATOM     19  C   UNL     1       1.149   8.204  20.640  0.00  0.00    +0.000 A 
ATOM     20  C   UNL     1       1.371   8.918  19.450  0.00  0.00    +0.000 A 
ATOM     21  C   UNL     1       0.878  10.219  19.298  0.00  0.00    +0.000 A 
ATOM     22  C   UNL     1       0.153  10.810  20.326  0.00  0.00    +0.000 A 
ATOM     23  C   UNL     1      -0.059  10.118  21.518  0.00  0.00    +0.000 A 
ATOM     24  C   UNL     1       0.435   8.820  21.674  0.00  0.00    +0.000 A 
ENDBRANCH  18  19
ENDBRANCH   6  18
TORSDOF 5
ENDMDL
MODEL 3
REMARK VINA RESULT:      -6.8      3.134      7.978
REMARK  Name = 
REMARK  5 active torsions:
REMARK  status: ('A' for Active; 'I' for Inactive)
REMARK    1  A    between atoms: C_2  and  C_8
REMARK    2  A    between atoms: N_3  and  C_4
REMARK    3  A    between atoms: C_4  and  C_5
REMARK    4  A    between atoms: N_13  and  C_14
REMARK    5  A    between atoms: C_14  and  C_15
REMARK                            x       y       z     vdW  Elec       q    Type
REMARK                         _______ _______ _______ _____ _____    ______ ____
ROOT
ATOM      1  C   UNL     1       6.657   4.461  16.306  0.00  0.00    +0.000 C 
ATOM      2  C   UNL     1       5.571   3.408  16.568  0.00  0.00    +0.000 C 
ATOM      3  C   UNL     1       4.707   4.083  17.599  0.00  0.00    +0.000 C 
ATOM      4  C   UNL     1       3.234   3.743  17.656  0.00  0.00    +0.000 C 
ATOM      5  C   UNL     1       2.568   4.624  18.728  0.00  0.00    +0.000 C 
ATOM      6  N   UNL     1       2.822   6.074  18.571  0.00  0.00    +0.000 NA
ATOM      7  C   UNL     1       4.257   6.393  18.346  0.00  0.00    +0.000 C 
ATOM      8  C   UNL     1       4.837   5.540  17.215  0.00  0.00    +0.000 C 
ATOM      9  O   UNL     1       6.236   5.695  16.952  0.00  0.00    +0.000 OA
ENDROOT
BRANCH   1  11
ATOM     10  O   UNL     1       7.549   5.553  14.316  0.00  0.00    +0.000 OA
ATOM     11  C   UNL     1       6.898   4.629  14.795  0.00  0.00    +0.000 C 
ATOM     12  N   UNL     1       6.271   3.675  14.029  0.00  0.00    +0.000 N 
ATOM     13  H   UNL     1       5.862   2.886  14.519  0.00  0.00    +0.000 HD
BRANCH  12  14
ATOM     14  C   UNL     1       6.431   3.642  12.598  0.00  0.00    +0.000 C 
BRANCH  14  15
ATOM     15  C   UNL     1       6.441   2.224  12.132  0.00  0.00    +0.000 C 
ATOM     16  C   UNL     1       5.599   1.805  10.953  0.00  0.00    +0.000 C 
ATOM     17  C   UNL     1       7.096   1.840  10.829  0.00  0.00    +0.000 C 
ENDBRANCH  14  15
ENDBRANCH  12  14
ENDBRANCH   1  11
BRANCH   6  18
ATOM     18  C   UNL     1       2.338   6.825  19.751  0.00  0.00    +0.000 C 
BRANCH  18  19
ATOM     19  C   UNL     1       1.733   8.180  19.439  0.00  0.00    +0.000 A 
ATOM     20  C   UNL     1       1.747   8.678  18.125  0.00  0.00    +0.000 A 
ATOM     21  C   UNL     1       1.153   9.909  17.823  0.00  0.00    +0.000 A 
ATOM     22  C   UNL     1       0.532  10.643  18.826  0.00  0.00    +0.000 A 
ATOM     23  C   UNL     1       0.525  10.167  20.138  0.00  0.00    +0.000 A 
ATOM     24  C   UNL     1       1.121   8.940  20.442  0.00  0.00    +0.000 A 
ENDBRANCH  18  19
ENDBRANCH   6  18
TORSDOF 5
ENDMDL
MODEL 4
REMARK VINA RESULT:      -6.8      6.499      8.523
REMARK  Name = 
REMARK  5 active torsions:
REMARK  status: ('A' for Active; 'I' for Inactive)
REMARK    1  A    between atoms: C_2  and  C_8
REMARK    2  A    between atoms: N_3  and  C_4
REMARK    3  A    between atoms: C_4  and  C_5
REMARK    4  A    between atoms: N_13  and  C_14
REMARK    5  A    between atoms: C_14  and  C_15
REMARK                            x       y       z     vdW  Elec       q    Type
REMARK                         _______ _______ _______ _____ _____    ______ ____
ROOT
ATOM      1  C   UNL     1       0.101  11.625  20.656  0.00  0.00    +0.000 C 
ATOM      2  C   UNL     1       0.634  11.640  19.216  0.00  0.00    +0.000 C 
ATOM      3  C   UNL     1       1.445  10.373  19.158  0.00  0.00    +0.000 C 
ATOM      4  C   UNL     1       1.589   9.656  17.834  0.00  0.00    +0.000 C 
ATOM      5  C   UNL     1       2.383   8.358  18.062  0.00  0.00    +0.000 C 
ATOM      6  N   UNL     1       1.843   7.491  19.134  0.00  0.00    +0.000 NA
ATOM      7  C   UNL     1       1.542   8.233  20.387  0.00  0.00    +0.000 C 
ATOM      8  C   UNL     1       0.683   9.468  20.100  0.00  0.00    +0.000 C 
ATOM      9  O   UNL     1       0.391  10.315  21.217  0.00  0.00    +0.000 OA
ENDROOT
BRANCH   1  11
ATOM     10  O   UNL     1      -2.005  12.259  21.710  0.00  0.00    +0.000 OA
ATOM     11  C   UNL     1      -1.399  11.969  20.683  0.00  0.00    +0.000 C 
ATOM     12  N   UNL     1      -2.008  11.870  19.454  0.00  0.00    +0.000 N 
ATOM     13  H   UNL     1      -1.403  11.746  18.649  0.00  0.00    +0.000 HD
BRANCH  12  14
ATOM     14  C   UNL     1      -3.397  12.210  19.279  0.00  0.00    +0.000 C 
BRANCH  14  15
ATOM     15  C   UNL     1      -3.895  11.619  18.003  0.00  0.00    +0.000 C 
ATOM     16  C   UNL     1      -3.659  10.162  17.695  0.00  0.00    +0.000 C 
ATOM     17  C   UNL     1      -5.049  10.648  17.995  0.00  0.00    +0.000 C 
ENDBRANCH  14  15
ENDBRANCH  12  14
ENDBRANCH   1  11
BRANCH   6  18
ATOM     18  C   UNL     1       2.776   6.384  19.438  0.00  0.00    +0.000 C 
BRANCH  18  19
ATOM     19  C   UNL     1       2.188   4.995  19.286  0.00  0.00    +0.000 A 
ATOM     20  C   UNL     1       2.370   4.275  18.093  0.00  0.00    +0.000 A 
ATOM     21  C   UNL     1       1.866   2.975  17.961  0.00  0.00    +0.000 A 
ATOM     22  C   UNL     1       1.188   2.384  19.020  0.00  0.00    +0.000 A 
ATOM     23  C   UNL     1       0.987   3.094  20.203  0.00  0.00    +0.000 A 
ATOM     24  C   UNL     1       1.486   4.393  20.336  0.00  0.00    +0.000 A 
ENDBRANCH  18  19
ENDBRANCH   6  18
TORSDOF 5
ENDMDL
MODEL 5
REMARK VINA RESULT:      -6.8      3.849      7.801
REMARK  Name = 
REMARK  5 active torsions:
REMARK  status: ('A' for Active; 'I' for Inactive)
REMARK    1  A    between atoms: C_2  and  C_8
REMARK    2  A    between atoms: N_3  and  C_4
REMARK    3  A    between atoms: C_4  and  C_5
REMARK    4  A    between atoms: N_13  and  C_14
REMARK    5  A    between atoms: C_14  and  C_15
REMARK                            x       y       z     vdW  Elec       q    Type
REMARK                         _______ _______ _______ _____ _____    ______ ____
ROOT
ATOM      1  C   UNL     1       7.725   6.573  18.053  0.00  0.00    +0.000 C 
ATOM      2  C   UNL     1       7.728   5.924  16.662  0.00  0.00    +0.000 C 
ATOM      3  C   UNL     1       6.634   4.897  16.781  0.00  0.00    +0.000 C 
ATOM      4  C   UNL     1       5.856   4.508  15.543  0.00  0.00    +0.000 C 
ATOM      5  C   UNL     1       4.751   3.517  15.949  0.00  0.00    +0.000 C 
ATOM      6  N   UNL     1       3.884   3.987  17.054  0.00  0.00    +0.000 NA
ATOM      7  C   UNL     1       4.652   4.527  18.207  0.00  0.00    +0.000 C 
ATOM      8  C   UNL     1       5.678   5.565  17.744  0.00  0.00    +0.000 C 
ATOM      9  O   UNL     1       6.540   6.104  18.753  0.00  0.00    +0.000 OA
ENDROOT
BRANCH   1  11
ATOM     10  O   UNL     1       7.079   8.751  17.166  0.00  0.00    +0.000 OA
ATOM     11  C   UNL     1       7.784   8.107  17.937  0.00  0.00    +0.000 C 
ATOM     12  N   UNL     1       8.739   8.683  18.742  0.00  0.00    +0.000 N 
ATOM     13  H   UNL     1       9.184   8.083  19.430  0.00  0.00    +0.000 HD
BRANCH  12  14
ATOM     14  C   UNL     1       8.898  10.113  18.806  0.00  0.00    +0.000 C 
BRANCH  14  15
ATOM     15  C   UNL     1       9.737  10.466  19.988  0.00  0.00    +0.000 C 
ATOM     16  C   UNL     1      10.754  11.576  19.896  0.00  0.00    +0.000 C 
ATOM     17  C   UNL     1       9.522  11.758  20.736  0.00  0.00    +0.000 C 
ENDBRANCH  14  15
ENDBRANCH  12  14
ENDBRANCH   1  11
BRANCH   6  18
ATOM     18  C   UNL     1       2.998   2.901  17.527  0.00  0.00    +0.000 C 
BRANCH  18  19
ATOM     19  C   UNL     1       2.490   3.067  18.946  0.00  0.00    +0.000 A 
ATOM     20  C   UNL     1       1.352   3.850  19.206  0.00  0.00    +0.000 A 
ATOM     21  C   UNL     1       0.853   3.972  20.508  0.00  0.00    +0.000 A 
ATOM     22  C   UNL     1       1.479   3.307  21.555  0.00  0.00    +0.000 A 
ATOM     23  C   UNL     1       2.619   2.540  21.313  0.00  0.00    +0.000 A 
ATOM     24  C   UNL     1       3.121   2.419  20.014  0.00  0.00    +0.000 A 
ENDBRANCH  18  19
ENDBRANCH   6  18
TORSDOF 5
ENDMDL
MODEL 6
REMARK VINA RESULT:      -6.8      4.235      8.048
REMARK  Name = 
REMARK  5 active torsions:
REMARK  status: ('A' for Active; 'I' for Inactive)
REMARK    1  A    between atoms: C_2  and  C_8
REMARK    2  A    between atoms: N_3  and  C_4
REMARK    3  A    between atoms: C_4  and  C_5
REMARK    4  A    between atoms: N_13  and  C_14
REMARK    5  A    between atoms: C_14  and  C_15
REMARK                            x       y       z     vdW  Elec       q    Type
REMARK                         _______ _______ _______ _____ _____    ______ ____
ROOT
ATOM      1  C   UNL     1       8.234   7.331  17.768  0.00  0.00    +0.000 C 
ATOM      2  C   UNL     1       7.526   7.157  16.416  0.00  0.00    +0.000 C 
ATOM      3  C   UNL     1       6.695   5.923  16.643  0.00  0.00    +0.000 C 
ATOM      4  C   UNL     1       5.397   5.765  15.883  0.00  0.00    +0.000 C 
ATOM      5  C   UNL     1       4.704   4.475  16.356  0.00  0.00    +0.000 C 
ATOM      6  N   UNL     1       4.532   4.376  17.824  0.00  0.00    +0.000 NA
ATOM      7  C   UNL     1       5.773   4.697  18.578  0.00  0.00    +0.000 C 
ATOM      8  C   UNL     1       6.366   6.030  18.115  0.00  0.00    +0.000 C 
ATOM      9  O   UNL     1       7.611   6.416  18.710  0.00  0.00    +0.000 OA
ENDROOT
BRANCH   1  11
ATOM     10  O   UNL     1       7.394   9.622  17.751  0.00  0.00    +0.000 OA
ATOM     11  C   UNL     1       8.170   8.799  18.228  0.00  0.00    +0.000 C 
ATOM     12  N   UNL     1       9.102   9.114  19.189  0.00  0.00    +0.000 N 
ATOM     13  H   UNL     1       9.613   8.342  19.607  0.00  0.00    +0.000 HD
BRANCH  12  14
ATOM     14  C   UNL     1       9.152  10.427  19.779  0.00  0.00    +0.000 C 
BRANCH  14  15
ATOM     15  C   UNL     1      10.372  11.141  19.299  0.00  0.00    +0.000 C 
ATOM     16  C   UNL     1      10.311  12.610  18.965  0.00  0.00    +0.000 C 
ATOM     17  C   UNL     1      11.077  12.148  20.173  0.00  0.00    +0.000 C 
ENDBRANCH  14  15
ENDBRANCH  12  14
ENDBRANCH   1  11
BRANCH   6  18
ATOM     18  C   UNL     1       4.066   3.026  18.210  0.00  0.00    +0.000 C 
BRANCH  18  19
ATOM     19  C   UNL     1       3.034   3.003  19.321  0.00  0.00    +0.000 A 
ATOM     20  C   UNL     1       3.404   2.633  20.625  0.00  0.00    +0.000 A 
ATOM     21  C   UNL     1       2.466   2.650  21.664  0.00  0.00    +0.000 A 
ATOM     22  C   UNL     1       1.159   3.047  21.411  0.00  0.00    +0.000 A 
ATOM     23  C   UNL     1       0.775   3.401  20.117  0.00  0.00    +0.000 A 
ATOM     24  C   UNL     1       1.708   3.381  19.077  0.00  0.00    +0.000 A 
ENDBRANCH  18  19
ENDBRANCH   6  18
TORSDOF 5
ENDMDL
MODEL 7
REMARK VINA RESULT:      -6.8      5.127      8.807
REMARK  Name = 
REMARK  5 active torsions:
REMARK  status: ('A' for Active; 'I' for Inactive)
REMARK    1  A    between atoms: C_2  and  C_8
REMARK    2  A    between atoms: N_3  and  C_4
REMARK    3  A    between atoms: C_4  and  C_5
REMARK    4  A    between atoms: N_13  and  C_14
REMARK    5  A    between atoms: C_14  and  C_15
REMARK                            x       y       z     vdW  Elec       q    Type
REMARK                         _______ _______ _______ _____ _____    ______ ____
ROOT
ATOM      1  C   UNL     1       3.387   4.846  18.915  0.00  0.00    +0.000 C 
ATOM      2  C   UNL     1       3.322   5.863  17.767  0.00  0.00    +0.000 C 
ATOM      3  C   UNL     1       2.332   6.872  18.283  0.00  0.00    +0.000 C 
ATOM      4  C   UNL     1       2.451   8.311  17.833  0.00  0.00    +0.000 C 
ATOM      5  C   UNL     1       1.384   9.144  18.565  0.00  0.00    +0.000 C 
ATOM      6  N   UNL     1       1.396   8.995  20.038  0.00  0.00    +0.000 NA
ATOM      7  C   UNL     1       1.449   7.576  20.479  0.00  0.00    +0.000 C 
ATOM      8  C   UNL     1       2.581   6.825  19.774  0.00  0.00    +0.000 C 
ATOM      9  O   UNL     1       2.688   5.424  20.053  0.00  0.00    +0.000 OA
ENDROOT
BRANCH   1  11
ATOM     10  O   UNL     1       5.213   3.334  19.487  0.00  0.00    +0.000 OA
ATOM     11  C   UNL     1       4.847   4.478  19.234  0.00  0.00    +0.000 C 
ATOM     12  N   UNL     1       5.693   5.561  19.262  0.00  0.00    +0.000 N 
ATOM     13  H   UNL     1       5.324   6.443  18.920  0.00  0.00    +0.000 HD
BRANCH  12  14
ATOM     14  C   UNL     1       7.107   5.399  19.488  0.00  0.00    +0.000 C 
BRANCH  14  15
ATOM     15  C   UNL     1       7.864   6.047  18.377  0.00  0.00    +0.000 C 
ATOM     16  C   UNL     1       7.174   7.012  17.447  0.00  0.00    +0.000 C 
ATOM     17  C   UNL     1       8.201   7.516  18.420  0.00  0.00    +0.000 C 
ENDBRANCH  14  15
ENDBRANCH  12  14
ENDBRANCH   1  11
BRANCH   6  18
ATOM     18  C   UNL     1       0.214   9.647  20.643  0.00  0.00    +0.000 C 
BRANCH  18  19
ATOM     19  C   UNL     1      -0.082  11.040  20.121  0.00  0.00    +0.000 A 
ATOM     20  C   UNL     1       0.759  12.116  20.453  0.00  0.00    +0.000 A 
ATOM     21  C   UNL     1       0.515  13.395  19.941  0.00  0.00    +0.000 A 
ATOM     22  C   UNL     1      -0.560  13.606  19.086  0.00  0.00    +0.000 A 
ATOM     23  C   UNL     1      -1.412  12.550  18.762  0.00  0.00    +0.000 A 
ATOM     24  C   UNL     1      -1.173  11.272  19.275  0.00  0.00    +0.000 A 
ENDBRANCH  18  19
ENDBRANCH   6  18
TORSDOF 5
ENDMDL
MODEL 8
REMARK VINA RESULT:      -6.8      7.089      9.078
REMARK  Name = 
REMARK  5 active torsions:
REMARK  status: ('A' for Active; 'I' for Inactive)
REMARK    1  A    between atoms: C_2  and  C_8
REMARK    2  A    between atoms: N_3  and  C_4
REMARK    3  A    between atoms: C_4  and  C_5
REMARK    4  A    between atoms: N_13  and  C_14
REMARK    5  A    between atoms: C_14  and  C_15
REMARK                            x       y       z     vdW  Elec       q    Type
REMARK                         _______ _______ _______ _____ _____    ______ ____
ROOT
ATOM      1  C   UNL     1       0.086  11.745  20.600  0.00  0.00    +0.000 C 
ATOM      2  C   UNL     1       0.571  11.707  19.144  0.00  0.00    +0.000 C 
ATOM      3  C   UNL     1       1.387  10.443  19.106  0.00  0.00    +0.000 C 
ATOM      4  C   UNL     1       1.492   9.678  17.806  0.00  0.00    +0.000 C 
ATOM      5  C   UNL     1       2.302   8.393  18.056  0.00  0.00    +0.000 C 
ATOM      6  N   UNL     1       1.802   7.565  19.177  0.00  0.00    +0.000 NA
ATOM      7  C   UNL     1       1.539   8.352  20.410  0.00  0.00    +0.000 C 
ATOM      8  C   UNL     1       0.663   9.571  20.106  0.00  0.00    +0.000 C 
ATOM      9  O   UNL     1       0.402  10.458  21.200  0.00  0.00    +0.000 OA
ENDROOT
BRANCH   1  11
ATOM     10  O   UNL     1      -2.163  12.013  19.693  0.00  0.00    +0.000 OA
ATOM     11  C   UNL     1      -1.415  12.082  20.664  0.00  0.00    +0.000 C 
ATOM     12  N   UNL     1      -1.827  12.519  21.901  0.00  0.00    +0.000 N 
ATOM     13  H   UNL     1      -1.168  12.424  22.666  0.00  0.00    +0.000 HD
BRANCH  12  14
ATOM     14  C   UNL     1      -3.210  12.826  22.161  0.00  0.00    +0.000 C 
BRANCH  14  15
ATOM     15  C   UNL     1      -3.533  12.496  23.581  0.00  0.00    +0.000 C 
ATOM     16  C   UNL     1      -3.690  13.596  24.600  0.00  0.00    +0.000 C 
ATOM     17  C   UNL     1      -4.890  12.806  24.161  0.00  0.00    +0.000 C 
ENDBRANCH  14  15
ENDBRANCH  12  14
ENDBRANCH   1  11
BRANCH   6  18
ATOM     18  C   UNL     1       2.752   6.475  19.491  0.00  0.00    +0.000 C 
BRANCH  18  19
ATOM     19  C   UNL     1       2.174   5.077  19.388  0.00  0.00    +0.000 A 
ATOM     20  C   UNL     1       2.315   4.337  18.202  0.00  0.00    +0.000 A 
ATOM     21  C   UNL     1       1.820   3.030  18.114  0.00  0.00    +0.000 A 
ATOM     22  C   UNL     1       1.194   2.451  19.211  0.00  0.00    +0.000 A 
ATOM     23  C   UNL     1       1.033   3.181  20.389  0.00  0.00    +0.000 A 
ATOM     24  C   UNL     1       1.522   4.488  20.478  0.00  0.00    +0.000 A 
ENDBRANCH  18  19
ENDBRANCH   6  18
TORSDOF 5
ENDMDL
MODEL 9
REMARK VINA RESULT:      -6.8      5.233      9.024
REMARK  Name = 
REMARK  5 active torsions:
REMARK  status: ('A' for Active; 'I' for Inactive)
REMARK    1  A    between atoms: C_2  and  C_8
REMARK    2  A    between atoms: N_3  and  C_4
REMARK    3  A    between atoms: C_4  and  C_5
REMARK    4  A    between atoms: N_13  and  C_14
REMARK    5  A    between atoms: C_14  and  C_15
REMARK                            x       y       z     vdW  Elec       q    Type
REMARK                         _______ _______ _______ _____ _____    ______ ____
ROOT
ATOM      1  C   UNL     1       3.352   4.885  18.908  0.00  0.00    +0.000 C 
ATOM      2  C   UNL     1       3.250   5.895  17.756  0.00  0.00    +0.000 C 
ATOM      3  C   UNL     1       2.255   6.892  18.287  0.00  0.00    +0.000 C 
ATOM      4  C   UNL     1       2.344   8.330  17.828  0.00  0.00    +0.000 C 
ATOM      5  C   UNL     1       1.279   9.151  18.576  0.00  0.00    +0.000 C 
ATOM      6  N   UNL     1       1.322   9.009  20.050  0.00  0.00    +0.000 NA
ATOM      7  C   UNL     1       1.405   7.594  20.496  0.00  0.00    +0.000 C 
ATOM      8  C   UNL     1       2.534   6.856  19.773  0.00  0.00    +0.000 C 
ATOM      9  O   UNL     1       2.668   5.458  20.056  0.00  0.00    +0.000 OA
ENDROOT
BRANCH   1  11
ATOM     10  O   UNL     1       5.207   3.409  19.485  0.00  0.00    +0.000 OA
ATOM     11  C   UNL     1       4.824   4.540  19.200  0.00  0.00    +0.000 C 
ATOM     12  N   UNL     1       5.662   5.630  19.162  0.00  0.00    +0.000 N 
ATOM     13  H   UNL     1       5.276   6.495  18.798  0.00  0.00    +0.000 HD
BRANCH  12  14
ATOM     14  C   UNL     1       7.082   5.487  19.355  0.00  0.00    +0.000 C 
BRANCH  14  15
ATOM     15  C   UNL     1       7.805   6.159  18.235  0.00  0.00    +0.000 C 
ATOM     16  C   UNL     1       7.092   7.163  17.364  0.00  0.00    +0.000 C 
ATOM     17  C   UNL     1       8.165   7.622  18.311  0.00  0.00    +0.000 C 
ENDBRANCH  14  15
ENDBRANCH  12  14
ENDBRANCH   1  11
BRANCH   6  18
ATOM     18  C   UNL     1       0.143   9.647  20.675  0.00  0.00    +0.000 C 
BRANCH  18  19
ATOM     19  C   UNL     1      -0.013  11.126  20.379  0.00  0.00    +0.000 A 
ATOM     20  C   UNL     1      -1.174  11.605  19.749  0.00  0.00    +0.000 A 
ATOM     21  C   UNL     1      -1.343  12.974  19.511  0.00  0.00    +0.000 A 
ATOM     22  C   UNL     1      -0.362  13.873  19.911  0.00  0.00    +0.000 A 
ATOM     23  C   UNL     1       0.803  13.409  20.522  0.00  0.00    +0.000 A 
ATOM     24  C   UNL     1       0.975  12.042  20.757  0.00  0.00    +0.000 A 
ENDBRANCH  18  19
ENDBRANCH   6  18
TORSDOF 5
ENDMDL
