MODEL 1
REMARK VINA RESULT:      -7.7      0.000      0.000
REMARK  Name = 
REMARK  7 active torsions:
REMARK  status: ('A' for Active; 'I' for Inactive)
REMARK    1  A    between atoms: C_1  and  C_2
REMARK    2  A    between atoms: N_4  and  C_5
REMARK    3  A    between atoms: C_14  and  C_15
REMARK    4  A    between atoms: C_18  and  N_19
REMARK    5  A    between atoms: C_20  and  O_21
REMARK    6  A    between atoms: O_21  and  C_22
REMARK    7  A    between atoms: C_27  and  C_28
REMARK                            x       y       z     vdW  Elec       q    Type
REMARK                         _______ _______ _______ _____ _____    ______ ____
ROOT
ATOM      1  C   UNL     1       0.525  10.384  18.435  0.00  0.00    +0.000 C 
ATOM      2  C   UNL     1       1.333   9.740  19.565  0.00  0.00    +0.000 C 
ATOM      3  C   UNL     1       1.201  10.544  20.888  0.00  0.00    +0.000 C 
ATOM      4  N   UNL     1      -0.175  10.496  21.439  0.00  0.00    +0.000 NA
ATOM      5  C   UNL     1      -0.475   9.075  21.747  0.00  0.00    +0.000 C 
ATOM      6  C   UNL     1      -0.394   8.180  20.489  0.00  0.00    +0.000 C 
ATOM      7  N   UNL     1       0.875   8.349  19.753  0.00  0.00    +0.000 N 
ATOM      8  C   UNL     1       1.776   7.296  19.741  0.00  0.00    +0.000 A 
ATOM      9  C   UNL     1       2.766   7.217  18.781  0.00  0.00    +0.000 A 
ATOM     10  C   UNL     1       3.572   6.089  18.759  0.00  0.00    +0.000 A 
ATOM     11  N   UNL     1       3.424   5.101  19.665  0.00  0.00    +0.000 NA
ATOM     12  C   UNL     1       2.435   5.234  20.563  0.00  0.00    +0.000 A 
ATOM     13  N   UNL     1       1.623   6.306  20.623  0.00  0.00    +0.000 NA
ENDROOT
BRANCH  10  14
ATOM     14  C   UNL     1       4.606   5.879  17.732  0.00  0.00    +0.000 A 
ATOM     15  C   UNL     1       4.488   4.897  16.752  0.00  0.00    +0.000 A 
ATOM     16  N   UNL     1       5.426   4.623  15.804  0.00  0.00    +0.000 NA
ATOM     17  C   UNL     1       6.532   5.389  15.772  0.00  0.00    +0.000 A 
ATOM     18  C   UNL     1       6.735   6.441  16.666  0.00  0.00    +0.000 A 
ATOM     19  C   UNL     1       5.771   6.654  17.660  0.00  0.00    +0.000 A 
BRANCH  17  20
ATOM     20  N   UNL     1       7.439   5.036  14.771  0.00  0.00    +0.000 N 
ATOM     21  H   UNL     1       6.904   5.094  13.902  0.00  0.00    +0.000 HD
ATOM     22  H   UNL     1       8.183   5.730  14.737  0.00  0.00    +0.000 HD
ENDBRANCH  17  20
BRANCH  18  23
ATOM     23  O   UNL     1       7.788   7.308  16.749  0.00  0.00    +0.000 OA
BRANCH  23  24
ATOM     24  C   UNL     1       7.901   8.120  17.902  0.00  0.00    +0.000 C 
ATOM     25  F   UNL     1       8.724   7.535  18.814  0.00  0.00    +0.000 F 
ATOM     26  F   UNL     1       8.533   9.260  17.514  0.00  0.00    +0.000 F 
ENDBRANCH  23  24
ENDBRANCH  18  23
ENDBRANCH  10  14
BRANCH   4  27
ATOM     27  C   UNL     1      -0.260  11.307  22.668  0.00  0.00    +0.000 C 
ATOM     28  C   UNL     1      -0.641  12.767  22.341  0.00  0.00    +0.000 C 
ATOM     29  O   UNL     1      -1.715  12.723  23.323  0.00  0.00    +0.000 OA
ATOM     30  C   UNL     1      -1.687  11.267  23.252  0.00  0.00    +0.000 C 
ENDBRANCH   4  27
BRANCH  12  31
ATOM     31  C   UNL     1       2.177   4.120  21.552  0.00  0.00    +0.000 C 
ATOM     32  C   UNL     1       1.302   2.957  21.120  0.00  0.00    +0.000 C 
ATOM     33  C   UNL     1       2.768   2.740  21.354  0.00  0.00    +0.000 C 
ENDBRANCH  12  31
TORSDOF 6
ENDMDL
MODEL 2
REMARK VINA RESULT:      -7.6      3.254      8.405
REMARK  Name = 
REMARK  7 active torsions:
REMARK  status: ('A' for Active; 'I' for Inactive)
REMARK    1  A    between atoms: C_1  and  C_2
REMARK    2  A    between atoms: N_4  and  C_5
REMARK    3  A    between atoms: C_14  and  C_15
REMARK    4  A    between atoms: C_18  and  N_19
REMARK    5  A    between atoms: C_20  and  O_21
REMARK    6  A    between atoms: O_21  and  C_22
REMARK    7  A    between atoms: C_27  and  C_28
REMARK                            x       y       z     vdW  Elec       q    Type
REMARK                         _______ _______ _______ _____ _____    ______ ____
ROOT
ATOM      1  C   UNL     1       6.400   7.522  17.434  0.00  0.00    +0.000 C 
ATOM      2  C   UNL     1       5.114   6.700  17.313  0.00  0.00    +0.000 C 
ATOM      3  C   UNL     1       5.176   5.720  16.109  0.00  0.00    +0.000 C 
ATOM      4  N   UNL     1       6.192   4.658  16.303  0.00  0.00    +0.000 NA
ATOM      5  C   UNL     1       5.786   3.874  17.497  0.00  0.00    +0.000 C 
ATOM      6  C   UNL     1       5.712   4.752  18.767  0.00  0.00    +0.000 C 
ATOM      7  N   UNL     1       4.891   5.964  18.573  0.00  0.00    +0.000 N 
ATOM      8  C   UNL     1       3.685   6.059  19.249  0.00  0.00    +0.000 A 
ATOM      9  C   UNL     1       3.069   7.281  19.438  0.00  0.00    +0.000 A 
ATOM     10  C   UNL     1       1.917   7.325  20.209  0.00  0.00    +0.000 A 
ATOM     11  N   UNL     1       1.384   6.206  20.741  0.00  0.00    +0.000 NA
ATOM     12  C   UNL     1       2.039   5.053  20.530  0.00  0.00    +0.000 A 
ATOM     13  N   UNL     1       3.161   4.958  19.793  0.00  0.00    +0.000 NA
ENDROOT
BRANCH  10  14
ATOM     14  C   UNL     1       1.229   8.587  20.528  0.00  0.00    +0.000 A 
ATOM     15  C   UNL     1       1.147   9.077  21.828  0.00  0.00    +0.000 A 
ATOM     16  N   UNL     1       0.489  10.212  22.195  0.00  0.00    +0.000 NA
ATOM     17  C   UNL     1      -0.084  10.949  21.226  0.00  0.00    +0.000 A 
ATOM     18  C   UNL     1      -0.018  10.589  19.879  0.00  0.00    +0.000 A 
ATOM     19  C   UNL     1       0.622   9.386  19.552  0.00  0.00    +0.000 A 
BRANCH  17  20
ATOM     20  N   UNL     1      -0.737  12.091  21.692  0.00  0.00    +0.000 N 
ATOM     21  H   UNL     1      -0.892  12.662  20.860  0.00  0.00    +0.000 HD
ATOM     22  H   UNL     1      -1.644  11.823  22.072  0.00  0.00    +0.000 HD
ENDBRANCH  17  20
BRANCH  18  23
ATOM     23  O   UNL     1      -0.531  11.235  18.791  0.00  0.00    +0.000 OA
BRANCH  23  24
ATOM     24  C   UNL     1      -1.726  10.739  18.215  0.00  0.00    +0.000 C 
ATOM     25  F   UNL     1      -2.494  11.766  17.762  0.00  0.00    +0.000 F 
ATOM     26  F   UNL     1      -1.361  10.035  17.110  0.00  0.00    +0.000 F 
ENDBRANCH  23  24
ENDBRANCH  18  23
ENDBRANCH  10  14
BRANCH   4  27
ATOM     27  C   UNL     1       6.244   3.781  15.118  0.00  0.00    +0.000 C 
ATOM     28  C   UNL     1       5.115   4.127  14.124  0.00  0.00    +0.000 C 
ATOM     29  O   UNL     1       6.078   4.214  13.036  0.00  0.00    +0.000 OA
ATOM     30  C   UNL     1       7.138   4.395  14.021  0.00  0.00    +0.000 C 
ENDBRANCH   4  27
BRANCH  12  31
ATOM     31  C   UNL     1       1.525   3.781  21.166  0.00  0.00    +0.000 C 
ATOM     32  C   UNL     1       1.289   2.572  20.278  0.00  0.00    +0.000 C 
ATOM     33  C   UNL     1       2.402   2.552  21.284  0.00  0.00    +0.000 C 
ENDBRANCH  12  31
TORSDOF 6
ENDMDL
MODEL 3
REMARK VINA RESULT:      -7.5      3.399      8.541
REMARK  Name = 
REMARK  7 active torsions:
REMARK  status: ('A' for Active; 'I' for Inactive)
REMARK    1  A    between atoms: C_1  and  C_2
REMARK    2  A    between atoms: N_4  and  C_5
REMARK    3  A    between atoms: C_14  and  C_15
REMARK    4  A    between atoms: C_18  and  N_19
REMARK    5  A    between atoms: C_20  and  O_21
REMARK    6  A    between atoms: O_21  and  C_22
REMARK    7  A    between atoms: C_27  and  C_28
REMARK                            x       y       z     vdW  Elec       q    Type
REMARK                         _______ _______ _______ _____ _____    ______ ____
ROOT
ATOM      1  C   UNL     1       6.908   7.373  17.146  0.00  0.00    +0.000 C 
ATOM      2  C   UNL     1       5.594   6.644  16.854  0.00  0.00    +0.000 C 
ATOM      3  C   UNL     1       5.707   5.752  15.586  0.00  0.00    +0.000 C 
ATOM      4  N   UNL     1       6.642   4.618  15.781  0.00  0.00    +0.000 NA
ATOM      5  C   UNL     1       6.090   3.775  16.872  0.00  0.00    +0.000 C 
ATOM      6  C   UNL     1       5.953   4.561  18.196  0.00  0.00    +0.000 C 
ATOM      7  N   UNL     1       5.221   5.832  18.030  0.00  0.00    +0.000 N 
ATOM      8  C   UNL     1       3.967   5.952  18.607  0.00  0.00    +0.000 A 
ATOM      9  C   UNL     1       3.405   7.192  18.840  0.00  0.00    +0.000 A 
ATOM     10  C   UNL     1       2.194   7.250  19.513  0.00  0.00    +0.000 A 
ATOM     11  N   UNL     1       1.555   6.130  19.909  0.00  0.00    +0.000 NA
ATOM     12  C   UNL     1       2.161   4.958  19.664  0.00  0.00    +0.000 A 
ATOM     13  N   UNL     1       3.338   4.848  19.018  0.00  0.00    +0.000 NA
ENDROOT
BRANCH  10  14
ATOM     14  C   UNL     1       1.551   8.526  19.871  0.00  0.00    +0.000 A 
ATOM     15  C   UNL     1       1.121   9.435  18.908  0.00  0.00    +0.000 A 
ATOM     16  N   UNL     1       0.561  10.647  19.174  0.00  0.00    +0.000 NA
ATOM     17  C   UNL     1       0.356  10.978  20.462  0.00  0.00    +0.000 A 
ATOM     18  C   UNL     1       0.693  10.124  21.513  0.00  0.00    +0.000 A 
ATOM     19  C   UNL     1       1.317   8.909  21.198  0.00  0.00    +0.000 A 
BRANCH  17  20
ATOM     20  N   UNL     1      -0.219  12.237  20.640  0.00  0.00    +0.000 N 
ATOM     21  H   UNL     1       0.455  12.891  20.239  0.00  0.00    +0.000 HD
ATOM     22  H   UNL     1      -1.080  12.289  20.099  0.00  0.00    +0.000 HD
ENDBRANCH  17  20
BRANCH  18  23
ATOM     23  O   UNL     1       0.536  10.310  22.857  0.00  0.00    +0.000 OA
BRANCH  23  24
ATOM     24  C   UNL     1      -0.660   9.856  23.463  0.00  0.00    +0.000 C 
ATOM     25  F   UNL     1      -1.658  10.760  23.277  0.00  0.00    +0.000 F 
ATOM     26  F   UNL     1      -1.040   8.741  22.784  0.00  0.00    +0.000 F 
ENDBRANCH  23  24
ENDBRANCH  18  23
ENDBRANCH  10  14
BRANCH   4  27
ATOM     27  C   UNL     1       6.749   3.828  14.540  0.00  0.00    +0.000 C 
ATOM     28  C   UNL     1       5.451   3.924  13.709  0.00  0.00    +0.000 C 
ATOM     29  O   UNL     1       6.217   4.290  12.526  0.00  0.00    +0.000 OA
ATOM     30  C   UNL     1       7.320   4.687  13.392  0.00  0.00    +0.000 C 
ENDBRANCH   4  27
BRANCH  12  31
ATOM     31  C   UNL     1       1.525   3.677  20.153  0.00  0.00    +0.000 C 
ATOM     32  C   UNL     1       0.745   2.832  19.162  0.00  0.00    +0.000 C 
ATOM     33  C   UNL     1       2.044   2.324  19.715  0.00  0.00    +0.000 C 
ENDBRANCH  12  31
TORSDOF 6
ENDMDL
MODEL 4
REMARK VINA RESULT:      -7.5      2.581      8.058
REMARK  Name = 
REMARK  7 active torsions:
REMARK  status: ('A' for Active; 'I' for Inactive)
REMARK    1  A    between atoms: C_1  and  C_2
REMARK    2  A    between atoms: N_4  and  C_5
REMARK    3  A    between atoms: C_14  and  C_15
REMARK    4  A    between atoms: C_18  and  N_19
REMARK    5  A    between atoms: C_20  and  O_21
REMARK    6  A    between atoms: O_21  and  C_22
REMARK    7  A    between atoms: C_27  and  C_28
REMARK                            x       y       z     vdW  Elec       q    Type
REMARK                         _______ _______ _______ _____ _____    ______ ____
ROOT
ATOM      1  C   UNL     1       6.374   7.585  17.280  0.00  0.00    +0.000 C 
ATOM      2  C   UNL     1       5.122   6.709  17.191  0.00  0.00    +0.000 C 
ATOM      3  C   UNL     1       5.220   5.692  16.021  0.00  0.00    +0.000 C 
ATOM      4  N   UNL     1       6.279   4.679  16.246  0.00  0.00    +0.000 NA
ATOM      5  C   UNL     1       5.908   3.920  17.468  0.00  0.00    +0.000 C 
ATOM      6  C   UNL     1       5.802   4.837  18.708  0.00  0.00    +0.000 C 
ATOM      7  N   UNL     1       4.932   6.008  18.477  0.00  0.00    +0.000 N 
ATOM      8  C   UNL     1       3.725   6.076  19.153  0.00  0.00    +0.000 A 
ATOM      9  C   UNL     1       3.060   7.278  19.304  0.00  0.00    +0.000 A 
ATOM     10  C   UNL     1       1.910   7.301  20.078  0.00  0.00    +0.000 A 
ATOM     11  N   UNL     1       1.424   6.180  20.649  0.00  0.00    +0.000 NA
ATOM     12  C   UNL     1       2.124   5.048  20.474  0.00  0.00    +0.000 A 
ATOM     13  N   UNL     1       3.248   4.974  19.736  0.00  0.00    +0.000 NA
ENDROOT
BRANCH  10  14
ATOM     14  C   UNL     1       1.172   8.544  20.357  0.00  0.00    +0.000 A 
ATOM     15  C   UNL     1       0.483   8.745  21.550  0.00  0.00    +0.000 A 
ATOM     16  N   UNL     1      -0.253   9.850  21.851  0.00  0.00    +0.000 NA
ATOM     17  C   UNL     1      -0.279  10.853  20.953  0.00  0.00    +0.000 A 
ATOM     18  C   UNL     1       0.419  10.791  19.747  0.00  0.00    +0.000 A 
ATOM     19  C   UNL     1       1.119   9.613  19.453  0.00  0.00    +0.000 A 
BRANCH  17  20
ATOM     20  N   UNL     1      -1.059  11.943  21.343  0.00  0.00    +0.000 N 
ATOM     21  H   UNL     1      -1.554  11.625  22.177  0.00  0.00    +0.000 HD
ATOM     22  H   UNL     1      -0.446  12.713  21.606  0.00  0.00    +0.000 HD
ENDBRANCH  17  20
BRANCH  18  23
ATOM     23  O   UNL     1       0.501  11.723  18.752  0.00  0.00    +0.000 OA
BRANCH  23  24
ATOM     24  C   UNL     1       1.591  12.625  18.763  0.00  0.00    +0.000 C 
ATOM     25  F   UNL     1       2.157  12.669  19.999  0.00  0.00    +0.000 F 
ATOM     26  F   UNL     1       2.539  12.098  17.942  0.00  0.00    +0.000 F 
ENDBRANCH  23  24
ENDBRANCH  18  23
ENDBRANCH  10  14
BRANCH   4  27
ATOM     27  C   UNL     1       6.363   3.765  15.092  0.00  0.00    +0.000 C 
ATOM     28  C   UNL     1       5.190   3.999  14.115  0.00  0.00    +0.000 C 
ATOM     29  O   UNL     1       6.121   4.112  13.000  0.00  0.00    +0.000 OA
ATOM     30  C   UNL     1       7.187   4.398  13.952  0.00  0.00    +0.000 C 
ENDBRANCH   4  27
BRANCH  12  31
ATOM     31  C   UNL     1       1.664   3.779  21.154  0.00  0.00    +0.000 C 
ATOM     32  C   UNL     1       1.343   2.571  20.292  0.00  0.00    +0.000 C 
ATOM     33  C   UNL     1       2.542   2.545  21.193  0.00  0.00    +0.000 C 
ENDBRANCH  12  31
TORSDOF 6
ENDMDL
MODEL 5
REMARK VINA RESULT:      -7.5      2.693      8.173
REMARK  Name = 
REMARK  7 active torsions:
REMARK  status: ('A' for Active; 'I' for Inactive)
REMARK    1  A    between atoms: C_1  and  C_2
REMARK    2  A    between atoms: N_4  and  C_5
REMARK    3  A    between atoms: C_14  and  C_15
REMARK    4  A    between atoms: C_18  and  N_19
REMARK    5  A    between atoms: C_20  and  O_21
REMARK    6  A    between atoms: O_21  and  C_22
REMARK    7  A    between atoms: C_27  and  C_28
REMARK                            x       y       z     vdW  Elec       q    Type
REMARK                         _______ _______ _______ _____ _____    ______ ____
ROOT
ATOM      1  C   UNL     1       7.025   7.669  17.284  0.00  0.00    +0.000 C 
ATOM      2  C   UNL     1       5.823   6.771  16.980  0.00  0.00    +0.000 C 
ATOM      3  C   UNL     1       6.044   5.944  15.683  0.00  0.00    +0.000 C 
ATOM      4  N   UNL     1       7.132   4.948  15.833  0.00  0.00    +0.000 NA
ATOM      5  C   UNL     1       6.719   4.002  16.901  0.00  0.00    +0.000 C 
ATOM      6  C   UNL     1       6.491   4.720  18.251  0.00  0.00    +0.000 C 
ATOM      7  N   UNL     1       5.584   5.879  18.132  0.00  0.00    +0.000 N 
ATOM      8  C   UNL     1       4.334   5.802  18.725  0.00  0.00    +0.000 A 
ATOM      9  C   UNL     1       3.606   6.943  19.002  0.00  0.00    +0.000 A 
ATOM     10  C   UNL     1       2.408   6.808  19.688  0.00  0.00    +0.000 A 
ATOM     11  N   UNL     1       1.939   5.597  20.053  0.00  0.00    +0.000 NA
ATOM     12  C   UNL     1       2.701   4.530  19.764  0.00  0.00    +0.000 A 
ATOM     13  N   UNL     1       3.872   4.609  19.105  0.00  0.00    +0.000 NA
ENDROOT
BRANCH  10  14
ATOM     14  C   UNL     1       1.597   7.968  20.093  0.00  0.00    +0.000 A 
ATOM     15  C   UNL     1       0.998   8.051  21.347  0.00  0.00    +0.000 A 
ATOM     16  N   UNL     1       0.201   9.073  21.766  0.00  0.00    +0.000 NA
ATOM     17  C   UNL     1       0.016  10.111  20.929  0.00  0.00    +0.000 A 
ATOM     18  C   UNL     1       0.612  10.167  19.669  0.00  0.00    +0.000 A 
ATOM     19  C   UNL     1       1.380   9.070  19.256  0.00  0.00    +0.000 A 
BRANCH  17  20
ATOM     20  N   UNL     1      -0.815  11.110  21.439  0.00  0.00    +0.000 N 
ATOM     21  H   UNL     1      -0.490  11.971  20.997  0.00  0.00    +0.000 HD
ATOM     22  H   UNL     1      -1.771  10.933  21.136  0.00  0.00    +0.000 HD
ENDBRANCH  17  20
BRANCH  18  23
ATOM     23  O   UNL     1       0.532  11.149  18.723  0.00  0.00    +0.000 OA
BRANCH  23  24
ATOM     24  C   UNL     1       1.546  12.136  18.689  0.00  0.00    +0.000 C 
ATOM     25  F   UNL     1       2.572  11.733  17.892  0.00  0.00    +0.000 F 
ATOM     26  F   UNL     1       1.008  13.225  18.077  0.00  0.00    +0.000 F 
ENDBRANCH  23  24
ENDBRANCH  18  23
ENDBRANCH  10  14
BRANCH   4  27
ATOM     27  C   UNL     1       7.333   4.220  14.565  0.00  0.00    +0.000 C 
ATOM     28  C   UNL     1       5.982   3.913  13.884  0.00  0.00    +0.000 C 
ATOM     29  O   UNL     1       6.465   4.486  12.635  0.00  0.00    +0.000 OA
ATOM     30  C   UNL     1       7.486   5.204  13.387  0.00  0.00    +0.000 C 
ENDBRANCH   4  27
BRANCH  12  31
ATOM     31  C   UNL     1       2.258   3.158  20.218  0.00  0.00    +0.000 C 
ATOM     32  C   UNL     1       2.354   2.819  21.695  0.00  0.00    +0.000 C 
ATOM     33  C   UNL     1       1.008   2.972  21.051  0.00  0.00    +0.000 C 
ENDBRANCH  12  31
TORSDOF 6
ENDMDL
MODEL 6
REMARK VINA RESULT:      -7.4      3.224      8.439
REMARK  Name = 
REMARK  7 active torsions:
REMARK  status: ('A' for Active; 'I' for Inactive)
REMARK    1  A    between atoms: C_1  and  C_2
REMARK    2  A    between atoms: N_4  and  C_5
REMARK    3  A    between atoms: C_14  and  C_15
REMARK    4  A    between atoms: C_18  and  N_19
REMARK    5  A    between atoms: C_20  and  O_21
REMARK    6  A    between atoms: O_21  and  C_22
REMARK    7  A    between atoms: C_27  and  C_28
REMARK                            x       y       z     vdW  Elec       q    Type
REMARK                         _______ _______ _______ _____ _____    ______ ____
ROOT
ATOM      1  C   UNL     1       6.973   7.706  17.159  0.00  0.00    +0.000 C 
ATOM      2  C   UNL     1       5.775   6.786  16.909  0.00  0.00    +0.000 C 
ATOM      3  C   UNL     1       5.975   5.929  15.628  0.00  0.00    +0.000 C 
ATOM      4  N   UNL     1       7.078   4.950  15.775  0.00  0.00    +0.000 NA
ATOM      5  C   UNL     1       6.703   4.027  16.877  0.00  0.00    +0.000 C 
ATOM      6  C   UNL     1       6.499   4.776  18.214  0.00  0.00    +0.000 C 
ATOM      7  N   UNL     1       5.576   5.921  18.089  0.00  0.00    +0.000 N 
ATOM      8  C   UNL     1       4.341   5.845  18.714  0.00  0.00    +0.000 A 
ATOM      9  C   UNL     1       3.606   6.984  18.980  0.00  0.00    +0.000 A 
ATOM     10  C   UNL     1       2.428   6.853  19.698  0.00  0.00    +0.000 A 
ATOM     11  N   UNL     1       1.982   5.647  20.106  0.00  0.00    +0.000 NA
ATOM     12  C   UNL     1       2.750   4.582  19.825  0.00  0.00    +0.000 A 
ATOM     13  N   UNL     1       3.904   4.657  19.135  0.00  0.00    +0.000 NA
ENDROOT
BRANCH  10  14
ATOM     14  C   UNL     1       1.612   8.014  20.094  0.00  0.00    +0.000 A 
ATOM     15  C   UNL     1       1.312   8.289  21.425  0.00  0.00    +0.000 A 
ATOM     16  N   UNL     1       0.529   9.317  21.853  0.00  0.00    +0.000 NA
ATOM     17  C   UNL     1       0.047  10.169  20.929  0.00  0.00    +0.000 A 
ATOM     18  C   UNL     1       0.328  10.029  19.569  0.00  0.00    +0.000 A 
ATOM     19  C   UNL     1       1.092   8.926  19.167  0.00  0.00    +0.000 A 
BRANCH  17  20
ATOM     20  N   UNL     1      -0.746  11.189  21.456  0.00  0.00    +0.000 N 
ATOM     21  H   UNL     1      -1.647  11.089  20.986  0.00  0.00    +0.000 HD
ATOM     22  H   UNL     1      -0.882  11.023  22.452  0.00  0.00    +0.000 HD
ENDBRANCH  17  20
BRANCH  18  23
ATOM     23  O   UNL     1      -0.072  10.812  18.524  0.00  0.00    +0.000 OA
BRANCH  23  24
ATOM     24  C   UNL     1      -1.328  10.547  17.927  0.00  0.00    +0.000 C 
ATOM     25  F   UNL     1      -1.181   9.701  16.872  0.00  0.00    +0.000 F 
ATOM     26  F   UNL     1      -2.059   9.866  18.848  0.00  0.00    +0.000 F 
ENDBRANCH  23  24
ENDBRANCH  18  23
ENDBRANCH  10  14
BRANCH   4  27
ATOM     27  C   UNL     1       7.256   4.192  14.522  0.00  0.00    +0.000 C 
ATOM     28  C   UNL     1       5.910   4.010  13.790  0.00  0.00    +0.000 C 
ATOM     29  O   UNL     1       6.493   4.519  12.557  0.00  0.00    +0.000 OA
ATOM     30  C   UNL     1       7.550   5.144  13.344  0.00  0.00    +0.000 C 
ENDBRANCH   4  27
BRANCH  12  31
ATOM     31  C   UNL     1       2.335   3.216  20.324  0.00  0.00    +0.000 C 
ATOM     32  C   UNL     1       2.144   3.020  21.818  0.00  0.00    +0.000 C 
ATOM     33  C   UNL     1       0.956   2.977  20.902  0.00  0.00    +0.000 C 
ENDBRANCH  12  31
TORSDOF 6
ENDMDL
MODEL 7
REMARK VINA RESULT:      -7.0      6.687      9.296
REMARK  Name = 
REMARK  7 active torsions:
REMARK  status: ('A' for Active; 'I' for Inactive)
REMARK    1  A    between atoms: C_1  and  C_2
REMARK    2  A    between atoms: N_4  and  C_5
REMARK    3  A    between atoms: C_14  and  C_15
REMARK    4  A    between atoms: C_18  and  N_19
REMARK    5  A    between atoms: C_20  and  O_21
REMARK    6  A    between atoms: O_21  and  C_22
REMARK    7  A    between atoms: C_27  and  C_28
REMARK                            x       y       z     vdW  Elec       q    Type
REMARK                         _______ _______ _______ _____ _____    ______ ____
ROOT
ATOM      1  C   UNL     1       1.062  16.716  19.614  0.00  0.00    +0.000 C 
ATOM      2  C   UNL     1       1.476  15.279  19.287  0.00  0.00    +0.000 C 
ATOM      3  C   UNL     1       2.966  15.200  18.854  0.00  0.00    +0.000 C 
ATOM      4  N   UNL     1       3.890  15.532  19.965  0.00  0.00    +0.000 NA
ATOM      5  C   UNL     1       3.680  14.518  21.030  0.00  0.00    +0.000 C 
ATOM      6  C   UNL     1       2.225  14.523  21.553  0.00  0.00    +0.000 C 
ATOM      7  N   UNL     1       1.230  14.425  20.466  0.00  0.00    +0.000 N 
ATOM      8  C   UNL     1       0.480  13.265  20.361  0.00  0.00    +0.000 A 
ATOM      9  C   UNL     1      -0.708  13.246  19.656  0.00  0.00    +0.000 A 
ATOM     10  C   UNL     1      -1.465  12.085  19.672  0.00  0.00    +0.000 A 
ATOM     11  N   UNL     1      -1.048  10.983  20.329  0.00  0.00    +0.000 NA
ATOM     12  C   UNL     1       0.109  11.072  21.005  0.00  0.00    +0.000 A 
ATOM     13  N   UNL     1       0.878  12.177  21.024  0.00  0.00    +0.000 NA
ENDROOT
BRANCH  10  14
ATOM     14  C   UNL     1      -2.778  11.989  19.012  0.00  0.00    +0.000 A 
ATOM     15  C   UNL     1      -3.940  12.478  19.602  0.00  0.00    +0.000 A 
ATOM     16  N   UNL     1      -5.188  12.381  19.066  0.00  0.00    +0.000 NA
ATOM     17  C   UNL     1      -5.309  11.818  17.849  0.00  0.00    +0.000 A 
ATOM     18  C   UNL     1      -4.208  11.344  17.135  0.00  0.00    +0.000 A 
ATOM     19  C   UNL     1      -2.949  11.414  17.747  0.00  0.00    +0.000 A 
BRANCH  17  20
ATOM     20  N   UNL     1      -6.622  11.759  17.380  0.00  0.00    +0.000 N 
ATOM     21  H   UNL     1      -6.944  10.820  17.620  0.00  0.00    +0.000 HD
ATOM     22  H   UNL     1      -7.188  12.434  17.891  0.00  0.00    +0.000 HD
ENDBRANCH  17  20
BRANCH  18  23
ATOM     23  O   UNL     1      -4.170  10.768  15.898  0.00  0.00    +0.000 OA
BRANCH  23  24
ATOM     24  C   UNL     1      -2.906  10.468  15.334  0.00  0.00    +0.000 C 
ATOM     25  F   UNL     1      -2.507   9.221  15.702  0.00  0.00    +0.000 F 
ATOM     26  F   UNL     1      -3.085  10.416  13.987  0.00  0.00    +0.000 F 
ENDBRANCH  23  24
ENDBRANCH  18  23
ENDBRANCH  10  14
BRANCH   4  27
ATOM     27  C   UNL     1       5.288  15.486  19.495  0.00  0.00    +0.000 C 
ATOM     28  C   UNL     1       5.635  16.744  18.670  0.00  0.00    +0.000 C 
ATOM     29  O   UNL     1       6.820  16.971  19.485  0.00  0.00    +0.000 OA
ATOM     30  C   UNL     1       6.233  16.136  20.526  0.00  0.00    +0.000 C 
ENDBRANCH   4  27
BRANCH  12  31
ATOM     31  C   UNL     1       0.585   9.890  21.820  0.00  0.00    +0.000 C 
ATOM     32  C   UNL     1      -0.107   9.598  23.139  0.00  0.00    +0.000 C 
ATOM     33  C   UNL     1      -0.274   8.654  21.985  0.00  0.00    +0.000 C 
ENDBRANCH  12  31
TORSDOF 6
ENDMDL
MODEL 8
REMARK VINA RESULT:      -6.9      3.675      6.347
REMARK  Name = 
REMARK  7 active torsions:
REMARK  status: ('A' for Active; 'I' for Inactive)
REMARK    1  A    between atoms: C_1  and  C_2
REMARK    2  A    between atoms: N_4  and  C_5
REMARK    3  A    between atoms: C_14  and  C_15
REMARK    4  A    between atoms: C_18  and  N_19
REMARK    5  A    between atoms: C_20  and  O_21
REMARK    6  A    between atoms: O_21  and  C_22
REMARK    7  A    between atoms: C_27  and  C_28
REMARK                            x       y       z     vdW  Elec       q    Type
REMARK                         _______ _______ _______ _____ _____    ______ ____
ROOT
ATOM      1  C   UNL     1      -0.301  13.657  22.605  0.00  0.00    +0.000 C 
ATOM      2  C   UNL     1      -1.283  12.566  22.170  0.00  0.00    +0.000 C 
ATOM      3  C   UNL     1      -2.550  12.549  23.069  0.00  0.00    +0.000 C 
ATOM      4  N   UNL     1      -3.371  13.773  22.905  0.00  0.00    +0.000 NA
ATOM      5  C   UNL     1      -3.826  13.810  21.492  0.00  0.00    +0.000 C 
ATOM      6  C   UNL     1      -2.640  13.851  20.503  0.00  0.00    +0.000 C 
ATOM      7  N   UNL     1      -1.651  12.784  20.756  0.00  0.00    +0.000 N 
ATOM      8  C   UNL     1      -1.525  11.766  19.824  0.00  0.00    +0.000 A 
ATOM      9  C   UNL     1      -0.391  10.978  19.778  0.00  0.00    +0.000 A 
ATOM     10  C   UNL     1      -0.279  10.045  18.760  0.00  0.00    +0.000 A 
ATOM     11  N   UNL     1      -1.259   9.878  17.848  0.00  0.00    +0.000 NA
ATOM     12  C   UNL     1      -2.329  10.684  17.941  0.00  0.00    +0.000 A 
ATOM     13  N   UNL     1      -2.483  11.608  18.908  0.00  0.00    +0.000 NA
ENDROOT
BRANCH  10  14
ATOM     14  C   UNL     1       0.921   9.210  18.583  0.00  0.00    +0.000 A 
ATOM     15  C   UNL     1       1.840   9.439  17.563  0.00  0.00    +0.000 A 
ATOM     16  N   UNL     1       2.943   8.679  17.319  0.00  0.00    +0.000 NA
ATOM     17  C   UNL     1       3.200   7.656  18.156  0.00  0.00    +0.000 A 
ATOM     18  C   UNL     1       2.383   7.364  19.248  0.00  0.00    +0.000 A 
ATOM     19  C   UNL     1       1.228   8.138  19.430  0.00  0.00    +0.000 A 
BRANCH  17  20
ATOM     20  N   UNL     1       4.347   6.931  17.830  0.00  0.00    +0.000 N 
ATOM     21  H   UNL     1       4.038   5.959  17.785  0.00  0.00    +0.000 HD
ATOM     22  H   UNL     1       4.665   7.211  16.903  0.00  0.00    +0.000 HD
ENDBRANCH  17  20
BRANCH  18  23
ATOM     23  O   UNL     1       2.519   6.379  20.185  0.00  0.00    +0.000 OA
BRANCH  23  24
ATOM     24  C   UNL     1       2.086   5.073  19.855  0.00  0.00    +0.000 C 
ATOM     25  F   UNL     1       1.001   4.731  20.602  0.00  0.00    +0.000 F 
ATOM     26  F   UNL     1       1.647   5.122  18.569  0.00  0.00    +0.000 F 
ENDBRANCH  23  24
ENDBRANCH  18  23
ENDBRANCH  10  14
BRANCH   4  27
ATOM     27  C   UNL     1      -4.535  13.730  23.809  0.00  0.00    +0.000 C 
ATOM     28  C   UNL     1      -5.720  12.991  23.150  0.00  0.00    +0.000 C 
ATOM     29  O   UNL     1      -5.862  12.140  24.323  0.00  0.00    +0.000 OA
ATOM     30  C   UNL     1      -4.492  12.469  24.698  0.00  0.00    +0.000 C 
ENDBRANCH   4  27
BRANCH  12  31
ATOM     31  C   UNL     1      -3.421  10.590  16.900  0.00  0.00    +0.000 C 
ATOM     32  C   UNL     1      -3.175  11.210  15.536  0.00  0.00    +0.000 C 
ATOM     33  C   UNL     1      -3.263   9.719  15.672  0.00  0.00    +0.000 C 
ENDBRANCH  12  31
TORSDOF 6
ENDMDL
MODEL 9
REMARK VINA RESULT:      -6.9      3.405      8.617
REMARK  Name = 
REMARK  7 active torsions:
REMARK  status: ('A' for Active; 'I' for Inactive)
REMARK    1  A    between atoms: C_1  and  C_2
REMARK    2  A    between atoms: N_4  and  C_5
REMARK    3  A    between atoms: C_14  and  C_15
REMARK    4  A    between atoms: C_18  and  N_19
REMARK    5  A    between atoms: C_20  and  O_21
REMARK    6  A    between atoms: O_21  and  C_22
REMARK    7  A    between atoms: C_27  and  C_28
REMARK                            x       y       z     vdW  Elec       q    Type
REMARK                         _______ _______ _______ _____ _____    ______ ____
ROOT
ATOM      1  C   UNL     1       6.740   6.993  15.938  0.00  0.00    +0.000 C 
ATOM      2  C   UNL     1       5.430   6.202  15.915  0.00  0.00    +0.000 C 
ATOM      3  C   UNL     1       5.363   5.247  14.690  0.00  0.00    +0.000 C 
ATOM      4  N   UNL     1       6.368   4.160  14.772  0.00  0.00    +0.000 NA
ATOM      5  C   UNL     1       6.050   3.358  15.981  0.00  0.00    +0.000 C 
ATOM      6  C   UNL     1       6.109   4.209  17.270  0.00  0.00    +0.000 C 
ATOM      7  N   UNL     1       5.302   5.442  17.175  0.00  0.00    +0.000 N 
ATOM      8  C   UNL     1       4.162   5.547  17.956  0.00  0.00    +0.000 A 
ATOM      9  C   UNL     1       3.593   6.777  18.224  0.00  0.00    +0.000 A 
ATOM     10  C   UNL     1       2.516   6.828  19.094  0.00  0.00    +0.000 A 
ATOM     11  N   UNL     1       2.006   5.709  19.648  0.00  0.00    +0.000 NA
ATOM     12  C   UNL     1       2.612   4.547  19.356  0.00  0.00    +0.000 A 
ATOM     13  N   UNL     1       3.664   4.446  18.521  0.00  0.00    +0.000 NA
ENDROOT
BRANCH  10  14
ATOM     14  C   UNL     1       1.887   8.097  19.499  0.00  0.00    +0.000 A 
ATOM     15  C   UNL     1       1.420   9.022  18.569  0.00  0.00    +0.000 A 
ATOM     16  N   UNL     1       0.871  10.229  18.876  0.00  0.00    +0.000 NA
ATOM     17  C   UNL     1       0.717  10.538  20.177  0.00  0.00    +0.000 A 
ATOM     18  C   UNL     1       1.094   9.667  21.200  0.00  0.00    +0.000 A 
ATOM     19  C   UNL     1       1.705   8.458  20.840  0.00  0.00    +0.000 A 
BRANCH  17  20
ATOM     20  N   UNL     1       0.149  11.794  20.399  0.00  0.00    +0.000 N 
ATOM     21  H   UNL     1      -0.468  11.664  21.202  0.00  0.00    +0.000 HD
ATOM     22  H   UNL     1       0.884  12.449  20.661  0.00  0.00    +0.000 HD
ENDBRANCH  17  20
BRANCH  18  23
ATOM     23  O   UNL     1       0.988   9.830  22.551  0.00  0.00    +0.000 OA
BRANCH  23  24
ATOM     24  C   UNL     1      -0.270   9.609  23.160  0.00  0.00    +0.000 C 
ATOM     25  F   UNL     1      -0.914   8.575  22.553  0.00  0.00    +0.000 F 
ATOM     26  F   UNL     1      -0.020   9.192  24.430  0.00  0.00    +0.000 F 
ENDBRANCH  23  24
ENDBRANCH  18  23
ENDBRANCH  10  14
BRANCH   4  27
ATOM     27  C   UNL     1       6.295   3.309  13.570  0.00  0.00    +0.000 C 
ATOM     28  C   UNL     1       5.007   3.594  12.767  0.00  0.00    +0.000 C 
ATOM     29  O   UNL     1       5.785   3.765  11.548  0.00  0.00    +0.000 OA
ATOM     30  C   UNL     1       6.969   4.001  12.367  0.00  0.00    +0.000 C 
ENDBRANCH   4  27
BRANCH  12  31
ATOM     31  C   UNL     1       2.128   3.273  20.009  0.00  0.00    +0.000 C 
ATOM     32  C   UNL     1       2.063   3.217  21.525  0.00  0.00    +0.000 C 
ATOM     33  C   UNL     1       0.795   3.214  20.725  0.00  0.00    +0.000 C 
ENDBRANCH  12  31
TORSDOF 6
ENDMDL
