MODEL 1
REMARK VINA RESULT:      -8.7      0.000      0.000
REMARK  Name = 
REMARK  7 active torsions:
REMARK  status: ('A' for Active; 'I' for Inactive)
REMARK    1  A    between atoms: C_1  and  O_2
REMARK    2  A    between atoms: O_2  and  C_3
REMARK    3  A    between atoms: C_5  and  C_6
REMARK    4  A    between atoms: C_6  and  N_7
REMARK    5  A    between atoms: C_12  and  O_13
REMARK    6  A    between atoms: C_27  and  O_28
REMARK    7  A    between atoms: O_28  and  C_29
REMARK                            x       y       z     vdW  Elec       q    Type
REMARK                         _______ _______ _______ _____ _____    ______ ____
ROOT
ATOM      1  N   UNL     1       3.098   7.084  17.571  0.00  0.00    +0.000 N 
ATOM      2  C   UNL     1       2.469   6.041  18.295  0.00  0.00    +0.000 A 
ATOM      3  C   UNL     1       3.449   5.806  19.249  0.00  0.00    +0.000 A 
ATOM      4  C   UNL     1       4.517   5.581  18.298  0.00  0.00    +0.000 A 
ATOM      5  C   UNL     1       5.294   4.506  17.837  0.00  0.00    +0.000 A 
ATOM      6  C   UNL     1       6.224   4.737  16.832  0.00  0.00    +0.000 A 
ATOM      7  C   UNL     1       6.463   6.021  16.391  0.00  0.00    +0.000 A 
ATOM      8  C   UNL     1       5.543   7.038  16.654  0.00  0.00    +0.000 A 
ATOM      9  C   UNL     1       4.434   6.667  17.434  0.00  0.00    +0.000 A 
ATOM     10  C   UNL     1       3.050   5.031  20.465  0.00  0.00    +0.000 C 
ATOM     11  C   UNL     1       2.920   3.662  19.869  0.00  0.00    +0.000 A 
ATOM     12  C   UNL     1       3.777   2.664  20.369  0.00  0.00    +0.000 A 
ATOM     13  C   UNL     1       4.028   1.540  19.599  0.00  0.00    +0.000 A 
ATOM     14  C   UNL     1       3.339   1.361  18.390  0.00  0.00    +0.000 A 
ATOM     15  C   UNL     1       2.420   2.327  17.920  0.00  0.00    +0.000 A 
ATOM     16  C   UNL     1       2.226   3.515  18.624  0.00  0.00    +0.000 A 
ATOM     17  C   UNL     1       1.713   4.802  17.889  0.00  0.00    +0.000 C 
ATOM     18  O   UNL     1       0.911   4.743  16.957  0.00  0.00    +0.000 OA
ENDROOT
BRANCH   6  19
ATOM     19  O   UNL     1       6.844   3.680  16.222  0.00  0.00    +0.000 OA
ATOM     20  H   UNL     1       7.200   3.109  16.929  0.00  0.00    +0.000 HD
ENDBRANCH   6  19
BRANCH   1  21
ATOM     21  C   UNL     1       2.753   8.512  17.681  0.00  0.00    +0.000 C 
BRANCH  21  24
ATOM     22  C   UNL     1       0.581   9.073  20.817  0.00  0.00    +0.000 A 
ATOM     23  C   UNL     1       1.635   8.636  20.002  0.00  0.00    +0.000 A 
ATOM     24  C   UNL     1       1.655   8.922  18.635  0.00  0.00    +0.000 A 
ATOM     25  C   UNL     1       0.555   9.620  18.097  0.00  0.00    +0.000 A 
ATOM     26  C   UNL     1      -0.505  10.060  18.897  0.00  0.00    +0.000 A 
ATOM     27  C   UNL     1      -0.488   9.783  20.264  0.00  0.00    +0.000 A 
BRANCH  22  29
ATOM     28  C   UNL     1       0.001   9.541  23.081  0.00  0.00    +0.000 C 
ATOM     29  O   UNL     1       0.714   8.750  22.140  0.00  0.00    +0.000 OA
ENDBRANCH  22  29
BRANCH  26  30
ATOM     30  O   UNL     1      -1.486  10.746  18.232  0.00  0.00    +0.000 OA
ATOM     31  C   UNL     1      -2.193  10.039  17.218  0.00  0.00    +0.000 C 
ENDBRANCH  26  30
ENDBRANCH  21  24
ENDBRANCH   1  21
TORSDOF 5
ENDMDL
MODEL 2
REMARK VINA RESULT:      -8.5      0.126      2.253
REMARK  Name = 
REMARK  7 active torsions:
REMARK  status: ('A' for Active; 'I' for Inactive)
REMARK    1  A    between atoms: C_1  and  O_2
REMARK    2  A    between atoms: O_2  and  C_3
REMARK    3  A    between atoms: C_5  and  C_6
REMARK    4  A    between atoms: C_6  and  N_7
REMARK    5  A    between atoms: C_12  and  O_13
REMARK    6  A    between atoms: C_27  and  O_28
REMARK    7  A    between atoms: O_28  and  C_29
REMARK                            x       y       z     vdW  Elec       q    Type
REMARK                         _______ _______ _______ _____ _____    ______ ____
ROOT
ATOM      1  N   UNL     1       3.099   7.140  17.613  0.00  0.00    +0.000 N 
ATOM      2  C   UNL     1       2.443   6.102  18.320  0.00  0.00    +0.000 A 
ATOM      3  C   UNL     1       3.405   5.843  19.286  0.00  0.00    +0.000 A 
ATOM      4  C   UNL     1       4.483   5.609  18.348  0.00  0.00    +0.000 A 
ATOM      5  C   UNL     1       5.249   4.525  17.889  0.00  0.00    +0.000 A 
ATOM      6  C   UNL     1       6.197   4.749  16.899  0.00  0.00    +0.000 A 
ATOM      7  C   UNL     1       6.463   6.032  16.472  0.00  0.00    +0.000 A 
ATOM      8  C   UNL     1       5.556   7.062  16.731  0.00  0.00    +0.000 A 
ATOM      9  C   UNL     1       4.430   6.702  17.492  0.00  0.00    +0.000 A 
ATOM     10  C   UNL     1       2.977   5.065  20.490  0.00  0.00    +0.000 C 
ATOM     11  C   UNL     1       2.834   3.703  19.880  0.00  0.00    +0.000 A 
ATOM     12  C   UNL     1       3.667   2.688  20.384  0.00  0.00    +0.000 A 
ATOM     13  C   UNL     1       3.911   1.565  19.608  0.00  0.00    +0.000 A 
ATOM     14  C   UNL     1       3.237   1.407  18.389  0.00  0.00    +0.000 A 
ATOM     15  C   UNL     1       2.340   2.392  17.914  0.00  0.00    +0.000 A 
ATOM     16  C   UNL     1       2.154   3.577  18.624  0.00  0.00    +0.000 A 
ATOM     17  C   UNL     1       1.673   4.878  17.894  0.00  0.00    +0.000 C 
ATOM     18  O   UNL     1       0.883   4.839  16.950  0.00  0.00    +0.000 OA
ENDROOT
BRANCH   6  19
ATOM     19  O   UNL     1       6.809   3.687  16.289  0.00  0.00    +0.000 OA
ATOM     20  H   UNL     1       7.201   4.020  15.460  0.00  0.00    +0.000 HD
ENDBRANCH   6  19
BRANCH   1  21
ATOM     21  C   UNL     1       2.775   8.573  17.730  0.00  0.00    +0.000 C 
BRANCH  21  24
ATOM     22  C   UNL     1      -0.620   9.920  18.966  0.00  0.00    +0.000 A 
ATOM     23  C   UNL     1       0.434   9.589  18.102  0.00  0.00    +0.000 A 
ATOM     24  C   UNL     1       1.597   8.983  18.583  0.00  0.00    +0.000 A 
ATOM     25  C   UNL     1       1.693   8.763  19.971  0.00  0.00    +0.000 A 
ATOM     26  C   UNL     1       0.650   9.089  20.846  0.00  0.00    +0.000 A 
ATOM     27  C   UNL     1      -0.510   9.672  20.337  0.00  0.00    +0.000 A 
BRANCH  22  29
ATOM     28  C   UNL     1      -2.090   9.937  17.091  0.00  0.00    +0.000 C 
ATOM     29  O   UNL     1      -1.707  10.475  18.349  0.00  0.00    +0.000 OA
ENDBRANCH  22  29
BRANCH  26  30
ATOM     30  O   UNL     1       0.884   8.791  22.162  0.00  0.00    +0.000 OA
ATOM     31  C   UNL     1       0.086   9.467  23.128  0.00  0.00    +0.000 C 
ENDBRANCH  26  30
ENDBRANCH  21  24
ENDBRANCH   1  21
TORSDOF 5
ENDMDL
MODEL 3
REMARK VINA RESULT:      -8.3      2.066      8.033
REMARK  Name = 
REMARK  7 active torsions:
REMARK  status: ('A' for Active; 'I' for Inactive)
REMARK    1  A    between atoms: C_1  and  O_2
REMARK    2  A    between atoms: O_2  and  C_3
REMARK    3  A    between atoms: C_5  and  C_6
REMARK    4  A    between atoms: C_6  and  N_7
REMARK    5  A    between atoms: C_12  and  O_13
REMARK    6  A    between atoms: C_27  and  O_28
REMARK    7  A    between atoms: O_28  and  C_29
REMARK                            x       y       z     vdW  Elec       q    Type
REMARK                         _______ _______ _______ _____ _____    ______ ____
ROOT
ATOM      1  N   UNL     1       1.247   8.987  18.580  0.00  0.00    +0.000 N 
ATOM      2  C   UNL     1       0.560  10.135  18.113  0.00  0.00    +0.000 A 
ATOM      3  C   UNL     1       1.142  11.094  18.929  0.00  0.00    +0.000 A 
ATOM      4  C   UNL     1       0.823  10.429  20.175  0.00  0.00    +0.000 A 
ATOM      5  C   UNL     1      -0.037  10.619  21.269  0.00  0.00    +0.000 A 
ATOM      6  C   UNL     1      -0.054   9.665  22.278  0.00  0.00    +0.000 A 
ATOM      7  C   UNL     1       0.847   8.623  22.262  0.00  0.00    +0.000 A 
ATOM      8  C   UNL     1       1.519   8.291  21.083  0.00  0.00    +0.000 A 
ATOM      9  C   UNL     1       1.256   9.122  19.980  0.00  0.00    +0.000 A 
ATOM     10  C   UNL     1       0.985  12.526  18.524  0.00  0.00    +0.000 C 
ATOM     11  C   UNL     1      -0.462  12.732  18.855  0.00  0.00    +0.000 A 
ATOM     12  C   UNL     1      -0.762  13.702  19.829  0.00  0.00    +0.000 A 
ATOM     13  C   UNL     1      -1.978  13.641  20.491  0.00  0.00    +0.000 A 
ATOM     14  C   UNL     1      -2.931  12.689  20.103  0.00  0.00    +0.000 A 
ATOM     15  C   UNL     1      -2.662  11.760  19.073  0.00  0.00    +0.000 A 
ATOM     16  C   UNL     1      -1.409  11.732  18.459  0.00  0.00    +0.000 A 
ATOM     17  C   UNL     1      -0.883  10.420  17.781  0.00  0.00    +0.000 C 
ATOM     18  O   UNL     1      -1.638   9.637  17.205  0.00  0.00    +0.000 OA
ENDROOT
BRANCH   6  19
ATOM     19  O   UNL     1      -1.022   9.715  23.245  0.00  0.00    +0.000 OA
ATOM     20  H   UNL     1      -0.637   9.330  24.056  0.00  0.00    +0.000 HD
ENDBRANCH   6  19
BRANCH   1  21
ATOM     21  C   UNL     1       2.356   8.324  17.872  0.00  0.00    +0.000 C 
BRANCH  21  24
ATOM     22  C   UNL     1       2.029   4.496  18.201  0.00  0.00    +0.000 A 
ATOM     23  C   UNL     1       1.693   5.833  17.940  0.00  0.00    +0.000 A 
ATOM     24  C   UNL     1       2.617   6.860  18.141  0.00  0.00    +0.000 A 
ATOM     25  C   UNL     1       3.880   6.511  18.662  0.00  0.00    +0.000 A 
ATOM     26  C   UNL     1       4.228   5.182  18.929  0.00  0.00    +0.000 A 
ATOM     27  C   UNL     1       3.295   4.173  18.696  0.00  0.00    +0.000 A 
BRANCH  22  29
ATOM     28  C   UNL     1       1.035   2.378  18.656  0.00  0.00    +0.000 C 
ATOM     29  O   UNL     1       1.036   3.597  17.924  0.00  0.00    +0.000 OA
ENDBRANCH  22  29
BRANCH  26  30
ATOM     30  O   UNL     1       5.498   5.003  19.408  0.00  0.00    +0.000 OA
ATOM     31  C   UNL     1       6.552   5.639  18.692  0.00  0.00    +0.000 C 
ENDBRANCH  26  30
ENDBRANCH  21  24
ENDBRANCH   1  21
TORSDOF 5
ENDMDL
MODEL 4
REMARK VINA RESULT:      -8.2      2.147      7.956
REMARK  Name = 
REMARK  7 active torsions:
REMARK  status: ('A' for Active; 'I' for Inactive)
REMARK    1  A    between atoms: C_1  and  O_2
REMARK    2  A    between atoms: O_2  and  C_3
REMARK    3  A    between atoms: C_5  and  C_6
REMARK    4  A    between atoms: C_6  and  N_7
REMARK    5  A    between atoms: C_12  and  O_13
REMARK    6  A    between atoms: C_27  and  O_28
REMARK    7  A    between atoms: O_28  and  C_29
REMARK                            x       y       z     vdW  Elec       q    Type
REMARK                         _______ _______ _______ _____ _____    ______ ____
ROOT
ATOM      1  N   UNL     1       1.064   9.149  18.524  0.00  0.00    +0.000 N 
ATOM      2  C   UNL     1       0.322  10.280  18.103  0.00  0.00    +0.000 A 
ATOM      3  C   UNL     1       0.910  11.247  18.907  0.00  0.00    +0.000 A 
ATOM      4  C   UNL     1       0.666  10.556  20.156  0.00  0.00    +0.000 A 
ATOM      5  C   UNL     1      -0.151  10.705  21.288  0.00  0.00    +0.000 A 
ATOM      6  C   UNL     1      -0.095   9.738  22.284  0.00  0.00    +0.000 A 
ATOM      7  C   UNL     1       0.837   8.725  22.215  0.00  0.00    +0.000 A 
ATOM      8  C   UNL     1       1.466   8.429  21.003  0.00  0.00    +0.000 A 
ATOM      9  C   UNL     1       1.130   9.266  19.924  0.00  0.00    +0.000 A 
ATOM     10  C   UNL     1       0.692  12.678  18.530  0.00  0.00    +0.000 C 
ATOM     11  C   UNL     1      -0.745  12.834  18.925  0.00  0.00    +0.000 A 
ATOM     12  C   UNL     1      -1.032  13.782  19.925  0.00  0.00    +0.000 A 
ATOM     13  C   UNL     1      -2.216  13.675  20.639  0.00  0.00    +0.000 A 
ATOM     14  C   UNL     1      -3.155  12.698  20.279  0.00  0.00    +0.000 A 
ATOM     15  C   UNL     1      -2.903  11.792  19.224  0.00  0.00    +0.000 A 
ATOM     16  C   UNL     1      -1.678  11.810  18.557  0.00  0.00    +0.000 A 
ATOM     17  C   UNL     1      -1.141  10.524  17.838  0.00  0.00    +0.000 C 
ATOM     18  O   UNL     1      -1.896   9.726  17.284  0.00  0.00    +0.000 OA
ENDROOT
BRANCH   6  19
ATOM     19  O   UNL     1      -1.021   9.745  23.293  0.00  0.00    +0.000 OA
ATOM     20  H   UNL     1      -0.881  10.564  23.805  0.00  0.00    +0.000 HD
ENDBRANCH   6  19
BRANCH   1  21
ATOM     21  C   UNL     1       2.161   8.530  17.759  0.00  0.00    +0.000 C 
BRANCH  21  24
ATOM     22  C   UNL     1       4.165   5.502  19.057  0.00  0.00    +0.000 A 
ATOM     23  C   UNL     1       3.838   6.824  18.725  0.00  0.00    +0.000 A 
ATOM     24  C   UNL     1       2.612   7.137  18.134  0.00  0.00    +0.000 A 
ATOM     25  C   UNL     1       1.738   6.071  17.839  0.00  0.00    +0.000 A 
ATOM     26  C   UNL     1       2.052   4.746  18.162  0.00  0.00    +0.000 A 
ATOM     27  C   UNL     1       3.273   4.464  18.774  0.00  0.00    +0.000 A 
BRANCH  22  29
ATOM     28  C   UNL     1       6.505   5.118  18.820  0.00  0.00    +0.000 C 
ATOM     29  O   UNL     1       5.384   5.353  19.661  0.00  0.00    +0.000 OA
ENDBRANCH  22  29
BRANCH  26  30
ATOM     30  O   UNL     1       1.091   3.828  17.834  0.00  0.00    +0.000 OA
ATOM     31  C   UNL     1       1.005   2.665  18.652  0.00  0.00    +0.000 C 
ENDBRANCH  26  30
ENDBRANCH  21  24
ENDBRANCH   1  21
TORSDOF 5
ENDMDL
MODEL 5
REMARK VINA RESULT:      -8.0      2.929      7.120
REMARK  Name = 
REMARK  7 active torsions:
REMARK  status: ('A' for Active; 'I' for Inactive)
REMARK    1  A    between atoms: C_1  and  O_2
REMARK    2  A    between atoms: O_2  and  C_3
REMARK    3  A    between atoms: C_5  and  C_6
REMARK    4  A    between atoms: C_6  and  N_7
REMARK    5  A    between atoms: C_12  and  O_13
REMARK    6  A    between atoms: C_27  and  O_28
REMARK    7  A    between atoms: O_28  and  C_29
REMARK                            x       y       z     vdW  Elec       q    Type
REMARK                         _______ _______ _______ _____ _____    ______ ____
ROOT
ATOM      1  N   UNL     1       5.725   4.435  17.690  0.00  0.00    +0.000 N 
ATOM      2  C   UNL     1       4.953   3.369  18.214  0.00  0.00    +0.000 A 
ATOM      3  C   UNL     1       3.873   3.423  17.344  0.00  0.00    +0.000 A 
ATOM      4  C   UNL     1       3.570   4.818  17.586  0.00  0.00    +0.000 A 
ATOM      5  C   UNL     1       2.568   5.574  18.217  0.00  0.00    +0.000 A 
ATOM      6  C   UNL     1       2.700   6.956  18.256  0.00  0.00    +0.000 A 
ATOM      7  C   UNL     1       3.729   7.574  17.579  0.00  0.00    +0.000 A 
ATOM      8  C   UNL     1       4.844   6.839  17.172  0.00  0.00    +0.000 A 
ATOM      9  C   UNL     1       4.794   5.460  17.441  0.00  0.00    +0.000 A 
ATOM     10  C   UNL     1       2.974   2.228  17.290  0.00  0.00    +0.000 C 
ATOM     11  C   UNL     1       2.270   2.375  18.605  0.00  0.00    +0.000 A 
ATOM     12  C   UNL     1       0.875   2.555  18.563  0.00  0.00    +0.000 A 
ATOM     13  C   UNL     1       0.234   3.125  19.653  0.00  0.00    +0.000 A 
ATOM     14  C   UNL     1       0.965   3.408  20.816  0.00  0.00    +0.000 A 
ATOM     15  C   UNL     1       2.354   3.158  20.887  0.00  0.00    +0.000 A 
ATOM     16  C   UNL     1       3.043   2.681  19.772  0.00  0.00    +0.000 A 
ATOM     17  C   UNL     1       4.580   2.943  19.611  0.00  0.00    +0.000 C 
ATOM     18  O   UNL     1       5.340   2.971  20.579  0.00  0.00    +0.000 OA
ENDROOT
BRANCH   6  19
ATOM     19  O   UNL     1       1.854   7.698  19.037  0.00  0.00    +0.000 OA
ATOM     20  H   UNL     1       1.195   7.083  19.411  0.00  0.00    +0.000 HD
ENDBRANCH   6  19
BRANCH   1  21
ATOM     21  C   UNL     1       6.923   4.272  16.847  0.00  0.00    +0.000 C 
BRANCH  21  24
ATOM     22  C   UNL     1       5.732   3.658  13.232  0.00  0.00    +0.000 A 
ATOM     23  C   UNL     1       5.822   3.556  14.628  0.00  0.00    +0.000 A 
ATOM     24  C   UNL     1       6.762   4.299  15.345  0.00  0.00    +0.000 A 
ATOM     25  C   UNL     1       7.648   5.114  14.612  0.00  0.00    +0.000 A 
ATOM     26  C   UNL     1       7.572   5.224  13.219  0.00  0.00    +0.000 A 
ATOM     27  C   UNL     1       6.607   4.490  12.529  0.00  0.00    +0.000 A 
BRANCH  22  29
ATOM     28  C   UNL     1       4.291   3.269  11.374  0.00  0.00    +0.000 C 
ATOM     29  O   UNL     1       4.742   2.899  12.670  0.00  0.00    +0.000 OA
ENDBRANCH  22  29
BRANCH  26  30
ATOM     30  O   UNL     1       8.484   6.075  12.655  0.00  0.00    +0.000 OA
ATOM     31  C   UNL     1       8.180   6.578  11.358  0.00  0.00    +0.000 C 
ENDBRANCH  26  30
ENDBRANCH  21  24
ENDBRANCH   1  21
TORSDOF 5
ENDMDL
MODEL 6
REMARK VINA RESULT:      -7.8      1.826      4.275
REMARK  Name = 
REMARK  7 active torsions:
REMARK  status: ('A' for Active; 'I' for Inactive)
REMARK    1  A    between atoms: C_1  and  O_2
REMARK    2  A    between atoms: O_2  and  C_3
REMARK    3  A    between atoms: C_5  and  C_6
REMARK    4  A    between atoms: C_6  and  N_7
REMARK    5  A    between atoms: C_12  and  O_13
REMARK    6  A    between atoms: C_27  and  O_28
REMARK    7  A    between atoms: O_28  and  C_29
REMARK                            x       y       z     vdW  Elec       q    Type
REMARK                         _______ _______ _______ _____ _____    ______ ____
ROOT
ATOM      1  N   UNL     1       2.943   5.683  20.145  0.00  0.00    +0.000 N 
ATOM      2  C   UNL     1       4.023   6.135  19.347  0.00  0.00    +0.000 A 
ATOM      3  C   UNL     1       3.339   6.391  18.166  0.00  0.00    +0.000 A 
ATOM      4  C   UNL     1       2.764   5.068  18.050  0.00  0.00    +0.000 A 
ATOM      5  C   UNL     1       2.910   3.935  17.233  0.00  0.00    +0.000 A 
ATOM      6  C   UNL     1       2.150   2.807  17.514  0.00  0.00    +0.000 A 
ATOM      7  C   UNL     1       1.184   2.848  18.496  0.00  0.00    +0.000 A 
ATOM      8  C   UNL     1       1.203   3.860  19.459  0.00  0.00    +0.000 A 
ATOM      9  C   UNL     1       2.210   4.829  19.302  0.00  0.00    +0.000 A 
ATOM     10  C   UNL     1       4.025   7.246  17.148  0.00  0.00    +0.000 C 
ATOM     11  C   UNL     1       5.062   6.282  16.656  0.00  0.00    +0.000 A 
ATOM     12  C   UNL     1       5.006   5.924  15.297  0.00  0.00    +0.000 A 
ATOM     13  C   UNL     1       5.614   4.750  14.881  0.00  0.00    +0.000 A 
ATOM     14  C   UNL     1       6.366   3.998  15.795  0.00  0.00    +0.000 A 
ATOM     15  C   UNL     1       6.487   4.395  17.146  0.00  0.00    +0.000 A 
ATOM     16  C   UNL     1       5.803   5.516  17.615  0.00  0.00    +0.000 A 
ATOM     17  C   UNL     1       5.433   5.648  19.133  0.00  0.00    +0.000 C 
ATOM     18  O   UNL     1       6.169   5.217  20.021  0.00  0.00    +0.000 OA
ENDROOT
BRANCH   6  19
ATOM     19  O   UNL     1       2.418   1.628  16.871  0.00  0.00    +0.000 OA
ATOM     20  H   UNL     1       2.329   1.797  15.914  0.00  0.00    +0.000 HD
ENDBRANCH   6  19
BRANCH   1  21
ATOM     21  C   UNL     1       2.275   6.483  21.188  0.00  0.00    +0.000 C 
BRANCH  21  24
ATOM     22  C   UNL     1       0.746   9.420  19.212  0.00  0.00    +0.000 A 
ATOM     23  C   UNL     1       1.369   8.193  19.483  0.00  0.00    +0.000 A 
ATOM     24  C   UNL     1       1.627   7.790  20.795  0.00  0.00    +0.000 A 
ATOM     25  C   UNL     1       1.285   8.681  21.832  0.00  0.00    +0.000 A 
ATOM     26  C   UNL     1       0.664   9.909  21.577  0.00  0.00    +0.000 A 
ATOM     27  C   UNL     1       0.395  10.277  20.259  0.00  0.00    +0.000 A 
BRANCH  22  29
ATOM     28  C   UNL     1      -0.792  10.029  17.496  0.00  0.00    +0.000 C 
ATOM     29  O   UNL     1       0.526   9.664  17.884  0.00  0.00    +0.000 OA
ENDBRANCH  22  29
BRANCH  26  30
ATOM     30  O   UNL     1       0.371  10.651  22.690  0.00  0.00    +0.000 OA
ATOM     31  C   UNL     1      -0.986  10.655  23.122  0.00  0.00    +0.000 C 
ENDBRANCH  26  30
ENDBRANCH  21  24
ENDBRANCH   1  21
TORSDOF 5
ENDMDL
MODEL 7
REMARK VINA RESULT:      -7.7      2.234      8.140
REMARK  Name = 
REMARK  7 active torsions:
REMARK  status: ('A' for Active; 'I' for Inactive)
REMARK    1  A    between atoms: C_1  and  O_2
REMARK    2  A    between atoms: O_2  and  C_3
REMARK    3  A    between atoms: C_5  and  C_6
REMARK    4  A    between atoms: C_6  and  N_7
REMARK    5  A    between atoms: C_12  and  O_13
REMARK    6  A    between atoms: C_27  and  O_28
REMARK    7  A    between atoms: O_28  and  C_29
REMARK                            x       y       z     vdW  Elec       q    Type
REMARK                         _______ _______ _______ _____ _____    ______ ____
ROOT
ATOM      1  N   UNL     1       1.276   9.211  18.995  0.00  0.00    +0.000 N 
ATOM      2  C   UNL     1       0.552  10.280  18.412  0.00  0.00    +0.000 A 
ATOM      3  C   UNL     1       1.035  11.327  19.185  0.00  0.00    +0.000 A 
ATOM      4  C   UNL     1       0.687  10.732  20.458  0.00  0.00    +0.000 A 
ATOM      5  C   UNL     1      -0.240  10.947  21.491  0.00  0.00    +0.000 A 
ATOM      6  C   UNL     1      -0.257  10.066  22.565  0.00  0.00    +0.000 A 
ATOM      7  C   UNL     1       0.700   9.080  22.670  0.00  0.00    +0.000 A 
ATOM      8  C   UNL     1       1.451   8.708  21.552  0.00  0.00    +0.000 A 
ATOM      9  C   UNL     1       1.202   9.444  20.380  0.00  0.00    +0.000 A 
ATOM     10  C   UNL     1       0.821  12.715  18.669  0.00  0.00    +0.000 C 
ATOM     11  C   UNL     1      -0.651  12.858  18.912  0.00  0.00    +0.000 A 
ATOM     12  C   UNL     1      -1.056  13.874  19.798  0.00  0.00    +0.000 A 
ATOM     13  C   UNL     1      -2.300  13.788  20.402  0.00  0.00    +0.000 A 
ATOM     14  C   UNL     1      -3.177  12.756  20.037  0.00  0.00    +0.000 A 
ATOM     15  C   UNL     1      -2.802  11.775  19.091  0.00  0.00    +0.000 A 
ATOM     16  C   UNL     1      -1.519  11.778  18.544  0.00  0.00    +0.000 A 
ATOM     17  C   UNL     1      -0.884  10.456  17.990  0.00  0.00    +0.000 C 
ATOM     18  O   UNL     1      -1.563   9.592  17.435  0.00  0.00    +0.000 OA
ENDROOT
BRANCH   6  19
ATOM     19  O   UNL     1      -1.277  10.126  23.477  0.00  0.00    +0.000 OA
ATOM     20  H   UNL     1      -1.163  10.953  23.981  0.00  0.00    +0.000 HD
ENDBRANCH   6  19
BRANCH   1  21
ATOM     21  C   UNL     1       2.457   8.567  18.393  0.00  0.00    +0.000 C 
BRANCH  21  24
ATOM     22  C   UNL     1       3.430   4.885  17.788  0.00  0.00    +0.000 A 
ATOM     23  C   UNL     1       3.351   6.275  17.619  0.00  0.00    +0.000 A 
ATOM     24  C   UNL     1       2.588   7.064  18.482  0.00  0.00    +0.000 A 
ATOM     25  C   UNL     1       1.862   6.408  19.497  0.00  0.00    +0.000 A 
ATOM     26  C   UNL     1       1.929   5.022  19.677  0.00  0.00    +0.000 A 
ATOM     27  C   UNL     1       2.718   4.260  18.815  0.00  0.00    +0.000 A 
BRANCH  22  29
ATOM     28  C   UNL     1       5.172   5.047  16.169  0.00  0.00    +0.000 C 
ATOM     29  O   UNL     1       4.242   4.249  16.889  0.00  0.00    +0.000 OA
ENDBRANCH  22  29
BRANCH  26  30
ATOM     30  O   UNL     1       1.187   4.538  20.720  0.00  0.00    +0.000 OA
ATOM     31  C   UNL     1       1.306   3.147  21.005  0.00  0.00    +0.000 C 
ENDBRANCH  26  30
ENDBRANCH  21  24
ENDBRANCH   1  21
TORSDOF 5
ENDMDL
MODEL 8
REMARK VINA RESULT:      -7.5      1.379      1.606
REMARK  Name = 
REMARK  7 active torsions:
REMARK  status: ('A' for Active; 'I' for Inactive)
REMARK    1  A    between atoms: C_1  and  O_2
REMARK    2  A    between atoms: O_2  and  C_3
REMARK    3  A    between atoms: C_5  and  C_6
REMARK    4  A    between atoms: C_6  and  N_7
REMARK    5  A    between atoms: C_12  and  O_13
REMARK    6  A    between atoms: C_27  and  O_28
REMARK    7  A    between atoms: O_28  and  C_29
REMARK                            x       y       z     vdW  Elec       q    Type
REMARK                         _______ _______ _______ _____ _____    ______ ____
ROOT
ATOM      1  N   UNL     1       2.692   6.995  17.692  0.00  0.00    +0.000 N 
ATOM      2  C   UNL     1       1.981   5.981  18.380  0.00  0.00    +0.000 A 
ATOM      3  C   UNL     1       2.640   6.031  19.600  0.00  0.00    +0.000 A 
ATOM      4  C   UNL     1       3.965   5.839  19.049  0.00  0.00    +0.000 A 
ATOM      5  C   UNL     1       4.952   4.840  19.027  0.00  0.00    +0.000 A 
ATOM      6  C   UNL     1       6.117   5.067  18.306  0.00  0.00    +0.000 A 
ATOM      7  C   UNL     1       6.347   6.298  17.731  0.00  0.00    +0.000 A 
ATOM      8  C   UNL     1       5.292   7.192  17.536  0.00  0.00    +0.000 A 
ATOM      9  C   UNL     1       4.041   6.769  18.019  0.00  0.00    +0.000 A 
ATOM     10  C   UNL     1       1.970   5.380  20.769  0.00  0.00    +0.000 C 
ATOM     11  C   UNL     1       2.169   3.938  20.412  0.00  0.00    +0.000 A 
ATOM     12  C   UNL     1       2.929   3.160  21.305  0.00  0.00    +0.000 A 
ATOM     13  C   UNL     1       3.516   1.990  20.851  0.00  0.00    +0.000 A 
ATOM     14  C   UNL     1       3.253   1.544  19.548  0.00  0.00    +0.000 A 
ATOM     15  C   UNL     1       2.429   2.286  18.671  0.00  0.00    +0.000 A 
ATOM     16  C   UNL     1       1.908   3.517  19.067  0.00  0.00    +0.000 A 
ATOM     17  C   UNL     1       1.516   4.598  18.001  0.00  0.00    +0.000 C 
ATOM     18  O   UNL     1       1.049   4.290  16.905  0.00  0.00    +0.000 OA
ENDROOT
BRANCH   6  19
ATOM     19  O   UNL     1       6.998   4.040  18.096  0.00  0.00    +0.000 OA
ATOM     20  H   UNL     1       7.828   4.438  17.770  0.00  0.00    +0.000 HD
ENDBRANCH   6  19
BRANCH   1  21
ATOM     21  C   UNL     1       2.186   8.357  17.444  0.00  0.00    +0.000 C 
BRANCH  21  24
ATOM     22  C   UNL     1       0.721   9.436  20.843  0.00  0.00    +0.000 A 
ATOM     23  C   UNL     1       1.177   8.613  19.803  0.00  0.00    +0.000 A 
ATOM     24  C   UNL     1       1.657   9.158  18.611  0.00  0.00    +0.000 A 
ATOM     25  C   UNL     1       1.619  10.560  18.471  0.00  0.00    +0.000 A 
ATOM     26  C   UNL     1       1.165  11.394  19.499  0.00  0.00    +0.000 A 
ATOM     27  C   UNL     1       0.713  10.825  20.690  0.00  0.00    +0.000 A 
BRANCH  22  29
ATOM     28  C   UNL     1       0.109   9.526  23.145  0.00  0.00    +0.000 C 
ATOM     29  O   UNL     1       0.313   8.763  21.963  0.00  0.00    +0.000 OA
ENDBRANCH  22  29
BRANCH  26  30
ATOM     30  O   UNL     1       1.214  12.734  19.221  0.00  0.00    +0.000 OA
ATOM     31  C   UNL     1       2.364  13.206  18.527  0.00  0.00    +0.000 C 
ENDBRANCH  26  30
ENDBRANCH  21  24
ENDBRANCH   1  21
TORSDOF 5
ENDMDL
MODEL 9
REMARK VINA RESULT:      -7.5      2.986      8.230
REMARK  Name = 
REMARK  7 active torsions:
REMARK  status: ('A' for Active; 'I' for Inactive)
REMARK    1  A    between atoms: C_1  and  O_2
REMARK    2  A    between atoms: O_2  and  C_3
REMARK    3  A    between atoms: C_5  and  C_6
REMARK    4  A    between atoms: C_6  and  N_7
REMARK    5  A    between atoms: C_12  and  O_13
REMARK    6  A    between atoms: C_27  and  O_28
REMARK    7  A    between atoms: O_28  and  C_29
REMARK                            x       y       z     vdW  Elec       q    Type
REMARK                         _______ _______ _______ _____ _____    ______ ____
ROOT
ATOM      1  N   UNL     1       1.406  10.450  18.770  0.00  0.00    +0.000 N 
ATOM      2  C   UNL     1       0.217  10.455  19.542  0.00  0.00    +0.000 A 
ATOM      3  C   UNL     1      -0.499  11.421  18.849  0.00  0.00    +0.000 A 
ATOM      4  C   UNL     1       0.519  12.446  18.950  0.00  0.00    +0.000 A 
ATOM      5  C   UNL     1       0.710  13.664  19.622  0.00  0.00    +0.000 A 
ATOM      6  C   UNL     1       1.914  14.335  19.459  0.00  0.00    +0.000 A 
ATOM      7  C   UNL     1       2.848  13.874  18.557  0.00  0.00    +0.000 A 
ATOM      8  C   UNL     1       2.780  12.562  18.082  0.00  0.00    +0.000 A 
ATOM      9  C   UNL     1       1.682  11.809  18.535  0.00  0.00    +0.000 A 
ATOM     10  C   UNL     1      -1.973  11.488  19.092  0.00  0.00    +0.000 C 
ATOM     11  C   UNL     1      -1.983  12.080  20.468  0.00  0.00    +0.000 A 
ATOM     12  C   UNL     1      -2.607  13.332  20.619  0.00  0.00    +0.000 A 
ATOM     13  C   UNL     1      -2.280  14.123  21.710  0.00  0.00    +0.000 A 
ATOM     14  C   UNL     1      -1.424  13.619  22.699  0.00  0.00    +0.000 A 
ATOM     15  C   UNL     1      -0.853  12.331  22.587  0.00  0.00    +0.000 A 
ATOM     16  C   UNL     1      -1.083  11.554  21.452  0.00  0.00    +0.000 A 
ATOM     17  C   UNL     1      -0.060  10.446  21.023  0.00  0.00    +0.000 C 
ATOM     18  O   UNL     1       0.567   9.784  21.851  0.00  0.00    +0.000 OA
ENDROOT
BRANCH   6  19
ATOM     19  O   UNL     1       2.209  15.409  20.256  0.00  0.00    +0.000 OA
ATOM     20  H   UNL     1       1.387  15.653  20.723  0.00  0.00    +0.000 HD
ENDBRANCH   6  19
BRANCH   1  21
ATOM     21  C   UNL     1       1.763   9.417  17.781  0.00  0.00    +0.000 C 
BRANCH  21  24
ATOM     22  C   UNL     1       2.544   6.217  19.785  0.00  0.00    +0.000 A 
ATOM     23  C   UNL     1       1.944   7.428  19.413  0.00  0.00    +0.000 A 
ATOM     24  C   UNL     1       2.360   8.119  18.273  0.00  0.00    +0.000 A 
ATOM     25  C   UNL     1       3.436   7.580  17.539  0.00  0.00    +0.000 A 
ATOM     26  C   UNL     1       4.046   6.373  17.898  0.00  0.00    +0.000 A 
ATOM     27  C   UNL     1       3.595   5.692  19.029  0.00  0.00    +0.000 A 
BRANCH  22  29
ATOM     28  C   UNL     1       1.930   4.219  20.930  0.00  0.00    +0.000 C 
ATOM     29  O   UNL     1       2.010   5.638  20.904  0.00  0.00    +0.000 OA
ENDBRANCH  22  29
BRANCH  26  30
ATOM     30  O   UNL     1       5.060   5.969  17.072  0.00  0.00    +0.000 OA
ATOM     31  C   UNL     1       6.277   6.706  17.137  0.00  0.00    +0.000 C 
ENDBRANCH  26  30
ENDBRANCH  21  24
ENDBRANCH   1  21
TORSDOF 5
ENDMDL
