MODEL 1
REMARK VINA RESULT:      -8.3      0.000      0.000
REMARK  Name = 
REMARK  2 active torsions:
REMARK  status: ('A' for Active; 'I' for Inactive)
REMARK    1  A    between atoms: C_8  and  C_9
REMARK    2  A    between atoms: N_16  and  C_17
REMARK                            x       y       z     vdW  Elec       q    Type
REMARK                         _______ _______ _______ _____ _____    ______ ____
ROOT
ATOM      1  O   UNL     1       3.500   1.979  17.827  0.00  0.00    +0.000 OA
ATOM      2  C   UNL     1       3.004   2.944  18.383  0.00  0.00    +0.000 C 
ATOM      3  O   UNL     1       2.000   2.884  19.331  0.00  0.00    +0.000 OA
ATOM      4  C   UNL     1       1.650   4.163  19.728  0.00  0.00    +0.000 C 
ATOM      5  O   UNL     1       0.769   4.422  20.530  0.00  0.00    +0.000 OA
ATOM      6  C   UNL     1       2.504   5.037  19.004  0.00  0.00    +0.000 A 
ATOM      7  C   UNL     1       3.311   4.322  18.173  0.00  0.00    +0.000 A 
ATOM      8  C   UNL     1       4.109   5.205  17.436  0.00  0.00    +0.000 A 
ATOM      9  C   UNL     1       3.685   6.471  17.827  0.00  0.00    +0.000 A 
ATOM     10  N   UNL     1       2.698   6.371  18.808  0.00  0.00    +0.000 N 
ENDROOT
BRANCH  10  11
ATOM     11  C   UNL     1       2.038   7.460  19.428  0.00  0.00    +0.000 A 
ATOM     12  C   UNL     1       1.678   8.580  18.663  0.00  0.00    +0.000 A 
ATOM     13  C   UNL     1       0.998   9.644  19.262  0.00  0.00    +0.000 A 
ATOM     14  C   UNL     1       0.707   9.603  20.624  0.00  0.00    +0.000 A 
ATOM     15 CL   UNL     1      -0.119  10.919  21.362  0.00  0.00    +0.000 Cl
ATOM     16  C   UNL     1       1.084   8.504  21.392  0.00  0.00    +0.000 A 
ATOM     17  C   UNL     1       1.744   7.427  20.795  0.00  0.00    +0.000 A 
ENDBRANCH  10  11
BRANCH   8  18
ATOM     18  C   UNL     1       5.140   4.967  16.441  0.00  0.00    +0.000 A 
ATOM     19  C   UNL     1       6.465   5.348  16.687  0.00  0.00    +0.000 A 
ATOM     20  C   UNL     1       7.459   5.132  15.728  0.00  0.00    +0.000 A 
ATOM     21  C   UNL     1       7.138   4.531  14.513  0.00  0.00    +0.000 A 
ATOM     22  C   UNL     1       5.824   4.147  14.254  0.00  0.00    +0.000 A 
ATOM     23  C   UNL     1       4.831   4.364  15.212  0.00  0.00    +0.000 A 
ENDBRANCH   8  18
TORSDOF 2
ENDMDL
MODEL 2
REMARK VINA RESULT:      -8.2      0.089      1.009
REMARK  Name = 
REMARK  2 active torsions:
REMARK  status: ('A' for Active; 'I' for Inactive)
REMARK    1  A    between atoms: C_8  and  C_9
REMARK    2  A    between atoms: N_16  and  C_17
REMARK                            x       y       z     vdW  Elec       q    Type
REMARK                         _______ _______ _______ _____ _____    ______ ____
ROOT
ATOM      1  O   UNL     1       3.453   2.047  17.741  0.00  0.00    +0.000 OA
ATOM      2  C   UNL     1       2.969   3.009  18.312  0.00  0.00    +0.000 C 
ATOM      3  O   UNL     1       1.972   2.947  19.266  0.00  0.00    +0.000 OA
ATOM      4  C   UNL     1       1.634   4.224  19.679  0.00  0.00    +0.000 C 
ATOM      5  O   UNL     1       0.761   4.480  20.490  0.00  0.00    +0.000 OA
ATOM      6  C   UNL     1       2.491   5.099  18.959  0.00  0.00    +0.000 A 
ATOM      7  C   UNL     1       3.286   4.387  18.115  0.00  0.00    +0.000 A 
ATOM      8  C   UNL     1       4.086   5.272  17.382  0.00  0.00    +0.000 A 
ATOM      9  C   UNL     1       3.675   6.537  17.790  0.00  0.00    +0.000 A 
ATOM     10  N   UNL     1       2.694   6.434  18.777  0.00  0.00    +0.000 N 
ENDROOT
BRANCH  10  11
ATOM     11  C   UNL     1       2.048   7.521  19.414  0.00  0.00    +0.000 A 
ATOM     12  C   UNL     1       1.674   8.645  18.661  0.00  0.00    +0.000 A 
ATOM     13  C   UNL     1       1.007   9.706  19.276  0.00  0.00    +0.000 A 
ATOM     14  C   UNL     1       0.742   9.660  20.644  0.00  0.00    +0.000 A 
ATOM     15 CL   UNL     1      -0.068  10.974  21.403  0.00  0.00    +0.000 Cl
ATOM     16  C   UNL     1       1.132   8.558  21.400  0.00  0.00    +0.000 A 
ATOM     17  C   UNL     1       1.779   7.483  20.786  0.00  0.00    +0.000 A 
ENDBRANCH  10  11
BRANCH   8  18
ATOM     18  C   UNL     1       5.108   5.037  16.377  0.00  0.00    +0.000 A 
ATOM     19  C   UNL     1       4.790   4.383  15.181  0.00  0.00    +0.000 A 
ATOM     20  C   UNL     1       5.772   4.144  14.215  0.00  0.00    +0.000 A 
ATOM     21  C   UNL     1       7.082   4.560  14.434  0.00  0.00    +0.000 A 
ATOM     22  C   UNL     1       7.414   5.213  15.620  0.00  0.00    +0.000 A 
ATOM     23  C   UNL     1       6.433   5.449  16.586  0.00  0.00    +0.000 A 
ENDBRANCH   8  18
TORSDOF 2
ENDMDL
MODEL 3
REMARK VINA RESULT:      -8.2      0.114      1.016
REMARK  Name = 
REMARK  2 active torsions:
REMARK  status: ('A' for Active; 'I' for Inactive)
REMARK    1  A    between atoms: C_8  and  C_9
REMARK    2  A    between atoms: N_16  and  C_17
REMARK                            x       y       z     vdW  Elec       q    Type
REMARK                         _______ _______ _______ _____ _____    ______ ____
ROOT
ATOM      1  O   UNL     1       3.479   2.038  17.787  0.00  0.00    +0.000 OA
ATOM      2  C   UNL     1       2.993   3.011  18.337  0.00  0.00    +0.000 C 
ATOM      3  O   UNL     1       1.995   2.967  19.292  0.00  0.00    +0.000 OA
ATOM      4  C   UNL     1       1.654   4.252  19.678  0.00  0.00    +0.000 C 
ATOM      5  O   UNL     1       0.780   4.523  20.482  0.00  0.00    +0.000 OA
ATOM      6  C   UNL     1       2.509   5.113  18.939  0.00  0.00    +0.000 A 
ATOM      7  C   UNL     1       3.307   4.385  18.111  0.00  0.00    +0.000 A 
ATOM      8  C   UNL     1       4.104   5.256  17.360  0.00  0.00    +0.000 A 
ATOM      9  C   UNL     1       3.690   6.528  17.739  0.00  0.00    +0.000 A 
ATOM     10  N   UNL     1       2.708   6.444  18.728  0.00  0.00    +0.000 N 
ENDROOT
BRANCH  10  11
ATOM     11  C   UNL     1       2.059   7.543  19.341  0.00  0.00    +0.000 A 
ATOM     12  C   UNL     1       1.794   7.513  20.719  0.00  0.00    +0.000 A 
ATOM     13  C   UNL     1       1.183   8.608  21.335  0.00  0.00    +0.000 A 
ATOM     14  C   UNL     1       0.810   9.714  20.574  0.00  0.00    +0.000 A 
ATOM     15 CL   UNL     1       0.046  11.056  21.332  0.00  0.00    +0.000 Cl
ATOM     16  C   UNL     1       1.049   9.738  19.202  0.00  0.00    +0.000 A 
ATOM     17  C   UNL     1       1.680   8.656  18.584  0.00  0.00    +0.000 A 
ENDBRANCH  10  11
BRANCH   8  18
ATOM     18  C   UNL     1       5.128   5.002  16.360  0.00  0.00    +0.000 A 
ATOM     19  C   UNL     1       6.455   5.383  16.591  0.00  0.00    +0.000 A 
ATOM     20  C   UNL     1       7.441   5.152  15.628  0.00  0.00    +0.000 A 
ATOM     21  C   UNL     1       7.110   4.534  14.424  0.00  0.00    +0.000 A 
ATOM     22  C   UNL     1       5.793   4.149  14.180  0.00  0.00    +0.000 A 
ATOM     23  C   UNL     1       4.808   4.382  15.142  0.00  0.00    +0.000 A 
ENDBRANCH   8  18
TORSDOF 2
ENDMDL
MODEL 4
REMARK VINA RESULT:      -8.2      0.203      1.439
REMARK  Name = 
REMARK  2 active torsions:
REMARK  status: ('A' for Active; 'I' for Inactive)
REMARK    1  A    between atoms: C_8  and  C_9
REMARK    2  A    between atoms: N_16  and  C_17
REMARK                            x       y       z     vdW  Elec       q    Type
REMARK                         _______ _______ _______ _____ _____    ______ ____
ROOT
ATOM      1  O   UNL     1       3.658   2.123  17.886  0.00  0.00    +0.000 OA
ATOM      2  C   UNL     1       3.145   3.097  18.412  0.00  0.00    +0.000 C 
ATOM      3  O   UNL     1       2.160   3.049  19.380  0.00  0.00    +0.000 OA
ATOM      4  C   UNL     1       1.782   4.333  19.731  0.00  0.00    +0.000 C 
ATOM      5  O   UNL     1       0.908   4.601  20.538  0.00  0.00    +0.000 OA
ATOM      6  C   UNL     1       2.600   5.199  18.957  0.00  0.00    +0.000 A 
ATOM      7  C   UNL     1       3.412   4.472  18.142  0.00  0.00    +0.000 A 
ATOM      8  C   UNL     1       4.172   5.346  17.355  0.00  0.00    +0.000 A 
ATOM      9  C   UNL     1       3.720   6.615  17.702  0.00  0.00    +0.000 A 
ATOM     10  N   UNL     1       2.753   6.529  18.705  0.00  0.00    +0.000 N 
ENDROOT
BRANCH  10  11
ATOM     11  C   UNL     1       2.075   7.624  19.292  0.00  0.00    +0.000 A 
ATOM     12  C   UNL     1       1.788   7.608  20.666  0.00  0.00    +0.000 A 
ATOM     13  C   UNL     1       1.148   8.700  21.257  0.00  0.00    +0.000 A 
ATOM     14  C   UNL     1       0.769   9.789  20.475  0.00  0.00    +0.000 A 
ATOM     15 CL   UNL     1      -0.030  11.127  21.203  0.00  0.00    +0.000 Cl
ATOM     16  C   UNL     1       1.030   9.799  19.108  0.00  0.00    +0.000 A 
ATOM     17  C   UNL     1       1.689   8.721  18.514  0.00  0.00    +0.000 A 
ENDBRANCH  10  11
BRANCH   8  18
ATOM     18  C   UNL     1       5.192   5.095  16.351  0.00  0.00    +0.000 A 
ATOM     19  C   UNL     1       4.869   4.429  15.163  0.00  0.00    +0.000 A 
ATOM     20  C   UNL     1       5.849   4.175  14.199  0.00  0.00    +0.000 A 
ATOM     21  C   UNL     1       7.162   4.588  14.412  0.00  0.00    +0.000 A 
ATOM     22  C   UNL     1       7.498   5.252  15.590  0.00  0.00    +0.000 A 
ATOM     23  C   UNL     1       6.519   5.503  16.554  0.00  0.00    +0.000 A 
ENDBRANCH   8  18
TORSDOF 2
ENDMDL
MODEL 5
REMARK VINA RESULT:      -7.6      2.804      6.572
REMARK  Name = 
REMARK  2 active torsions:
REMARK  status: ('A' for Active; 'I' for Inactive)
REMARK    1  A    between atoms: C_8  and  C_9
REMARK    2  A    between atoms: N_16  and  C_17
REMARK                            x       y       z     vdW  Elec       q    Type
REMARK                         _______ _______ _______ _____ _____    ______ ____
ROOT
ATOM      1  O   UNL     1       1.102   4.368  20.774  0.00  0.00    +0.000 OA
ATOM      2  C   UNL     1       1.897   4.231  19.859  0.00  0.00    +0.000 C 
ATOM      3  O   UNL     1       2.392   3.020  19.413  0.00  0.00    +0.000 OA
ATOM      4  C   UNL     1       3.297   3.230  18.388  0.00  0.00    +0.000 C 
ATOM      5  O   UNL     1       3.919   2.347  17.822  0.00  0.00    +0.000 OA
ATOM      6  C   UNL     1       3.329   4.636  18.186  0.00  0.00    +0.000 A 
ATOM      7  C   UNL     1       2.508   5.256  19.077  0.00  0.00    +0.000 A 
ATOM      8  C   UNL     1       2.593   6.641  18.892  0.00  0.00    +0.000 A 
ATOM      9  C   UNL     1       3.549   6.804  17.895  0.00  0.00    +0.000 A 
ATOM     10  N   UNL     1       4.000   5.562  17.445  0.00  0.00    +0.000 N 
ENDROOT
BRANCH  10  11
ATOM     11  C   UNL     1       4.976   5.353  16.442  0.00  0.00    +0.000 A 
ATOM     12  C   UNL     1       4.668   4.556  15.328  0.00  0.00    +0.000 A 
ATOM     13  C   UNL     1       5.616   4.373  14.319  0.00  0.00    +0.000 A 
ATOM     14  C   UNL     1       6.877   4.956  14.436  0.00  0.00    +0.000 A 
ATOM     15 CL   UNL     1       8.047   4.718  13.198  0.00  0.00    +0.000 Cl
ATOM     16  C   UNL     1       7.195   5.727  15.550  0.00  0.00    +0.000 A 
ATOM     17  C   UNL     1       6.244   5.933  16.553  0.00  0.00    +0.000 A 
ENDBRANCH  10  11
BRANCH   8  18
ATOM     18  C   UNL     1       1.918   7.743  19.555  0.00  0.00    +0.000 A 
ATOM     19  C   UNL     1       1.604   7.666  20.918  0.00  0.00    +0.000 A 
ATOM     20  C   UNL     1       0.945   8.719  21.558  0.00  0.00    +0.000 A 
ATOM     21  C   UNL     1       0.594   9.861  20.843  0.00  0.00    +0.000 A 
ATOM     22  C   UNL     1       0.899   9.952  19.486  0.00  0.00    +0.000 A 
ATOM     23  C   UNL     1       1.556   8.899  18.846  0.00  0.00    +0.000 A 
ENDBRANCH   8  18
TORSDOF 2
ENDMDL
MODEL 6
REMARK VINA RESULT:      -7.5      2.802      6.609
REMARK  Name = 
REMARK  2 active torsions:
REMARK  status: ('A' for Active; 'I' for Inactive)
REMARK    1  A    between atoms: C_8  and  C_9
REMARK    2  A    between atoms: N_16  and  C_17
REMARK                            x       y       z     vdW  Elec       q    Type
REMARK                         _______ _______ _______ _____ _____    ______ ____
ROOT
ATOM      1  O   UNL     1       1.049   4.355  20.744  0.00  0.00    +0.000 OA
ATOM      2  C   UNL     1       1.844   4.224  19.829  0.00  0.00    +0.000 C 
ATOM      3  O   UNL     1       2.331   3.017  19.366  0.00  0.00    +0.000 OA
ATOM      4  C   UNL     1       3.240   3.235  18.345  0.00  0.00    +0.000 C 
ATOM      5  O   UNL     1       3.856   2.355  17.768  0.00  0.00    +0.000 OA
ATOM      6  C   UNL     1       3.282   4.643  18.164  0.00  0.00    +0.000 A 
ATOM      7  C   UNL     1       2.465   5.256  19.063  0.00  0.00    +0.000 A 
ATOM      8  C   UNL     1       2.560   6.643  18.897  0.00  0.00    +0.000 A 
ATOM      9  C   UNL     1       3.519   6.814  17.905  0.00  0.00    +0.000 A 
ATOM     10  N   UNL     1       3.961   5.575  17.438  0.00  0.00    +0.000 N 
ENDROOT
BRANCH  10  11
ATOM     11  C   UNL     1       4.938   5.373  16.434  0.00  0.00    +0.000 A 
ATOM     12  C   UNL     1       6.194   5.989  16.551  0.00  0.00    +0.000 A 
ATOM     13  C   UNL     1       7.173   5.768  15.580  0.00  0.00    +0.000 A 
ATOM     14  C   UNL     1       6.890   4.960  14.480  0.00  0.00    +0.000 A 
ATOM     15 CL   UNL     1       8.092   4.698  13.279  0.00  0.00    +0.000 Cl
ATOM     16  C   UNL     1       5.638   4.365  14.347  0.00  0.00    +0.000 A 
ATOM     17  C   UNL     1       4.662   4.564  15.326  0.00  0.00    +0.000 A 
ENDBRANCH  10  11
BRANCH   8  18
ATOM     18  C   UNL     1       1.892   7.741  19.575  0.00  0.00    +0.000 A 
ATOM     19  C   UNL     1       1.546   8.903  18.874  0.00  0.00    +0.000 A 
ATOM     20  C   UNL     1       0.914   9.966  19.524  0.00  0.00    +0.000 A 
ATOM     21  C   UNL     1       0.618   9.878  20.882  0.00  0.00    +0.000 A 
ATOM     22  C   UNL     1       0.956   8.728  21.593  0.00  0.00    +0.000 A 
ATOM     23  C   UNL     1       1.590   7.666  20.944  0.00  0.00    +0.000 A 
ENDBRANCH   8  18
TORSDOF 2
ENDMDL
MODEL 7
REMARK VINA RESULT:      -7.5      2.805      6.588
REMARK  Name = 
REMARK  2 active torsions:
REMARK  status: ('A' for Active; 'I' for Inactive)
REMARK    1  A    between atoms: C_8  and  C_9
REMARK    2  A    between atoms: N_16  and  C_17
REMARK                            x       y       z     vdW  Elec       q    Type
REMARK                         _______ _______ _______ _____ _____    ______ ____
ROOT
ATOM      1  O   UNL     1       1.119   4.360  20.799  0.00  0.00    +0.000 OA
ATOM      2  C   UNL     1       1.904   4.228  19.876  0.00  0.00    +0.000 C 
ATOM      3  O   UNL     1       2.398   3.021  19.421  0.00  0.00    +0.000 OA
ATOM      4  C   UNL     1       3.292   3.237  18.386  0.00  0.00    +0.000 C 
ATOM      5  O   UNL     1       3.910   2.358  17.811  0.00  0.00    +0.000 OA
ATOM      6  C   UNL     1       3.317   4.643  18.189  0.00  0.00    +0.000 A 
ATOM      7  C   UNL     1       2.505   5.258  19.091  0.00  0.00    +0.000 A 
ATOM      8  C   UNL     1       2.583   6.644  18.910  0.00  0.00    +0.000 A 
ATOM      9  C   UNL     1       3.528   6.814  17.904  0.00  0.00    +0.000 A 
ATOM     10  N   UNL     1       3.978   5.574  17.445  0.00  0.00    +0.000 N 
ENDROOT
BRANCH  10  11
ATOM     11  C   UNL     1       4.944   5.372  16.431  0.00  0.00    +0.000 A 
ATOM     12  C   UNL     1       6.203   5.982  16.539  0.00  0.00    +0.000 A 
ATOM     13  C   UNL     1       7.172   5.760  15.558  0.00  0.00    +0.000 A 
ATOM     14  C   UNL     1       6.876   4.957  14.458  0.00  0.00    +0.000 A 
ATOM     15 CL   UNL     1       8.066   4.694  13.245  0.00  0.00    +0.000 Cl
ATOM     16  C   UNL     1       5.620   4.368  14.335  0.00  0.00    +0.000 A 
ATOM     17  C   UNL     1       4.654   4.568  15.323  0.00  0.00    +0.000 A 
ENDBRANCH  10  11
BRANCH   8  18
ATOM     18  C   UNL     1       1.911   7.742  19.584  0.00  0.00    +0.000 A 
ATOM     19  C   UNL     1       1.602   7.654  20.947  0.00  0.00    +0.000 A 
ATOM     20  C   UNL     1       0.946   8.703  21.598  0.00  0.00    +0.000 A 
ATOM     21  C   UNL     1       0.595   9.851  20.893  0.00  0.00    +0.000 A 
ATOM     22  C   UNL     1       0.896   9.953  19.536  0.00  0.00    +0.000 A 
ATOM     23  C   UNL     1       1.550   8.904  18.886  0.00  0.00    +0.000 A 
ENDBRANCH   8  18
TORSDOF 2
ENDMDL
MODEL 8
REMARK VINA RESULT:      -7.5      2.822      6.603
REMARK  Name = 
REMARK  2 active torsions:
REMARK  status: ('A' for Active; 'I' for Inactive)
REMARK    1  A    between atoms: C_8  and  C_9
REMARK    2  A    between atoms: N_16  and  C_17
REMARK                            x       y       z     vdW  Elec       q    Type
REMARK                         _______ _______ _______ _____ _____    ______ ____
ROOT
ATOM      1  O   UNL     1       1.403   4.425  21.037  0.00  0.00    +0.000 OA
ATOM      2  C   UNL     1       2.156   4.277  20.091  0.00  0.00    +0.000 C 
ATOM      3  O   UNL     1       2.697   3.070  19.688  0.00  0.00    +0.000 OA
ATOM      4  C   UNL     1       3.535   3.268  18.605  0.00  0.00    +0.000 C 
ATOM      5  O   UNL     1       4.177   2.388  18.058  0.00  0.00    +0.000 OA
ATOM      6  C   UNL     1       3.475   4.658  18.322  0.00  0.00    +0.000 A 
ATOM      7  C   UNL     1       2.667   5.285  19.219  0.00  0.00    +0.000 A 
ATOM      8  C   UNL     1       2.661   6.659  18.950  0.00  0.00    +0.000 A 
ATOM      9  C   UNL     1       3.554   6.814  17.896  0.00  0.00    +0.000 A 
ATOM     10  N   UNL     1       4.052   5.574  17.494  0.00  0.00    +0.000 N 
ENDROOT
BRANCH  10  11
ATOM     11  C   UNL     1       4.987   5.358  16.453  0.00  0.00    +0.000 A 
ATOM     12  C   UNL     1       4.639   4.544  15.364  0.00  0.00    +0.000 A 
ATOM     13  C   UNL     1       5.544   4.354  14.317  0.00  0.00    +0.000 A 
ATOM     14  C   UNL     1       6.803   4.948  14.373  0.00  0.00    +0.000 A 
ATOM     15 CL   UNL     1       7.922   4.703  13.089  0.00  0.00    +0.000 Cl
ATOM     16  C   UNL     1       7.162   5.738  15.462  0.00  0.00    +0.000 A 
ATOM     17  C   UNL     1       6.253   5.950  16.501  0.00  0.00    +0.000 A 
ENDBRANCH  10  11
BRANCH   8  18
ATOM     18  C   UNL     1       1.958   7.760  19.585  0.00  0.00    +0.000 A 
ATOM     19  C   UNL     1       1.609   8.899  18.848  0.00  0.00    +0.000 A 
ATOM     20  C   UNL     1       0.943   9.966  19.457  0.00  0.00    +0.000 A 
ATOM     21  C   UNL     1       0.617   9.905  20.809  0.00  0.00    +0.000 A 
ATOM     22  C   UNL     1       0.957   8.779  21.556  0.00  0.00    +0.000 A 
ATOM     23  C   UNL     1       1.625   7.714  20.948  0.00  0.00    +0.000 A 
ENDBRANCH   8  18
TORSDOF 2
ENDMDL
MODEL 9
REMARK VINA RESULT:      -7.4      2.246      3.502
REMARK  Name = 
REMARK  2 active torsions:
REMARK  status: ('A' for Active; 'I' for Inactive)
REMARK    1  A    between atoms: C_8  and  C_9
REMARK    2  A    between atoms: N_16  and  C_17
REMARK                            x       y       z     vdW  Elec       q    Type
REMARK                         _______ _______ _______ _____ _____    ______ ____
ROOT
ATOM      1  O   UNL     1       2.412   4.979  20.574  0.00  0.00    +0.000 OA
ATOM      2  C   UNL     1       2.042   6.137  20.486  0.00  0.00    +0.000 C 
ATOM      3  O   UNL     1       1.254   6.792  21.413  0.00  0.00    +0.000 OA
ATOM      4  C   UNL     1       0.993   8.081  20.984  0.00  0.00    +0.000 C 
ATOM      5  O   UNL     1       0.296   8.882  21.583  0.00  0.00    +0.000 OA
ATOM      6  C   UNL     1       1.681   8.221  19.749  0.00  0.00    +0.000 A 
ATOM      7  C   UNL     1       2.300   7.054  19.423  0.00  0.00    +0.000 A 
ATOM      8  C   UNL     1       2.929   7.200  18.181  0.00  0.00    +0.000 A 
ATOM      9  C   UNL     1       2.595   8.485  17.767  0.00  0.00    +0.000 A 
ATOM     10  N   UNL     1       1.830   9.127  18.743  0.00  0.00    +0.000 N 
ENDROOT
BRANCH  10  11
ATOM     11  C   UNL     1       1.313  10.441  18.652  0.00  0.00    +0.000 A 
ATOM     12  C   UNL     1      -0.075  10.647  18.704  0.00  0.00    +0.000 A 
ATOM     13  C   UNL     1      -0.590  11.944  18.648  0.00  0.00    +0.000 A 
ATOM     14  C   UNL     1       0.273  13.028  18.509  0.00  0.00    +0.000 A 
ATOM     15 CL   UNL     1      -0.364  14.624  18.428  0.00  0.00    +0.000 Cl
ATOM     16  C   UNL     1       1.649  12.828  18.434  0.00  0.00    +0.000 A 
ATOM     17  C   UNL     1       2.172  11.535  18.512  0.00  0.00    +0.000 A 
ENDBRANCH  10  11
BRANCH   8  18
ATOM     18  C   UNL     1       3.734   6.280  17.396  0.00  0.00    +0.000 A 
ATOM     19  C   UNL     1       4.735   6.762  16.544  0.00  0.00    +0.000 A 
ATOM     20  C   UNL     1       5.504   5.881  15.778  0.00  0.00    +0.000 A 
ATOM     21  C   UNL     1       5.282   4.509  15.858  0.00  0.00    +0.000 A 
ATOM     22  C   UNL     1       4.289   4.015  16.701  0.00  0.00    +0.000 A 
ATOM     23  C   UNL     1       3.519   4.895  17.465  0.00  0.00    +0.000 A 
ENDBRANCH   8  18
TORSDOF 2
ENDMDL
