MODEL 1
REMARK VINA RESULT:      -6.4      0.000      0.000
REMARK  Name = 
REMARK  9 active torsions:
REMARK  status: ('A' for Active; 'I' for Inactive)
REMARK    1  A    between atoms: C_1  and  C_2
REMARK    2  A    between atoms: C_2  and  O_3
REMARK    3  A    between atoms: C_2  and  C_4
REMARK    4  A    between atoms: C_8  and  C_9
REMARK    5  A    between atoms: C_9  and  O_11
REMARK    6  A    between atoms: C_12  and  S_13
REMARK    7  A    between atoms: S_13  and  C_14
REMARK    8  A    between atoms: C_14  and  N_16
REMARK    9  A    between atoms: C_20  and  C_21
REMARK                            x       y       z     vdW  Elec       q    Type
REMARK                         _______ _______ _______ _____ _____    ______ ____
ROOT
ATOM      1  C   UNL     1       2.463   2.970  19.923  0.00  0.00    +0.000 C 
ATOM      2  C   UNL     1       1.772   4.332  20.129  0.00  0.00    +0.000 C 
ATOM      3  O   UNL     1       0.658   4.769  20.310  0.00  0.00    +0.000 OA
ATOM      4  N   UNL     1       2.921   5.017  19.871  0.00  0.00    +0.000 N 
ATOM      5  C   UNL     1       3.036   6.030  18.933  0.00  0.00    +0.000 C 
ATOM      6  C   UNL     1       3.746   5.630  17.861  0.00  0.00    +0.000 C 
ATOM      7  C   UNL     1       4.003   4.137  17.926  0.00  0.00    +0.000 C 
ATOM      8  C   UNL     1       3.104   3.364  16.970  0.00  0.00    +0.000 C 
ATOM      9  C   UNL     1       3.667   3.822  19.389  0.00  0.00    +0.000 C 
ENDROOT
BRANCH   1  11
ATOM     10  C   UNL     1       4.304   1.841  21.248  0.00  0.00    +0.000 C 
ATOM     11  C   UNL     1       2.821   2.149  21.152  0.00  0.00    +0.000 C 
BRANCH  11  12
ATOM     12  O   UNL     1       2.421   2.899  22.303  0.00  0.00    +0.000 OA
ATOM     13  H   UNL     1       2.387   3.843  22.061  0.00  0.00    +0.000 HD
ENDBRANCH  11  12
ENDBRANCH   1  11
BRANCH   5  14
ATOM     14  C   UNL     1       2.530   7.396  19.232  0.00  0.00    +0.000 C 
ATOM     15  O   UNL     1       2.452   8.304  18.430  0.00  0.00    +0.000 OA
BRANCH  14  16
ATOM     16  O   UNL     1       2.157   7.564  20.532  0.00  0.00    +0.000 OA
ATOM     17  H   UNL     1       2.869   7.899  21.127  0.00  0.00    +0.000 HD
ENDBRANCH  14  16
ENDBRANCH   5  14
BRANCH   6  18
ATOM     18  S   UNL     1       4.584   6.591  16.707  0.00  0.00    +0.000 S 
BRANCH  18  19
ATOM     19  C   UNL     1       5.989   5.724  16.089  0.00  0.00    +0.000 C 
ATOM     20  S   UNL     1       6.035   4.844  14.661  0.00  0.00    +0.000 S 
BRANCH  19  21
ATOM     21  N   UNL     1       7.071   5.795  16.952  0.00  0.00    +0.000 N 
ATOM     22  C   UNL     1       7.664   4.783  17.831  0.00  0.00    +0.000 C 
ATOM     23  C   UNL     1       7.606   5.851  18.926  0.00  0.00    +0.000 C 
ATOM     24  C   UNL     1       7.521   6.896  17.808  0.00  0.00    +0.000 C 
ENDBRANCH  19  21
ENDBRANCH  18  19
ENDBRANCH   6  18
TORSDOF 7
ENDMDL
MODEL 2
REMARK VINA RESULT:      -6.3      2.903      6.096
REMARK  Name = 
REMARK  9 active torsions:
REMARK  status: ('A' for Active; 'I' for Inactive)
REMARK    1  A    between atoms: C_1  and  C_2
REMARK    2  A    between atoms: C_2  and  O_3
REMARK    3  A    between atoms: C_2  and  C_4
REMARK    4  A    between atoms: C_8  and  C_9
REMARK    5  A    between atoms: C_9  and  O_11
REMARK    6  A    between atoms: C_12  and  S_13
REMARK    7  A    between atoms: S_13  and  C_14
REMARK    8  A    between atoms: C_14  and  N_16
REMARK    9  A    between atoms: C_20  and  C_21
REMARK                            x       y       z     vdW  Elec       q    Type
REMARK                         _______ _______ _______ _____ _____    ______ ____
ROOT
ATOM      1  C   UNL     1       7.324   6.845  17.187  0.00  0.00    +0.000 C 
ATOM      2  C   UNL     1       7.287   5.358  17.590  0.00  0.00    +0.000 C 
ATOM      3  O   UNL     1       7.851   4.325  17.310  0.00  0.00    +0.000 OA
ATOM      4  N   UNL     1       6.179   5.537  18.362  0.00  0.00    +0.000 N 
ATOM      5  C   UNL     1       5.016   4.791  18.250  0.00  0.00    +0.000 C 
ATOM      6  C   UNL     1       4.018   5.515  17.709  0.00  0.00    +0.000 C 
ATOM      7  C   UNL     1       4.545   6.840  17.195  0.00  0.00    +0.000 C 
ATOM      8  C   UNL     1       4.677   6.848  15.677  0.00  0.00    +0.000 C 
ATOM      9  C   UNL     1       5.918   6.919  17.876  0.00  0.00    +0.000 C 
ENDROOT
BRANCH   1  11
ATOM     10  C   UNL     1       7.921   9.200  17.908  0.00  0.00    +0.000 C 
ATOM     11  C   UNL     1       8.354   7.746  17.850  0.00  0.00    +0.000 C 
BRANCH  11  12
ATOM     12  O   UNL     1       8.557   7.262  19.181  0.00  0.00    +0.000 OA
ATOM     13  H   UNL     1       8.389   7.992  19.805  0.00  0.00    +0.000 HD
ENDBRANCH  11  12
ENDBRANCH   1  11
BRANCH   5  14
ATOM     14  C   UNL     1       4.942   3.420  18.821  0.00  0.00    +0.000 C 
ATOM     15  O   UNL     1       5.233   3.122  19.962  0.00  0.00    +0.000 OA
BRANCH  14  16
ATOM     16  O   UNL     1       4.517   2.482  17.929  0.00  0.00    +0.000 OA
ATOM     17  H   UNL     1       4.370   2.818  17.014  0.00  0.00    +0.000 HD
ENDBRANCH  14  16
ENDBRANCH   5  14
BRANCH   6  18
ATOM     18  S   UNL     1       2.321   5.256  17.819  0.00  0.00    +0.000 S 
BRANCH  18  19
ATOM     19  C   UNL     1       1.796   5.333  19.501  0.00  0.00    +0.000 C 
ATOM     20  S   UNL     1       1.928   6.676  20.498  0.00  0.00    +0.000 S 
BRANCH  19  21
ATOM     21  N   UNL     1       1.298   4.121  19.951  0.00  0.00    +0.000 N 
ATOM     22  C   UNL     1       1.544   3.386  21.196  0.00  0.00    +0.000 C 
ATOM     23  C   UNL     1       1.786   2.165  20.306  0.00  0.00    +0.000 C 
ATOM     24  C   UNL     1       1.000   2.892  19.210  0.00  0.00    +0.000 C 
ENDBRANCH  19  21
ENDBRANCH  18  19
ENDBRANCH   6  18
TORSDOF 7
ENDMDL
MODEL 3
REMARK VINA RESULT:      -6.1      3.003      5.914
REMARK  Name = 
REMARK  9 active torsions:
REMARK  status: ('A' for Active; 'I' for Inactive)
REMARK    1  A    between atoms: C_1  and  C_2
REMARK    2  A    between atoms: C_2  and  O_3
REMARK    3  A    between atoms: C_2  and  C_4
REMARK    4  A    between atoms: C_8  and  C_9
REMARK    5  A    between atoms: C_9  and  O_11
REMARK    6  A    between atoms: C_12  and  S_13
REMARK    7  A    between atoms: S_13  and  C_14
REMARK    8  A    between atoms: C_14  and  N_16
REMARK    9  A    between atoms: C_20  and  C_21
REMARK                            x       y       z     vdW  Elec       q    Type
REMARK                         _______ _______ _______ _____ _____    ______ ____
ROOT
ATOM      1  C   UNL     1       6.536   5.155  14.931  0.00  0.00    +0.000 C 
ATOM      2  C   UNL     1       5.371   6.075  15.344  0.00  0.00    +0.000 C 
ATOM      3  O   UNL     1       5.063   7.242  15.269  0.00  0.00    +0.000 OA
ATOM      4  N   UNL     1       4.760   5.080  16.046  0.00  0.00    +0.000 N 
ATOM      5  C   UNL     1       4.362   5.185  17.370  0.00  0.00    +0.000 C 
ATOM      6  C   UNL     1       5.149   4.452  18.180  0.00  0.00    +0.000 C 
ATOM      7  C   UNL     1       6.347   3.924  17.416  0.00  0.00    +0.000 C 
ATOM      8  C   UNL     1       7.616   4.701  17.744  0.00  0.00    +0.000 C 
ATOM      9  C   UNL     1       5.916   4.146  15.960  0.00  0.00    +0.000 C 
ENDROOT
BRANCH   1  11
ATOM     10  C   UNL     1       7.813   4.987  12.748  0.00  0.00    +0.000 C 
ATOM     11  C   UNL     1       6.556   4.609  13.512  0.00  0.00    +0.000 C 
BRANCH  11  12
ATOM     12  O   UNL     1       6.467   3.184  13.596  0.00  0.00    +0.000 OA
ATOM     13  H   UNL     1       5.969   2.952  14.400  0.00  0.00    +0.000 HD
ENDBRANCH  11  12
ENDBRANCH   1  11
BRANCH   5  14
ATOM     14  C   UNL     1       3.120   5.921  17.727  0.00  0.00    +0.000 C 
ATOM     15  O   UNL     1       3.072   7.083  18.075  0.00  0.00    +0.000 OA
BRANCH  14  16
ATOM     16  O   UNL     1       1.994   5.158  17.643  0.00  0.00    +0.000 OA
ATOM     17  H   UNL     1       1.978   4.526  16.886  0.00  0.00    +0.000 HD
ENDBRANCH  14  16
ENDBRANCH   5  14
BRANCH   6  18
ATOM     18  S   UNL     1       4.803   3.845  19.752  0.00  0.00    +0.000 S 
BRANCH  18  19
ATOM     19  C   UNL     1       3.591   2.567  19.664  0.00  0.00    +0.000 C 
ATOM     20  S   UNL     1       3.710   1.180  18.728  0.00  0.00    +0.000 S 
BRANCH  19  21
ATOM     21  N   UNL     1       2.470   2.855  20.425  0.00  0.00    +0.000 N 
ATOM     22  C   UNL     1       1.043   2.777  20.098  0.00  0.00    +0.000 C 
ATOM     23  C   UNL     1       0.941   4.192  20.672  0.00  0.00    +0.000 C 
ATOM     24  C   UNL     1       2.251   3.912  21.417  0.00  0.00    +0.000 C 
ENDBRANCH  19  21
ENDBRANCH  18  19
ENDBRANCH   6  18
TORSDOF 7
ENDMDL
MODEL 4
REMARK VINA RESULT:      -6.0      1.175      1.760
REMARK  Name = 
REMARK  9 active torsions:
REMARK  status: ('A' for Active; 'I' for Inactive)
REMARK    1  A    between atoms: C_1  and  C_2
REMARK    2  A    between atoms: C_2  and  O_3
REMARK    3  A    between atoms: C_2  and  C_4
REMARK    4  A    between atoms: C_8  and  C_9
REMARK    5  A    between atoms: C_9  and  O_11
REMARK    6  A    between atoms: C_12  and  S_13
REMARK    7  A    between atoms: S_13  and  C_14
REMARK    8  A    between atoms: C_14  and  N_16
REMARK    9  A    between atoms: C_20  and  C_21
REMARK                            x       y       z     vdW  Elec       q    Type
REMARK                         _______ _______ _______ _____ _____    ______ ____
ROOT
ATOM      1  C   UNL     1       2.543   2.941  19.936  0.00  0.00    +0.000 C 
ATOM      2  C   UNL     1       1.761   4.240  20.216  0.00  0.00    +0.000 C 
ATOM      3  O   UNL     1       0.618   4.592  20.401  0.00  0.00    +0.000 OA
ATOM      4  N   UNL     1       2.867   5.012  20.028  0.00  0.00    +0.000 N 
ATOM      5  C   UNL     1       2.932   6.091  19.161  0.00  0.00    +0.000 C 
ATOM      6  C   UNL     1       3.685   5.809  18.081  0.00  0.00    +0.000 C 
ATOM      7  C   UNL     1       4.038   4.335  18.054  0.00  0.00    +0.000 C 
ATOM      8  C   UNL     1       3.207   3.572  17.030  0.00  0.00    +0.000 C 
ATOM      9  C   UNL     1       3.697   3.902  19.486  0.00  0.00    +0.000 C 
ENDROOT
BRANCH   1  11
ATOM     10  C   UNL     1       4.423   1.784  21.180  0.00  0.00    +0.000 C 
ATOM     11  C   UNL     1       2.932   2.066  21.117  0.00  0.00    +0.000 C 
BRANCH  11  12
ATOM     12  O   UNL     1       2.531   2.745  22.309  0.00  0.00    +0.000 OA
ATOM     13  H   UNL     1       2.673   2.150  23.068  0.00  0.00    +0.000 HD
ENDBRANCH  11  12
ENDBRANCH   1  11
BRANCH   5  14
ATOM     14  C   UNL     1       2.333   7.399  19.538  0.00  0.00    +0.000 C 
ATOM     15  O   UNL     1       2.119   8.316  18.772  0.00  0.00    +0.000 OA
BRANCH  14  16
ATOM     16  O   UNL     1       2.043   7.501  20.865  0.00  0.00    +0.000 OA
ATOM     17  H   UNL     1       2.383   6.761  21.421  0.00  0.00    +0.000 HD
ENDBRANCH  14  16
ENDBRANCH   5  14
BRANCH   6  18
ATOM     18  S   UNL     1       4.478   6.897  17.010  0.00  0.00    +0.000 S 
BRANCH  18  19
ATOM     19  C   UNL     1       6.189   6.490  16.877  0.00  0.00    +0.000 C 
ATOM     20  S   UNL     1       7.406   7.079  17.871  0.00  0.00    +0.000 S 
BRANCH  19  21
ATOM     21  N   UNL     1       6.447   5.655  15.803  0.00  0.00    +0.000 N 
ATOM     22  C   UNL     1       5.599   5.246  14.679  0.00  0.00    +0.000 C 
ATOM     23  C   UNL     1       6.035   3.816  15.005  0.00  0.00    +0.000 C 
ATOM     24  C   UNL     1       7.237   4.421  15.739  0.00  0.00    +0.000 C 
ENDBRANCH  19  21
ENDBRANCH  18  19
ENDBRANCH   6  18
TORSDOF 7
ENDMDL
MODEL 5
REMARK VINA RESULT:      -5.8      3.372      6.134
REMARK  Name = 
REMARK  9 active torsions:
REMARK  status: ('A' for Active; 'I' for Inactive)
REMARK    1  A    between atoms: C_1  and  C_2
REMARK    2  A    between atoms: C_2  and  O_3
REMARK    3  A    between atoms: C_2  and  C_4
REMARK    4  A    between atoms: C_8  and  C_9
REMARK    5  A    between atoms: C_9  and  O_11
REMARK    6  A    between atoms: C_12  and  S_13
REMARK    7  A    between atoms: S_13  and  C_14
REMARK    8  A    between atoms: C_14  and  N_16
REMARK    9  A    between atoms: C_20  and  C_21
REMARK                            x       y       z     vdW  Elec       q    Type
REMARK                         _______ _______ _______ _____ _____    ______ ____
ROOT
ATOM      1  C   UNL     1       5.902   3.971  15.218  0.00  0.00    +0.000 C 
ATOM      2  C   UNL     1       7.054   4.367  16.161  0.00  0.00    +0.000 C 
ATOM      3  O   UNL     1       8.199   4.046  16.383  0.00  0.00    +0.000 OA
ATOM      4  N   UNL     1       6.256   5.210  16.874  0.00  0.00    +0.000 N 
ATOM      5  C   UNL     1       6.104   5.167  18.251  0.00  0.00    +0.000 C 
ATOM      6  C   UNL     1       4.892   4.695  18.598  0.00  0.00    +0.000 C 
ATOM      7  C   UNL     1       4.167   4.157  17.381  0.00  0.00    +0.000 C 
ATOM      8  C   UNL     1       4.175   2.633  17.343  0.00  0.00    +0.000 C 
ATOM      9  C   UNL     1       4.994   4.749  16.233  0.00  0.00    +0.000 C 
ENDROOT
BRANCH   1  11
ATOM     10  C   UNL     1       7.254   4.706  13.204  0.00  0.00    +0.000 C 
ATOM     11  C   UNL     1       5.874   4.573  13.822  0.00  0.00    +0.000 C 
BRANCH  11  12
ATOM     12  O   UNL     1       5.071   3.720  13.000  0.00  0.00    +0.000 OA
ATOM     13  H   UNL     1       4.948   4.150  12.134  0.00  0.00    +0.000 HD
ENDBRANCH  11  12
ENDBRANCH   1  11
BRANCH   5  14
ATOM     14  C   UNL     1       7.151   5.734  19.143  0.00  0.00    +0.000 C 
ATOM     15  O   UNL     1       7.407   5.335  20.261  0.00  0.00    +0.000 OA
BRANCH  14  16
ATOM     16  O   UNL     1       7.820   6.786  18.594  0.00  0.00    +0.000 OA
ATOM     17  H   UNL     1       8.297   7.356  19.242  0.00  0.00    +0.000 HD
ENDBRANCH  14  16
ENDBRANCH   5  14
BRANCH   6  18
ATOM     18  S   UNL     1       4.036   4.912  20.075  0.00  0.00    +0.000 S 
BRANCH  18  19
ATOM     19  C   UNL     1       2.423   5.551  19.762  0.00  0.00    +0.000 C 
ATOM     20  S   UNL     1       2.042   7.173  19.568  0.00  0.00    +0.000 S 
BRANCH  19  21
ATOM     21  N   UNL     1       1.459   4.555  19.747  0.00  0.00    +0.000 N 
ATOM     22  C   UNL     1       1.131   3.522  20.734  0.00  0.00    +0.000 C 
ATOM     23  C   UNL     1       1.172   2.537  19.564  0.00  0.00    +0.000 C 
ATOM     24  C   UNL     1       0.967   3.738  18.633  0.00  0.00    +0.000 C 
ENDBRANCH  19  21
ENDBRANCH  18  19
ENDBRANCH   6  18
TORSDOF 7
ENDMDL
MODEL 6
REMARK VINA RESULT:      -5.8      2.986      5.756
REMARK  Name = 
REMARK  9 active torsions:
REMARK  status: ('A' for Active; 'I' for Inactive)
REMARK    1  A    between atoms: C_1  and  C_2
REMARK    2  A    between atoms: C_2  and  O_3
REMARK    3  A    between atoms: C_2  and  C_4
REMARK    4  A    between atoms: C_8  and  C_9
REMARK    5  A    between atoms: C_9  and  O_11
REMARK    6  A    between atoms: C_12  and  S_13
REMARK    7  A    between atoms: S_13  and  C_14
REMARK    8  A    between atoms: C_14  and  N_16
REMARK    9  A    between atoms: C_20  and  C_21
REMARK                            x       y       z     vdW  Elec       q    Type
REMARK                         _______ _______ _______ _____ _____    ______ ____
ROOT
ATOM      1  C   UNL     1       6.408   5.085  14.934  0.00  0.00    +0.000 C 
ATOM      2  C   UNL     1       5.346   6.129  15.331  0.00  0.00    +0.000 C 
ATOM      3  O   UNL     1       5.136   7.312  15.189  0.00  0.00    +0.000 OA
ATOM      4  N   UNL     1       4.687   5.240  16.125  0.00  0.00    +0.000 N 
ATOM      5  C   UNL     1       4.363   5.465  17.453  0.00  0.00    +0.000 C 
ATOM      6  C   UNL     1       5.121   4.719  18.278  0.00  0.00    +0.000 C 
ATOM      7  C   UNL     1       6.233   4.039  17.503  0.00  0.00    +0.000 C 
ATOM      8  C   UNL     1       7.578   4.720  17.724  0.00  0.00    +0.000 C 
ATOM      9  C   UNL     1       5.754   4.204  16.055  0.00  0.00    +0.000 C 
ENDROOT
BRANCH   1  11
ATOM     10  C   UNL     1       7.491   4.794  12.662  0.00  0.00    +0.000 C 
ATOM     11  C   UNL     1       6.314   4.449  13.556  0.00  0.00    +0.000 C 
BRANCH  11  12
ATOM     12  O   UNL     1       6.260   3.032  13.737  0.00  0.00    +0.000 OA
ATOM     13  H   UNL     1       5.510   2.823  14.324  0.00  0.00    +0.000 HD
ENDBRANCH  11  12
ENDBRANCH   1  11
BRANCH   5  14
ATOM     14  C   UNL     1       3.206   6.330  17.811  0.00  0.00    +0.000 C 
ATOM     15  O   UNL     1       2.069   5.940  17.982  0.00  0.00    +0.000 OA
BRANCH  14  16
ATOM     16  O   UNL     1       3.528   7.649  17.924  0.00  0.00    +0.000 OA
ATOM     17  H   UNL     1       4.494   7.833  18.003  0.00  0.00    +0.000 HD
ENDBRANCH  14  16
ENDBRANCH   5  14
BRANCH   6  18
ATOM     18  S   UNL     1       4.800   4.248  19.901  0.00  0.00    +0.000 S 
BRANCH  18  19
ATOM     19  C   UNL     1       3.130   3.706  20.065  0.00  0.00    +0.000 C 
ATOM     20  S   UNL     1       2.001   4.349  21.125  0.00  0.00    +0.000 S 
BRANCH  19  21
ATOM     21  N   UNL     1       2.847   2.625  19.245  0.00  0.00    +0.000 N 
ATOM     22  C   UNL     1       3.699   1.527  18.778  0.00  0.00    +0.000 C 
ATOM     23  C   UNL     1       3.158   1.841  17.381  0.00  0.00    +0.000 C 
ATOM     24  C   UNL     1       1.979   2.539  18.067  0.00  0.00    +0.000 C 
ENDBRANCH  19  21
ENDBRANCH  18  19
ENDBRANCH   6  18
TORSDOF 7
ENDMDL
MODEL 7
REMARK VINA RESULT:      -5.7      2.914      5.678
REMARK  Name = 
REMARK  9 active torsions:
REMARK  status: ('A' for Active; 'I' for Inactive)
REMARK    1  A    between atoms: C_1  and  C_2
REMARK    2  A    between atoms: C_2  and  O_3
REMARK    3  A    between atoms: C_2  and  C_4
REMARK    4  A    between atoms: C_8  and  C_9
REMARK    5  A    between atoms: C_9  and  O_11
REMARK    6  A    between atoms: C_12  and  S_13
REMARK    7  A    between atoms: S_13  and  C_14
REMARK    8  A    between atoms: C_14  and  N_16
REMARK    9  A    between atoms: C_20  and  C_21
REMARK                            x       y       z     vdW  Elec       q    Type
REMARK                         _______ _______ _______ _____ _____    ______ ____
ROOT
ATOM      1  C   UNL     1       6.731   5.354  15.859  0.00  0.00    +0.000 C 
ATOM      2  C   UNL     1       5.413   6.152  15.872  0.00  0.00    +0.000 C 
ATOM      3  O   UNL     1       5.010   7.250  15.561  0.00  0.00    +0.000 OA
ATOM      4  N   UNL     1       4.764   5.175  16.565  0.00  0.00    +0.000 N 
ATOM      5  C   UNL     1       4.062   5.384  17.742  0.00  0.00    +0.000 C 
ATOM      6  C   UNL     1       4.712   4.866  18.801  0.00  0.00    +0.000 C 
ATOM      7  C   UNL     1       6.103   4.417  18.399  0.00  0.00    +0.000 C 
ATOM      8  C   UNL     1       7.174   5.391  18.874  0.00  0.00    +0.000 C 
ATOM      9  C   UNL     1       5.999   4.403  16.868  0.00  0.00    +0.000 C 
ENDROOT
BRANCH   1  11
ATOM     10  C   UNL     1       5.953   4.084  13.809  0.00  0.00    +0.000 C 
ATOM     11  C   UNL     1       7.136   4.651  14.573  0.00  0.00    +0.000 C 
BRANCH  11  12
ATOM     12  O   UNL     1       7.812   5.607  13.752  0.00  0.00    +0.000 OA
ATOM     13  H   UNL     1       8.580   5.950  14.245  0.00  0.00    +0.000 HD
ENDBRANCH  11  12
ENDBRANCH   1  11
BRANCH   5  14
ATOM     14  C   UNL     1       2.701   5.983  17.712  0.00  0.00    +0.000 C 
ATOM     15  O   UNL     1       1.664   5.358  17.614  0.00  0.00    +0.000 OA
BRANCH  14  16
ATOM     16  O   UNL     1       2.704   7.343  17.793  0.00  0.00    +0.000 OA
ATOM     17  H   UNL     1       3.494   7.729  18.240  0.00  0.00    +0.000 HD
ENDBRANCH  14  16
ENDBRANCH   5  14
BRANCH   6  18
ATOM     18  S   UNL     1       4.078   4.411  20.334  0.00  0.00    +0.000 S 
BRANCH  18  19
ATOM     19  C   UNL     1       2.591   3.485  20.134  0.00  0.00    +0.000 C 
ATOM     20  S   UNL     1       1.109   3.870  20.818  0.00  0.00    +0.000 S 
BRANCH  19  21
ATOM     21  N   UNL     1       2.784   2.340  19.377  0.00  0.00    +0.000 N 
ATOM     22  C   UNL     1       3.952   1.465  19.242  0.00  0.00    +0.000 C 
ATOM     23  C   UNL     1       3.743   1.591  17.732  0.00  0.00    +0.000 C 
ATOM     24  C   UNL     1       2.299   2.007  18.034  0.00  0.00    +0.000 C 
ENDBRANCH  19  21
ENDBRANCH  18  19
ENDBRANCH   6  18
TORSDOF 7
ENDMDL
MODEL 8
REMARK VINA RESULT:      -5.7      3.255      6.381
REMARK  Name = 
REMARK  9 active torsions:
REMARK  status: ('A' for Active; 'I' for Inactive)
REMARK    1  A    between atoms: C_1  and  C_2
REMARK    2  A    between atoms: C_2  and  O_3
REMARK    3  A    between atoms: C_2  and  C_4
REMARK    4  A    between atoms: C_8  and  C_9
REMARK    5  A    between atoms: C_9  and  O_11
REMARK    6  A    between atoms: C_12  and  S_13
REMARK    7  A    between atoms: S_13  and  C_14
REMARK    8  A    between atoms: C_14  and  N_16
REMARK    9  A    between atoms: C_20  and  C_21
REMARK                            x       y       z     vdW  Elec       q    Type
REMARK                         _______ _______ _______ _____ _____    ______ ____
ROOT
ATOM      1  C   UNL     1       6.613   5.237  14.541  0.00  0.00    +0.000 C 
ATOM      2  C   UNL     1       5.362   4.340  14.626  0.00  0.00    +0.000 C 
ATOM      3  O   UNL     1       4.349   4.130  14.000  0.00  0.00    +0.000 OA
ATOM      4  N   UNL     1       5.704   3.886  15.864  0.00  0.00    +0.000 N 
ATOM      5  C   UNL     1       4.870   3.921  16.970  0.00  0.00    +0.000 C 
ATOM      6  C   UNL     1       5.271   4.848  17.860  0.00  0.00    +0.000 C 
ATOM      7  C   UNL     1       6.374   5.704  17.270  0.00  0.00    +0.000 C 
ATOM      8  C   UNL     1       5.863   7.077  16.851  0.00  0.00    +0.000 C 
ATOM      9  C   UNL     1       6.803   4.872  16.054  0.00  0.00    +0.000 C 
ENDROOT
BRANCH   1  11
ATOM     10  C   UNL     1       7.334   4.282  12.307  0.00  0.00    +0.000 C 
ATOM     11  C   UNL     1       7.773   4.775  13.674  0.00  0.00    +0.000 C 
BRANCH  11  12
ATOM     12  O   UNL     1       8.659   5.886  13.510  0.00  0.00    +0.000 OA
ATOM     13  H   UNL     1       8.136   6.708  13.546  0.00  0.00    +0.000 HD
ENDBRANCH  11  12
ENDBRANCH   1  11
BRANCH   5  14
ATOM     14  C   UNL     1       3.783   2.918  17.126  0.00  0.00    +0.000 C 
ATOM     15  O   UNL     1       2.618   3.099  16.835  0.00  0.00    +0.000 OA
BRANCH  14  16
ATOM     16  O   UNL     1       4.207   1.735  17.654  0.00  0.00    +0.000 OA
ATOM     17  H   UNL     1       3.742   1.461  18.479  0.00  0.00    +0.000 HD
ENDBRANCH  14  16
ENDBRANCH   5  14
BRANCH   6  18
ATOM     18  S   UNL     1       4.923   4.944  19.542  0.00  0.00    +0.000 S 
BRANCH  18  19
ATOM     19  C   UNL     1       3.232   5.376  19.795  0.00  0.00    +0.000 C 
ATOM     20  S   UNL     1       2.527   6.835  19.358  0.00  0.00    +0.000 S 
BRANCH  19  21
ATOM     21  N   UNL     1       2.531   4.384  20.462  0.00  0.00    +0.000 N 
ATOM     22  C   UNL     1       2.867   2.981  20.720  0.00  0.00    +0.000 C 
ATOM     23  C   UNL     1       1.465   2.657  20.202  0.00  0.00    +0.000 C 
ATOM     24  C   UNL     1       1.091   4.113  20.501  0.00  0.00    +0.000 C 
ENDBRANCH  19  21
ENDBRANCH  18  19
ENDBRANCH   6  18
TORSDOF 7
ENDMDL
MODEL 9
REMARK VINA RESULT:      -5.6      2.928      5.865
REMARK  Name = 
REMARK  9 active torsions:
REMARK  status: ('A' for Active; 'I' for Inactive)
REMARK    1  A    between atoms: C_1  and  C_2
REMARK    2  A    between atoms: C_2  and  O_3
REMARK    3  A    between atoms: C_2  and  C_4
REMARK    4  A    between atoms: C_8  and  C_9
REMARK    5  A    between atoms: C_9  and  O_11
REMARK    6  A    between atoms: C_12  and  S_13
REMARK    7  A    between atoms: S_13  and  C_14
REMARK    8  A    between atoms: C_14  and  N_16
REMARK    9  A    between atoms: C_20  and  C_21
REMARK                            x       y       z     vdW  Elec       q    Type
REMARK                         _______ _______ _______ _____ _____    ______ ____
ROOT
ATOM      1  C   UNL     1       6.673   5.373  15.919  0.00  0.00    +0.000 C 
ATOM      2  C   UNL     1       5.325   6.120  15.896  0.00  0.00    +0.000 C 
ATOM      3  O   UNL     1       4.886   7.195  15.555  0.00  0.00    +0.000 OA
ATOM      4  N   UNL     1       4.703   5.134  16.601  0.00  0.00    +0.000 N 
ATOM      5  C   UNL     1       3.976   5.340  17.762  0.00  0.00    +0.000 C 
ATOM      6  C   UNL     1       4.629   4.870  18.841  0.00  0.00    +0.000 C 
ATOM      7  C   UNL     1       6.042   4.466  18.469  0.00  0.00    +0.000 C 
ATOM      8  C   UNL     1       7.067   5.491  18.939  0.00  0.00    +0.000 C 
ATOM      9  C   UNL     1       5.962   4.416  16.938  0.00  0.00    +0.000 C 
ENDROOT
BRANCH   1  11
ATOM     10  C   UNL     1       5.970   4.070  13.863  0.00  0.00    +0.000 C 
ATOM     11  C   UNL     1       7.123   4.659  14.655  0.00  0.00    +0.000 C 
BRANCH  11  12
ATOM     12  O   UNL     1       7.813   5.613  13.843  0.00  0.00    +0.000 OA
ATOM     13  H   UNL     1       8.766   5.407  13.865  0.00  0.00    +0.000 HD
ENDBRANCH  11  12
ENDBRANCH   1  11
BRANCH   5  14
ATOM     14  C   UNL     1       2.593   5.886  17.700  0.00  0.00    +0.000 C 
ATOM     15  O   UNL     1       2.297   7.055  17.844  0.00  0.00    +0.000 OA
BRANCH  14  16
ATOM     16  O   UNL     1       1.644   4.936  17.471  0.00  0.00    +0.000 OA
ATOM     17  H   UNL     1       0.751   5.289  17.249  0.00  0.00    +0.000 HD
ENDBRANCH  14  16
ENDBRANCH   5  14
BRANCH   6  18
ATOM     18  S   UNL     1       3.989   4.424  20.375  0.00  0.00    +0.000 S 
BRANCH  18  19
ATOM     19  C   UNL     1       3.704   2.685  20.439  0.00  0.00    +0.000 C 
ATOM     20  S   UNL     1       4.898   1.507  20.475  0.00  0.00    +0.000 S 
BRANCH  19  21
ATOM     21  N   UNL     1       2.355   2.373  20.398  0.00  0.00    +0.000 N 
ATOM     22  C   UNL     1       1.475   2.064  19.266  0.00  0.00    +0.000 C 
ATOM     23  C   UNL     1       0.511   3.087  19.871  0.00  0.00    +0.000 C 
ATOM     24  C   UNL     1       1.244   2.891  21.203  0.00  0.00    +0.000 C 
ENDBRANCH  19  21
ENDBRANCH  18  19
ENDBRANCH   6  18
TORSDOF 7
ENDMDL
