MODEL 1
REMARK VINA RESULT:      -8.4      0.000      0.000
REMARK  Name = 
REMARK  11 active torsions:
REMARK  status: ('A' for Active; 'I' for Inactive)
REMARK    1  A    between atoms: C_1  and  O_2
REMARK    2  A    between atoms: O_2  and  C_3
REMARK    3  A    between atoms: C_7  and  C_8
REMARK    4  A    between atoms: C_11  and  C_12
REMARK    5  A    between atoms: C_12  and  C_13
REMARK    6  A    between atoms: C_13  and  C_14
REMARK    7  A    between atoms: C_14  and  C_15
REMARK    8  A    between atoms: C_14  and  C_16
REMARK    9  A    between atoms: C_14  and  S_20
REMARK   10  A    between atoms: N_18  and  O_19
REMARK   11  A    between atoms: S_20  and  C_21
REMARK                            x       y       z     vdW  Elec       q    Type
REMARK                         _______ _______ _______ _____ _____    ______ ____
ROOT
ATOM      1  C   UNL     1       0.674   9.456  20.190  0.00  0.00    +0.000 A 
ATOM      2  C   UNL     1       1.270   8.318  20.761  0.00  0.00    +0.000 A 
ATOM      3  C   UNL     1       2.104   7.487  20.016  0.00  0.00    +0.000 A 
ATOM      4  C   UNL     1       2.375   7.781  18.678  0.00  0.00    +0.000 A 
ATOM      5  C   UNL     1       1.811   8.918  18.098  0.00  0.00    +0.000 A 
ATOM      6  C   UNL     1       0.969   9.737  18.844  0.00  0.00    +0.000 A 
ENDROOT
BRANCH   1  11
ATOM      7  C   UNL     1      -1.818  12.184  21.038  0.00  0.00    +0.000 A 
ATOM      8  C   UNL     1      -1.932  12.025  22.417  0.00  0.00    +0.000 A 
ATOM      9  C   UNL     1      -1.238  11.010  23.075  0.00  0.00    +0.000 A 
ATOM     10  C   UNL     1      -0.413  10.151  22.348  0.00  0.00    +0.000 A 
ATOM     11  C   UNL     1      -0.254  10.306  20.959  0.00  0.00    +0.000 A 
ATOM     12  C   UNL     1      -0.976  11.330  20.325  0.00  0.00    +0.000 A 
BRANCH   7  14
ATOM     13  C   UNL     1      -3.965  13.059  20.527  0.00  0.00    +0.000 C 
ATOM     14  O   UNL     1      -2.550  13.209  20.502  0.00  0.00    +0.000 OA
ENDBRANCH   7  14
ENDBRANCH   1  11
BRANCH   4  15
ATOM     15  C   UNL     1       3.349   6.949  17.899  0.00  0.00    +0.000 C 
BRANCH  15  16
ATOM     16  C   UNL     1       4.152   5.966  18.761  0.00  0.00    +0.000 C 
BRANCH  16  17
ATOM     17  C   UNL     1       5.095   5.033  17.956  0.00  0.00    +0.000 C 
ATOM     18  C   UNL     1       4.918   5.261  16.445  0.00  0.00    +0.000 C 
BRANCH  17  19
ATOM     19  C   UNL     1       4.772   3.573  18.285  0.00  0.00    +0.000 C 
ATOM     20  O   UNL     1       4.076   2.863  17.554  0.00  0.00    +0.000 OA
ATOM     21  N   UNL     1       5.281   3.066  19.461  0.00  0.00    +0.000 N 
ATOM     22  H   UNL     1       6.164   3.407  19.851  0.00  0.00    +0.000 HD
BRANCH  21  23
ATOM     23  O   UNL     1       5.004   1.696  19.690  0.00  0.00    +0.000 OA
ATOM     24  H   UNL     1       5.781   1.399  20.214  0.00  0.00    +0.000 HD
ENDBRANCH  21  23
ENDBRANCH  17  19
BRANCH  17  25
ATOM     25  S   UNL     1       6.818   5.308  18.442  0.00  0.00    +0.000 S 
ATOM     26  C   UNL     1       7.322   6.860  17.741  0.00  0.00    +0.000 C 
ATOM     27  O   UNL     1       6.884   5.509  19.882  0.00  0.00    +0.000 OA
ATOM     28  O   UNL     1       7.616   4.265  17.824  0.00  0.00    +0.000 OA
ENDBRANCH  17  25
ENDBRANCH  16  17
ENDBRANCH  15  16
ENDBRANCH   4  15
TORSDOF 8
ENDMDL
MODEL 2
REMARK VINA RESULT:      -8.1      1.296      1.573
REMARK  Name = 
REMARK  11 active torsions:
REMARK  status: ('A' for Active; 'I' for Inactive)
REMARK    1  A    between atoms: C_1  and  O_2
REMARK    2  A    between atoms: O_2  and  C_3
REMARK    3  A    between atoms: C_7  and  C_8
REMARK    4  A    between atoms: C_11  and  C_12
REMARK    5  A    between atoms: C_12  and  C_13
REMARK    6  A    between atoms: C_13  and  C_14
REMARK    7  A    between atoms: C_14  and  C_15
REMARK    8  A    between atoms: C_14  and  C_16
REMARK    9  A    between atoms: C_14  and  S_20
REMARK   10  A    between atoms: N_18  and  O_19
REMARK   11  A    between atoms: S_20  and  C_21
REMARK                            x       y       z     vdW  Elec       q    Type
REMARK                         _______ _______ _______ _____ _____    ______ ____
ROOT
ATOM      1  C   UNL     1       1.092   9.174  20.071  0.00  0.00    +0.000 A 
ATOM      2  C   UNL     1       1.735   7.965  20.389  0.00  0.00    +0.000 A 
ATOM      3  C   UNL     1       2.472   7.265  19.437  0.00  0.00    +0.000 A 
ATOM      4  C   UNL     1       2.597   7.765  18.138  0.00  0.00    +0.000 A 
ATOM      5  C   UNL     1       1.985   8.975  17.809  0.00  0.00    +0.000 A 
ATOM      6  C   UNL     1       1.241   9.662  18.761  0.00  0.00    +0.000 A 
ENDROOT
BRANCH   1  11
ATOM      7  C   UNL     1      -0.931  11.909  21.743  0.00  0.00    +0.000 A 
ATOM      8  C   UNL     1      -1.206  11.325  22.977  0.00  0.00    +0.000 A 
ATOM      9  C   UNL     1      -0.775  10.029  23.261  0.00  0.00    +0.000 A 
ATOM     10  C   UNL     1      -0.053   9.314  22.304  0.00  0.00    +0.000 A 
ATOM     11  C   UNL     1       0.264   9.888  21.061  0.00  0.00    +0.000 A 
ATOM     12  C   UNL     1      -0.193  11.190  20.801  0.00  0.00    +0.000 A 
BRANCH   7  14
ATOM     13  C   UNL     1      -1.075  13.829  20.353  0.00  0.00    +0.000 C 
ATOM     14  O   UNL     1      -1.408  13.181  21.576  0.00  0.00    +0.000 OA
ENDBRANCH   7  14
ENDBRANCH   1  11
BRANCH   4  15
ATOM     15  C   UNL     1       3.470   7.069  17.137  0.00  0.00    +0.000 C 
BRANCH  15  16
ATOM     16  C   UNL     1       4.884   6.769  17.651  0.00  0.00    +0.000 C 
BRANCH  16  17
ATOM     17  C   UNL     1       5.337   5.298  17.450  0.00  0.00    +0.000 C 
ATOM     18  C   UNL     1       4.422   4.585  16.440  0.00  0.00    +0.000 C 
BRANCH  17  19
ATOM     19  C   UNL     1       5.281   4.558  18.789  0.00  0.00    +0.000 C 
ATOM     20  O   UNL     1       5.253   5.144  19.874  0.00  0.00    +0.000 OA
ATOM     21  N   UNL     1       5.278   3.181  18.746  0.00  0.00    +0.000 N 
ATOM     22  H   UNL     1       4.867   2.673  17.959  0.00  0.00    +0.000 HD
BRANCH  21  23
ATOM     23  O   UNL     1       5.165   2.545  20.006  0.00  0.00    +0.000 OA
ATOM     24  H   UNL     1       4.880   3.277  20.598  0.00  0.00    +0.000 HD
ENDBRANCH  21  23
ENDBRANCH  17  19
BRANCH  17  25
ATOM     25  S   UNL     1       7.060   5.241  16.895  0.00  0.00    +0.000 S 
ATOM     26  C   UNL     1       7.073   4.482  15.290  0.00  0.00    +0.000 C 
ATOM     27  O   UNL     1       7.538   6.598  16.672  0.00  0.00    +0.000 OA
ATOM     28  O   UNL     1       7.781   4.366  17.801  0.00  0.00    +0.000 OA
ENDBRANCH  17  25
ENDBRANCH  16  17
ENDBRANCH  15  16
ENDBRANCH   4  15
TORSDOF 8
ENDMDL
MODEL 3
REMARK VINA RESULT:      -8.1      1.884      2.775
REMARK  Name = 
REMARK  11 active torsions:
REMARK  status: ('A' for Active; 'I' for Inactive)
REMARK    1  A    between atoms: C_1  and  O_2
REMARK    2  A    between atoms: O_2  and  C_3
REMARK    3  A    between atoms: C_7  and  C_8
REMARK    4  A    between atoms: C_11  and  C_12
REMARK    5  A    between atoms: C_12  and  C_13
REMARK    6  A    between atoms: C_13  and  C_14
REMARK    7  A    between atoms: C_14  and  C_15
REMARK    8  A    between atoms: C_14  and  C_16
REMARK    9  A    between atoms: C_14  and  S_20
REMARK   10  A    between atoms: N_18  and  O_19
REMARK   11  A    between atoms: S_20  and  C_21
REMARK                            x       y       z     vdW  Elec       q    Type
REMARK                         _______ _______ _______ _____ _____    ______ ____
ROOT
ATOM      1  C   UNL     1       1.137   9.613  19.388  0.00  0.00    +0.000 A 
ATOM      2  C   UNL     1       1.565   9.553  18.050  0.00  0.00    +0.000 A 
ATOM      3  C   UNL     1       2.298   8.469  17.573  0.00  0.00    +0.000 A 
ATOM      4  C   UNL     1       2.613   7.405  18.423  0.00  0.00    +0.000 A 
ATOM      5  C   UNL     1       2.178   7.436  19.749  0.00  0.00    +0.000 A 
ATOM      6  C   UNL     1       1.457   8.527  20.221  0.00  0.00    +0.000 A 
ENDROOT
BRANCH   1  11
ATOM      7  C   UNL     1       0.410  12.863  21.198  0.00  0.00    +0.000 A 
ATOM      8  C   UNL     1      -0.969  12.964  21.028  0.00  0.00    +0.000 A 
ATOM      9  C   UNL     1      -1.666  12.005  20.292  0.00  0.00    +0.000 A 
ATOM     10  C   UNL     1      -0.978  10.929  19.730  0.00  0.00    +0.000 A 
ATOM     11  C   UNL     1       0.409  10.786  19.910  0.00  0.00    +0.000 A 
ATOM     12  C   UNL     1       1.083  11.774  20.646  0.00  0.00    +0.000 A 
BRANCH   7  14
ATOM     13  C   UNL     1       2.225  14.373  21.451  0.00  0.00    +0.000 C 
ATOM     14  O   UNL     1       0.985  13.865  21.932  0.00  0.00    +0.000 OA
ENDBRANCH   7  14
ENDBRANCH   1  11
BRANCH   4  15
ATOM     15  C   UNL     1       3.315   6.191  17.893  0.00  0.00    +0.000 C 
BRANCH  15  16
ATOM     16  C   UNL     1       4.804   6.414  17.601  0.00  0.00    +0.000 C 
BRANCH  16  17
ATOM     17  C   UNL     1       5.667   5.125  17.660  0.00  0.00    +0.000 C 
ATOM     18  C   UNL     1       4.813   3.889  17.327  0.00  0.00    +0.000 C 
BRANCH  17  19
ATOM     19  C   UNL     1       6.254   4.967  19.066  0.00  0.00    +0.000 C 
ATOM     20  O   UNL     1       5.712   4.287  19.941  0.00  0.00    +0.000 OA
ATOM     21  N   UNL     1       7.427   5.636  19.336  0.00  0.00    +0.000 N 
ATOM     22  H   UNL     1       8.117   5.821  18.603  0.00  0.00    +0.000 HD
BRANCH  21  23
ATOM     23  O   UNL     1       7.959   5.411  20.629  0.00  0.00    +0.000 OA
ATOM     24  H   UNL     1       8.647   6.109  20.709  0.00  0.00    +0.000 HD
ENDBRANCH  21  23
ENDBRANCH  17  19
BRANCH  17  25
ATOM     25  S   UNL     1       7.069   5.254  16.521  0.00  0.00    +0.000 S 
ATOM     26  C   UNL     1       6.464   4.877  14.895  0.00  0.00    +0.000 C 
ATOM     27  O   UNL     1       7.502   6.641  16.448  0.00  0.00    +0.000 OA
ATOM     28  O   UNL     1       8.022   4.221  16.886  0.00  0.00    +0.000 OA
ENDBRANCH  17  25
ENDBRANCH  16  17
ENDBRANCH  15  16
ENDBRANCH   4  15
TORSDOF 8
ENDMDL
MODEL 4
REMARK VINA RESULT:      -8.1      1.077      1.841
REMARK  Name = 
REMARK  11 active torsions:
REMARK  status: ('A' for Active; 'I' for Inactive)
REMARK    1  A    between atoms: C_1  and  O_2
REMARK    2  A    between atoms: O_2  and  C_3
REMARK    3  A    between atoms: C_7  and  C_8
REMARK    4  A    between atoms: C_11  and  C_12
REMARK    5  A    between atoms: C_12  and  C_13
REMARK    6  A    between atoms: C_13  and  C_14
REMARK    7  A    between atoms: C_14  and  C_15
REMARK    8  A    between atoms: C_14  and  C_16
REMARK    9  A    between atoms: C_14  and  S_20
REMARK   10  A    between atoms: N_18  and  O_19
REMARK   11  A    between atoms: S_20  and  C_21
REMARK                            x       y       z     vdW  Elec       q    Type
REMARK                         _______ _______ _______ _____ _____    ______ ____
ROOT
ATOM      1  C   UNL     1       0.764   9.740  19.492  0.00  0.00    +0.000 A 
ATOM      2  C   UNL     1       1.082   9.638  18.127  0.00  0.00    +0.000 A 
ATOM      3  C   UNL     1       1.859   8.588  17.642  0.00  0.00    +0.000 A 
ATOM      4  C   UNL     1       2.329   7.601  18.512  0.00  0.00    +0.000 A 
ATOM      5  C   UNL     1       2.005   7.673  19.868  0.00  0.00    +0.000 A 
ATOM      6  C   UNL     1       1.239   8.730  20.347  0.00  0.00    +0.000 A 
ENDROOT
BRANCH   1  11
ATOM      7  C   UNL     1      -0.739  12.236  21.917  0.00  0.00    +0.000 A 
ATOM      8  C   UNL     1      -1.572  12.965  21.073  0.00  0.00    +0.000 A 
ATOM      9  C   UNL     1      -1.623  12.682  19.707  0.00  0.00    +0.000 A 
ATOM     10  C   UNL     1      -0.839  11.652  19.185  0.00  0.00    +0.000 A 
ATOM     11  C   UNL     1      -0.011  10.881  20.018  0.00  0.00    +0.000 A 
ATOM     12  C   UNL     1       0.027  11.198  21.385  0.00  0.00    +0.000 A 
BRANCH   7  14
ATOM     13  C   UNL     1      -1.335  13.881  23.523  0.00  0.00    +0.000 C 
ATOM     14  O   UNL     1      -0.768  12.608  23.235  0.00  0.00    +0.000 OA
ENDBRANCH   7  14
ENDBRANCH   1  11
BRANCH   4  15
ATOM     15  C   UNL     1       3.080   6.416  17.983  0.00  0.00    +0.000 C 
BRANCH  15  16
ATOM     16  C   UNL     1       4.437   6.190  18.661  0.00  0.00    +0.000 C 
BRANCH  16  17
ATOM     17  C   UNL     1       5.364   5.191  17.918  0.00  0.00    +0.000 C 
ATOM     18  C   UNL     1       5.284   5.411  16.397  0.00  0.00    +0.000 C 
BRANCH  17  19
ATOM     19  C   UNL     1       4.935   3.757  18.242  0.00  0.00    +0.000 C 
ATOM     20  O   UNL     1       4.235   3.083  17.483  0.00  0.00    +0.000 OA
ATOM     21  N   UNL     1       5.352   3.235  19.447  0.00  0.00    +0.000 N 
ATOM     22  H   UNL     1       6.233   3.526  19.879  0.00  0.00    +0.000 HD
BRANCH  21  23
ATOM     23  O   UNL     1       4.979   1.887  19.674  0.00  0.00    +0.000 OA
ATOM     24  H   UNL     1       4.152   1.973  20.199  0.00  0.00    +0.000 HD
ENDBRANCH  21  23
ENDBRANCH  17  19
BRANCH  17  25
ATOM     25  S   UNL     1       7.071   5.369  18.495  0.00  0.00    +0.000 S 
ATOM     26  C   UNL     1       7.674   6.925  17.891  0.00  0.00    +0.000 C 
ATOM     27  O   UNL     1       7.077   5.502  19.945  0.00  0.00    +0.000 OA
ATOM     28  O   UNL     1       7.854   4.319  17.867  0.00  0.00    +0.000 OA
ENDBRANCH  17  25
ENDBRANCH  16  17
ENDBRANCH  15  16
ENDBRANCH   4  15
TORSDOF 8
ENDMDL
MODEL 5
REMARK VINA RESULT:      -8.1      2.184      3.329
REMARK  Name = 
REMARK  11 active torsions:
REMARK  status: ('A' for Active; 'I' for Inactive)
REMARK    1  A    between atoms: C_1  and  O_2
REMARK    2  A    between atoms: O_2  and  C_3
REMARK    3  A    between atoms: C_7  and  C_8
REMARK    4  A    between atoms: C_11  and  C_12
REMARK    5  A    between atoms: C_12  and  C_13
REMARK    6  A    between atoms: C_13  and  C_14
REMARK    7  A    between atoms: C_14  and  C_15
REMARK    8  A    between atoms: C_14  and  C_16
REMARK    9  A    between atoms: C_14  and  S_20
REMARK   10  A    between atoms: N_18  and  O_19
REMARK   11  A    between atoms: S_20  and  C_21
REMARK                            x       y       z     vdW  Elec       q    Type
REMARK                         _______ _______ _______ _____ _____    ______ ____
ROOT
ATOM      1  C   UNL     1       1.171   9.212  19.335  0.00  0.00    +0.000 A 
ATOM      2  C   UNL     1       1.717   9.228  18.039  0.00  0.00    +0.000 A 
ATOM      3  C   UNL     1       2.567   8.215  17.600  0.00  0.00    +0.000 A 
ATOM      4  C   UNL     1       2.884   7.149  18.445  0.00  0.00    +0.000 A 
ATOM      5  C   UNL     1       2.335   7.103  19.727  0.00  0.00    +0.000 A 
ATOM      6  C   UNL     1       1.496   8.124  20.163  0.00  0.00    +0.000 A 
ENDROOT
BRANCH   1  11
ATOM      7  C   UNL     1      -0.507  11.677  21.675  0.00  0.00    +0.000 A 
ATOM      8  C   UNL     1      -1.391  12.314  20.808  0.00  0.00    +0.000 A 
ATOM      9  C   UNL     1      -1.422  11.979  19.453  0.00  0.00    +0.000 A 
ATOM     10  C   UNL     1      -0.565  10.992  18.964  0.00  0.00    +0.000 A 
ATOM     11  C   UNL     1       0.317  10.312  19.822  0.00  0.00    +0.000 A 
ATOM     12  C   UNL     1       0.331  10.679  21.177  0.00  0.00    +0.000 A 
BRANCH   7  14
ATOM     13  C   UNL     1      -1.191  13.346  23.220  0.00  0.00    +0.000 C 
ATOM     14  O   UNL     1      -0.563  12.092  22.978  0.00  0.00    +0.000 OA
ENDBRANCH   7  14
ENDBRANCH   1  11
BRANCH   4  15
ATOM     15  C   UNL     1       3.717   6.005  17.946  0.00  0.00    +0.000 C 
BRANCH  15  16
ATOM     16  C   UNL     1       4.909   6.438  17.083  0.00  0.00    +0.000 C 
BRANCH  16  17
ATOM     17  C   UNL     1       6.288   5.964  17.615  0.00  0.00    +0.000 C 
ATOM     18  C   UNL     1       6.123   5.215  18.949  0.00  0.00    +0.000 C 
BRANCH  17  19
ATOM     19  C   UNL     1       7.198   7.177  17.829  0.00  0.00    +0.000 C 
ATOM     20  O   UNL     1       7.090   8.215  17.172  0.00  0.00    +0.000 OA
ATOM     21  N   UNL     1       8.178   7.064  18.790  0.00  0.00    +0.000 N 
ATOM     22  H   UNL     1       8.049   6.475  19.617  0.00  0.00    +0.000 HD
BRANCH  21  23
ATOM     23  O   UNL     1       8.955   8.232  18.990  0.00  0.00    +0.000 OA
ATOM     24  H   UNL     1       8.904   8.682  18.118  0.00  0.00    +0.000 HD
ENDBRANCH  21  23
ENDBRANCH  17  19
BRANCH  17  25
ATOM     25  S   UNL     1       7.105   4.908  16.392  0.00  0.00    +0.000 S 
ATOM     26  C   UNL     1       5.889   3.765  15.785  0.00  0.00    +0.000 C 
ATOM     27  O   UNL     1       7.475   5.710  15.236  0.00  0.00    +0.000 OA
ATOM     28  O   UNL     1       8.121   4.140  17.089  0.00  0.00    +0.000 OA
ENDBRANCH  17  25
ENDBRANCH  16  17
ENDBRANCH  15  16
ENDBRANCH   4  15
TORSDOF 8
ENDMDL
MODEL 6
REMARK VINA RESULT:      -7.8      1.934      2.455
REMARK  Name = 
REMARK  11 active torsions:
REMARK  status: ('A' for Active; 'I' for Inactive)
REMARK    1  A    between atoms: C_1  and  O_2
REMARK    2  A    between atoms: O_2  and  C_3
REMARK    3  A    between atoms: C_7  and  C_8
REMARK    4  A    between atoms: C_11  and  C_12
REMARK    5  A    between atoms: C_12  and  C_13
REMARK    6  A    between atoms: C_13  and  C_14
REMARK    7  A    between atoms: C_14  and  C_15
REMARK    8  A    between atoms: C_14  and  C_16
REMARK    9  A    between atoms: C_14  and  S_20
REMARK   10  A    between atoms: N_18  and  O_19
REMARK   11  A    between atoms: S_20  and  C_21
REMARK                            x       y       z     vdW  Elec       q    Type
REMARK                         _______ _______ _______ _____ _____    ______ ____
ROOT
ATOM      1  C   UNL     1       1.172   8.798  20.363  0.00  0.00    +0.000 A 
ATOM      2  C   UNL     1       1.545   7.536  20.856  0.00  0.00    +0.000 A 
ATOM      3  C   UNL     1       2.220   6.617  20.055  0.00  0.00    +0.000 A 
ATOM      4  C   UNL     1       2.553   6.944  18.738  0.00  0.00    +0.000 A 
ATOM      5  C   UNL     1       2.212   8.201  18.238  0.00  0.00    +0.000 A 
ATOM      6  C   UNL     1       1.527   9.109  19.039  0.00  0.00    +0.000 A 
ENDROOT
BRANCH   1  11
ATOM      7  C   UNL     1      -0.264  12.050  21.678  0.00  0.00    +0.000 A 
ATOM      8  C   UNL     1      -0.933  11.609  22.817  0.00  0.00    +0.000 A 
ATOM      9  C   UNL     1      -0.959  10.253  23.145  0.00  0.00    +0.000 A 
ATOM     10  C   UNL     1      -0.301   9.331  22.330  0.00  0.00    +0.000 A 
ATOM     11  C   UNL     1       0.407   9.751  21.190  0.00  0.00    +0.000 A 
ATOM     12  C   UNL     1       0.405  11.121  20.881  0.00  0.00    +0.000 A 
BRANCH   7  14
ATOM     13  C   UNL     1      -0.636  14.218  22.574  0.00  0.00    +0.000 C 
ATOM     14  O   UNL     1      -0.312  13.400  21.455  0.00  0.00    +0.000 OA
ENDBRANCH   7  14
ENDBRANCH   1  11
BRANCH   4  15
ATOM     15  C   UNL     1       3.367   6.000  17.904  0.00  0.00    +0.000 C 
BRANCH  15  16
ATOM     16  C   UNL     1       4.881   6.206  18.034  0.00  0.00    +0.000 C 
BRANCH  16  17
ATOM     17  C   UNL     1       5.736   5.085  17.387  0.00  0.00    +0.000 C 
ATOM     18  C   UNL     1       4.941   3.769  17.324  0.00  0.00    +0.000 C 
BRANCH  17  19
ATOM     19  C   UNL     1       7.005   4.866  18.216  0.00  0.00    +0.000 C 
ATOM     20  O   UNL     1       7.922   4.126  17.849  0.00  0.00    +0.000 OA
ATOM     21  N   UNL     1       7.087   5.524  19.423  0.00  0.00    +0.000 N 
ATOM     22  H   UNL     1       6.631   6.428  19.570  0.00  0.00    +0.000 HD
BRANCH  21  23
ATOM     23  O   UNL     1       8.304   5.335  20.124  0.00  0.00    +0.000 OA
ATOM     24  H   UNL     1       8.287   4.376  20.340  0.00  0.00    +0.000 HD
ENDBRANCH  21  23
ENDBRANCH  17  19
BRANCH  17  25
ATOM     25  S   UNL     1       6.275   5.580  15.730  0.00  0.00    +0.000 S 
ATOM     26  C   UNL     1       6.311   4.117  14.726  0.00  0.00    +0.000 C 
ATOM     27  O   UNL     1       5.254   6.424  15.127  0.00  0.00    +0.000 OA
ATOM     28  O   UNL     1       7.637   6.070  15.844  0.00  0.00    +0.000 OA
ENDBRANCH  17  25
ENDBRANCH  16  17
ENDBRANCH  15  16
ENDBRANCH   4  15
TORSDOF 8
ENDMDL
MODEL 7
REMARK VINA RESULT:      -7.8      1.038      1.068
REMARK  Name = 
REMARK  11 active torsions:
REMARK  status: ('A' for Active; 'I' for Inactive)
REMARK    1  A    between atoms: C_1  and  O_2
REMARK    2  A    between atoms: O_2  and  C_3
REMARK    3  A    between atoms: C_7  and  C_8
REMARK    4  A    between atoms: C_11  and  C_12
REMARK    5  A    between atoms: C_12  and  C_13
REMARK    6  A    between atoms: C_13  and  C_14
REMARK    7  A    between atoms: C_14  and  C_15
REMARK    8  A    between atoms: C_14  and  C_16
REMARK    9  A    between atoms: C_14  and  S_20
REMARK   10  A    between atoms: N_18  and  O_19
REMARK   11  A    between atoms: S_20  and  C_21
REMARK                            x       y       z     vdW  Elec       q    Type
REMARK                         _______ _______ _______ _____ _____    ______ ____
ROOT
ATOM      1  C   UNL     1       0.957   9.792  19.598  0.00  0.00    +0.000 A 
ATOM      2  C   UNL     1       1.277   8.727  20.459  0.00  0.00    +0.000 A 
ATOM      3  C   UNL     1       1.903   7.576  19.984  0.00  0.00    +0.000 A 
ATOM      4  C   UNL     1       2.239   7.466  18.633  0.00  0.00    +0.000 A 
ATOM      5  C   UNL     1       1.950   8.521  17.766  0.00  0.00    +0.000 A 
ATOM      6  C   UNL     1       1.313   9.662  18.244  0.00  0.00    +0.000 A 
ENDROOT
BRANCH   1  11
ATOM      7  C   UNL     1      -1.808  12.309  20.216  0.00  0.00    +0.000 A 
ATOM      8  C   UNL     1      -1.115  13.312  20.891  0.00  0.00    +0.000 A 
ATOM      9  C   UNL     1       0.241  13.162  21.186  0.00  0.00    +0.000 A 
ATOM     10  C   UNL     1       0.911  12.002  20.794  0.00  0.00    +0.000 A 
ATOM     11  C   UNL     1       0.244  10.987  20.086  0.00  0.00    +0.000 A 
ATOM     12  C   UNL     1      -1.123  11.163  19.814  0.00  0.00    +0.000 A 
BRANCH   7  14
ATOM     13  C   UNL     1      -3.903  12.981  21.110  0.00  0.00    +0.000 C 
ATOM     14  O   UNL     1      -3.133  12.565  19.987  0.00  0.00    +0.000 OA
ENDBRANCH   7  14
ENDBRANCH   1  11
BRANCH   4  15
ATOM     15  C   UNL     1       3.001   6.274  18.134  0.00  0.00    +0.000 C 
BRANCH  15  16
ATOM     16  C   UNL     1       4.416   6.158  18.714  0.00  0.00    +0.000 C 
BRANCH  16  17
ATOM     17  C   UNL     1       5.344   5.181  17.943  0.00  0.00    +0.000 C 
ATOM     18  C   UNL     1       5.247   5.428  16.427  0.00  0.00    +0.000 C 
BRANCH  17  19
ATOM     19  C   UNL     1       4.931   3.738  18.245  0.00  0.00    +0.000 C 
ATOM     20  O   UNL     1       4.234   3.070  17.477  0.00  0.00    +0.000 OA
ATOM     21  N   UNL     1       5.359   3.199  19.438  0.00  0.00    +0.000 N 
ATOM     22  H   UNL     1       6.239   3.491  19.870  0.00  0.00    +0.000 HD
BRANCH  21  23
ATOM     23  O   UNL     1       5.001   1.844  19.643  0.00  0.00    +0.000 OA
ATOM     24  H   UNL     1       4.784   1.534  18.736  0.00  0.00    +0.000 HD
ENDBRANCH  21  23
ENDBRANCH  17  19
BRANCH  17  25
ATOM     25  S   UNL     1       7.056   5.363  18.506  0.00  0.00    +0.000 S 
ATOM     26  C   UNL     1       7.641   6.933  17.919  0.00  0.00    +0.000 C 
ATOM     27  O   UNL     1       7.074   5.475  19.957  0.00  0.00    +0.000 OA
ATOM     28  O   UNL     1       7.840   4.329  17.855  0.00  0.00    +0.000 OA
ENDBRANCH  17  25
ENDBRANCH  16  17
ENDBRANCH  15  16
ENDBRANCH   4  15
TORSDOF 8
ENDMDL
MODEL 8
REMARK VINA RESULT:      -7.7      1.368      1.764
REMARK  Name = 
REMARK  11 active torsions:
REMARK  status: ('A' for Active; 'I' for Inactive)
REMARK    1  A    between atoms: C_1  and  O_2
REMARK    2  A    between atoms: O_2  and  C_3
REMARK    3  A    between atoms: C_7  and  C_8
REMARK    4  A    between atoms: C_11  and  C_12
REMARK    5  A    between atoms: C_12  and  C_13
REMARK    6  A    between atoms: C_13  and  C_14
REMARK    7  A    between atoms: C_14  and  C_15
REMARK    8  A    between atoms: C_14  and  C_16
REMARK    9  A    between atoms: C_14  and  S_20
REMARK   10  A    between atoms: N_18  and  O_19
REMARK   11  A    between atoms: S_20  and  C_21
REMARK                            x       y       z     vdW  Elec       q    Type
REMARK                         _______ _______ _______ _____ _____    ______ ____
ROOT
ATOM      1  C   UNL     1       1.049   9.494  19.727  0.00  0.00    +0.000 A 
ATOM      2  C   UNL     1       1.409   8.352  20.464  0.00  0.00    +0.000 A 
ATOM      3  C   UNL     1       2.063   7.279  19.863  0.00  0.00    +0.000 A 
ATOM      4  C   UNL     1       2.387   7.325  18.505  0.00  0.00    +0.000 A 
ATOM      5  C   UNL     1       2.059   8.459  17.761  0.00  0.00    +0.000 A 
ATOM      6  C   UNL     1       1.395   9.522  18.364  0.00  0.00    +0.000 A 
ENDROOT
BRANCH   1  11
ATOM      7  C   UNL     1      -1.151  11.435  22.127  0.00  0.00    +0.000 A 
ATOM      8  C   UNL     1      -1.222  12.671  21.488  0.00  0.00    +0.000 A 
ATOM      9  C   UNL     1      -0.526  12.897  20.300  0.00  0.00    +0.000 A 
ATOM     10  C   UNL     1       0.240  11.874  19.741  0.00  0.00    +0.000 A 
ATOM     11  C   UNL     1       0.307  10.608  20.347  0.00  0.00    +0.000 A 
ATOM     12  C   UNL     1      -0.395  10.415  21.548  0.00  0.00    +0.000 A 
BRANCH   7  14
ATOM     13  C   UNL     1      -2.959  12.235  23.442  0.00  0.00    +0.000 C 
ATOM     14  O   UNL     1      -1.869  11.332  23.287  0.00  0.00    +0.000 OA
ENDBRANCH   7  14
ENDBRANCH   1  11
BRANCH   4  15
ATOM     15  C   UNL     1       3.179   6.218  17.874  0.00  0.00    +0.000 C 
BRANCH  15  16
ATOM     16  C   UNL     1       4.690   6.478  17.842  0.00  0.00    +0.000 C 
BRANCH  16  17
ATOM     17  C   UNL     1       5.509   5.394  17.092  0.00  0.00    +0.000 C 
ATOM     18  C   UNL     1       5.192   5.424  15.587  0.00  0.00    +0.000 C 
BRANCH  17  19
ATOM     19  C   UNL     1       5.160   4.012  17.652  0.00  0.00    +0.000 C 
ATOM     20  O   UNL     1       4.590   3.146  16.983  0.00  0.00    +0.000 OA
ATOM     21  N   UNL     1       5.497   3.762  18.964  0.00  0.00    +0.000 N 
ATOM     22  H   UNL     1       6.307   4.209  19.401  0.00  0.00    +0.000 HD
BRANCH  21  23
ATOM     23  O   UNL     1       5.207   2.451  19.416  0.00  0.00    +0.000 OA
ATOM     24  H   UNL     1       4.920   1.994  18.594  0.00  0.00    +0.000 HD
ENDBRANCH  21  23
ENDBRANCH  17  19
BRANCH  17  25
ATOM     25  S   UNL     1       7.281   5.638  17.372  0.00  0.00    +0.000 S 
ATOM     26  C   UNL     1       7.490   6.083  19.078  0.00  0.00    +0.000 C 
ATOM     27  O   UNL     1       7.970   4.364  17.230  0.00  0.00    +0.000 OA
ATOM     28  O   UNL     1       7.696   6.773  16.567  0.00  0.00    +0.000 OA
ENDBRANCH  17  25
ENDBRANCH  16  17
ENDBRANCH  15  16
ENDBRANCH   4  15
TORSDOF 8
ENDMDL
MODEL 9
REMARK VINA RESULT:      -7.7      1.854      3.147
REMARK  Name = 
REMARK  11 active torsions:
REMARK  status: ('A' for Active; 'I' for Inactive)
REMARK    1  A    between atoms: C_1  and  O_2
REMARK    2  A    between atoms: O_2  and  C_3
REMARK    3  A    between atoms: C_7  and  C_8
REMARK    4  A    between atoms: C_11  and  C_12
REMARK    5  A    between atoms: C_12  and  C_13
REMARK    6  A    between atoms: C_13  and  C_14
REMARK    7  A    between atoms: C_14  and  C_15
REMARK    8  A    between atoms: C_14  and  C_16
REMARK    9  A    between atoms: C_14  and  S_20
REMARK   10  A    between atoms: N_18  and  O_19
REMARK   11  A    between atoms: S_20  and  C_21
REMARK                            x       y       z     vdW  Elec       q    Type
REMARK                         _______ _______ _______ _____ _____    ______ ____
ROOT
ATOM      1  C   UNL     1       0.615   9.776  19.634  0.00  0.00    +0.000 A 
ATOM      2  C   UNL     1       1.078   8.768  20.498  0.00  0.00    +0.000 A 
ATOM      3  C   UNL     1       1.919   7.755  20.042  0.00  0.00    +0.000 A 
ATOM      4  C   UNL     1       2.331   7.731  18.708  0.00  0.00    +0.000 A 
ATOM      5  C   UNL     1       1.901   8.735  17.840  0.00  0.00    +0.000 A 
ATOM      6  C   UNL     1       1.051   9.737  18.298  0.00  0.00    +0.000 A 
ENDROOT
BRANCH   1  11
ATOM      7  C   UNL     1      -1.508  11.917  21.932  0.00  0.00    +0.000 A 
ATOM      8  C   UNL     1      -2.193  12.704  21.010  0.00  0.00    +0.000 A 
ATOM      9  C   UNL     1      -1.944  12.577  19.643  0.00  0.00    +0.000 A 
ATOM     10  C   UNL     1      -1.006  11.646  19.194  0.00  0.00    +0.000 A 
ATOM     11  C   UNL     1      -0.321  10.817  20.099  0.00  0.00    +0.000 A 
ATOM     12  C   UNL     1      -0.586  10.977  21.469  0.00  0.00    +0.000 A 
BRANCH   7  14
ATOM     13  C   UNL     1      -3.212  12.319  23.536  0.00  0.00    +0.000 C 
ATOM     14  O   UNL     1      -1.831  12.133  23.244  0.00  0.00    +0.000 OA
ENDBRANCH   7  14
ENDBRANCH   1  11
BRANCH   4  15
ATOM     15  C   UNL     1       3.315   6.703  18.235  0.00  0.00    +0.000 C 
BRANCH  15  16
ATOM     16  C   UNL     1       2.687   5.335  17.942  0.00  0.00    +0.000 C 
BRANCH  16  17
ATOM     17  C   UNL     1       3.331   4.156  18.721  0.00  0.00    +0.000 C 
ATOM     18  C   UNL     1       3.084   4.311  20.231  0.00  0.00    +0.000 C 
BRANCH  17  19
ATOM     19  C   UNL     1       4.839   4.133  18.458  0.00  0.00    +0.000 C 
ATOM     20  O   UNL     1       5.674   4.307  19.349  0.00  0.00    +0.000 OA
ATOM     21  N   UNL     1       5.247   3.921  17.159  0.00  0.00    +0.000 N 
ATOM     22  H   UNL     1       4.691   3.358  16.510  0.00  0.00    +0.000 HD
BRANCH  21  23
ATOM     23  O   UNL     1       6.650   3.849  16.978  0.00  0.00    +0.000 OA
ATOM     24  H   UNL     1       6.992   3.866  17.900  0.00  0.00    +0.000 HD
ENDBRANCH  21  23
ENDBRANCH  17  19
BRANCH  17  25
ATOM     25  S   UNL     1       2.673   2.577  18.129  0.00  0.00    +0.000 S 
ATOM     26  C   UNL     1       1.154   2.278  18.998  0.00  0.00    +0.000 C 
ATOM     27  O   UNL     1       2.286   2.711  16.732  0.00  0.00    +0.000 OA
ATOM     28  O   UNL     1       3.613   1.541  18.517  0.00  0.00    +0.000 OA
ENDBRANCH  17  25
ENDBRANCH  16  17
ENDBRANCH  15  16
ENDBRANCH   4  15
TORSDOF 8
ENDMDL
