MODEL 1
REMARK VINA RESULT:      -8.8      0.000      0.000
REMARK  Name = 
REMARK  6 active torsions:
REMARK  status: ('A' for Active; 'I' for Inactive)
REMARK    1  A    between atoms: C_1  and  C_2
REMARK    2  A    between atoms: C_5  and  C_6
REMARK    3  A    between atoms: C_7  and  C_8
REMARK    4  A    between atoms: N_13  and  C_14
REMARK    5  A    between atoms: C_14  and  C_15
REMARK    6  A    between atoms: C_17  and  C_18
REMARK                            x       y       z     vdW  Elec       q    Type
REMARK                         _______ _______ _______ _____ _____    ______ ____
ROOT
ATOM      1  C   UNL     1       2.619   6.731  18.526  0.00  0.00    +0.000 A 
ATOM      2  C   UNL     1       2.368   7.997  17.911  0.00  0.00    +0.000 A 
ATOM      3  C   UNL     1       1.839   8.790  18.903  0.00  0.00    +0.000 A 
ATOM      4  C   UNL     1       1.391  10.147  18.977  0.00  0.00    +0.000 A 
ATOM      5  O   UNL     1       1.460  10.919  18.025  0.00  0.00    +0.000 OA
ATOM      6  N   UNL     1       0.917  10.527  20.247  0.00  0.00    +0.000 N 
ATOM      7  N   UNL     1       0.910   9.687  21.375  0.00  0.00    +0.000 NA
ATOM      8  C   UNL     1       1.341   8.467  21.235  0.00  0.00    +0.000 A 
ATOM      9  N   UNL     1       1.801   8.016  20.011  0.00  0.00    +0.000 N 
ATOM     10  N   UNL     1       2.275   6.773  19.829  0.00  0.00    +0.000 NA
ENDROOT
BRANCH   1  17
ATOM     11  C   UNL     1       6.304   4.713  15.806  0.00  0.00    +0.000 C 
ATOM     12  C   UNL     1       5.023   4.547  16.570  0.00  0.00    +0.000 A 
ATOM     13  C   UNL     1       4.441   3.289  16.708  0.00  0.00    +0.000 A 
ATOM     14  C   UNL     1       3.252   3.141  17.422  0.00  0.00    +0.000 A 
ATOM     15  C   UNL     1       2.616   4.245  18.017  0.00  0.00    +0.000 A 
ATOM     16  C   UNL     1       1.320   3.996  18.744  0.00  0.00    +0.000 C 
ATOM     17  C   UNL     1       3.203   5.527  17.904  0.00  0.00    +0.000 A 
ATOM     18  C   UNL     1       4.400   5.655  17.167  0.00  0.00    +0.000 A 
ENDBRANCH   1  17
BRANCH   6  19
ATOM     19  C   UNL     1       0.560  11.925  20.472  0.00  0.00    +0.000 C 
BRANCH  19  20
ATOM     20  C   UNL     1      -0.556  12.110  21.437  0.00  0.00    +0.000 A 
ATOM     21  N   UNL     1      -1.868  12.076  21.314  0.00  0.00    +0.000 NA
ATOM     22  C   UNL     1      -2.300  12.429  22.583  0.00  0.00    +0.000 A 
ATOM     23  N   UNL     1      -1.296  12.660  23.445  0.00  0.00    +0.000 NA
ATOM     24  O   UNL     1      -0.151  12.452  22.694  0.00  0.00    +0.000 OA
BRANCH  22  25
ATOM     25  C   UNL     1      -3.709  12.541  22.962  0.00  0.00    +0.000 A 
ATOM     26  C   UNL     1      -4.112  12.410  24.298  0.00  0.00    +0.000 A 
ATOM     27  C   UNL     1      -5.461  12.542  24.649  0.00  0.00    +0.000 A 
ATOM     28  C   UNL     1      -6.420  12.807  23.669  0.00  0.00    +0.000 A 
ATOM     29  C   UNL     1      -6.038  12.925  22.341  0.00  0.00    +0.000 A 
ATOM     30  C   UNL     1      -4.692  12.793  21.988  0.00  0.00    +0.000 A 
ENDBRANCH  22  25
ENDBRANCH  19  20
ENDBRANCH   6  19
TORSDOF 4
ENDMDL
MODEL 2
REMARK VINA RESULT:      -8.8      1.895      2.415
REMARK  Name = 
REMARK  6 active torsions:
REMARK  status: ('A' for Active; 'I' for Inactive)
REMARK    1  A    between atoms: C_1  and  C_2
REMARK    2  A    between atoms: C_5  and  C_6
REMARK    3  A    between atoms: C_7  and  C_8
REMARK    4  A    between atoms: N_13  and  C_14
REMARK    5  A    between atoms: C_14  and  C_15
REMARK    6  A    between atoms: C_17  and  C_18
REMARK                            x       y       z     vdW  Elec       q    Type
REMARK                         _______ _______ _______ _____ _____    ______ ____
ROOT
ATOM      1  C   UNL     1       2.709   7.049  18.507  0.00  0.00    +0.000 A 
ATOM      2  C   UNL     1       2.387   8.340  17.985  0.00  0.00    +0.000 A 
ATOM      3  C   UNL     1       1.730   8.995  19.002  0.00  0.00    +0.000 A 
ATOM      4  C   UNL     1       1.162  10.299  19.158  0.00  0.00    +0.000 A 
ATOM      5  O   UNL     1       1.222  11.157  18.282  0.00  0.00    +0.000 OA
ATOM      6  N   UNL     1       0.577  10.523  20.419  0.00  0.00    +0.000 N 
ATOM      7  N   UNL     1       0.574   9.587  21.470  0.00  0.00    +0.000 NA
ATOM      8  C   UNL     1       1.118   8.423  21.258  0.00  0.00    +0.000 A 
ATOM      9  N   UNL     1       1.690   8.124  20.034  0.00  0.00    +0.000 N 
ATOM     10  N   UNL     1       2.282   6.945  19.781  0.00  0.00    +0.000 NA
ENDROOT
BRANCH   1  17
ATOM     11  C   UNL     1       6.890   5.487  16.241  0.00  0.00    +0.000 C 
ATOM     12  C   UNL     1       5.496   5.201  16.720  0.00  0.00    +0.000 A 
ATOM     13  C   UNL     1       4.937   3.935  16.555  0.00  0.00    +0.000 A 
ATOM     14  C   UNL     1       3.644   3.675  17.005  0.00  0.00    +0.000 A 
ATOM     15  C   UNL     1       2.876   4.672  17.634  0.00  0.00    +0.000 A 
ATOM     16  C   UNL     1       1.478   4.310  18.061  0.00  0.00    +0.000 C 
ATOM     17  C   UNL     1       3.433   5.958  17.828  0.00  0.00    +0.000 A 
ATOM     18  C   UNL     1       4.741   6.202  17.354  0.00  0.00    +0.000 A 
ENDBRANCH   1  17
BRANCH   6  19
ATOM     19  C   UNL     1       0.087  11.861  20.737  0.00  0.00    +0.000 C 
BRANCH  19  20
ATOM     20  C   UNL     1      -1.386  12.007  20.598  0.00  0.00    +0.000 A 
ATOM     21  N   UNL     1      -2.215  11.850  19.585  0.00  0.00    +0.000 NA
ATOM     22  C   UNL     1      -3.430  12.242  20.126  0.00  0.00    +0.000 A 
ATOM     23  N   UNL     1      -3.348  12.614  21.414  0.00  0.00    +0.000 NA
ATOM     24  O   UNL     1      -2.007  12.461  21.724  0.00  0.00    +0.000 OA
BRANCH  22  25
ATOM     25  C   UNL     1      -4.689  12.254  19.378  0.00  0.00    +0.000 A 
ATOM     26  C   UNL     1      -5.897  12.590  20.001  0.00  0.00    +0.000 A 
ATOM     27  C   UNL     1      -7.091  12.620  19.269  0.00  0.00    +0.000 A 
ATOM     28  C   UNL     1      -7.087  12.312  17.907  0.00  0.00    +0.000 A 
ATOM     29  C   UNL     1      -5.900  11.963  17.279  0.00  0.00    +0.000 A 
ATOM     30  C   UNL     1      -4.708  11.934  18.009  0.00  0.00    +0.000 A 
ENDBRANCH  22  25
ENDBRANCH  19  20
ENDBRANCH   6  19
TORSDOF 4
ENDMDL
MODEL 3
REMARK VINA RESULT:      -8.7      0.780      1.211
REMARK  Name = 
REMARK  6 active torsions:
REMARK  status: ('A' for Active; 'I' for Inactive)
REMARK    1  A    between atoms: C_1  and  C_2
REMARK    2  A    between atoms: C_5  and  C_6
REMARK    3  A    between atoms: C_7  and  C_8
REMARK    4  A    between atoms: N_13  and  C_14
REMARK    5  A    between atoms: C_14  and  C_15
REMARK    6  A    between atoms: C_17  and  C_18
REMARK                            x       y       z     vdW  Elec       q    Type
REMARK                         _______ _______ _______ _____ _____    ______ ____
ROOT
ATOM      1  C   UNL     1       2.411   7.188  18.850  0.00  0.00    +0.000 A 
ATOM      2  C   UNL     1       2.004   8.443  18.301  0.00  0.00    +0.000 A 
ATOM      3  C   UNL     1       1.533   9.176  19.365  0.00  0.00    +0.000 A 
ATOM      4  C   UNL     1       1.000  10.495  19.523  0.00  0.00    +0.000 A 
ATOM      5  O   UNL     1       0.909  11.288  18.591  0.00  0.00    +0.000 OA
ATOM      6  N   UNL     1       0.643  10.815  20.848  0.00  0.00    +0.000 N 
ATOM      7  N   UNL     1       0.821   9.956  21.947  0.00  0.00    +0.000 NA
ATOM      8  C   UNL     1       1.320   8.773  21.728  0.00  0.00    +0.000 A 
ATOM      9  N   UNL     1       1.672   8.381  20.449  0.00  0.00    +0.000 N 
ATOM     10  N   UNL     1       2.211   7.180  20.183  0.00  0.00    +0.000 NA
ENDROOT
BRANCH   1  17
ATOM     11  C   UNL     1       5.893   5.504  15.672  0.00  0.00    +0.000 C 
ATOM     12  C   UNL     1       4.727   5.228  16.576  0.00  0.00    +0.000 A 
ATOM     13  C   UNL     1       4.262   3.926  16.752  0.00  0.00    +0.000 A 
ATOM     14  C   UNL     1       3.181   3.675  17.595  0.00  0.00    +0.000 A 
ATOM     15  C   UNL     1       2.537   4.717  18.287  0.00  0.00    +0.000 A 
ATOM     16  C   UNL     1       1.359   4.357  19.153  0.00  0.00    +0.000 C 
ATOM     17  C   UNL     1       3.008   6.043  18.136  0.00  0.00    +0.000 A 
ATOM     18  C   UNL     1       4.097   6.275  17.268  0.00  0.00    +0.000 A 
ENDBRANCH   1  17
BRANCH   6  19
ATOM     19  C   UNL     1       0.215  12.178  21.148  0.00  0.00    +0.000 C 
BRANCH  19  20
ATOM     20  C   UNL     1      -1.120  12.256  21.797  0.00  0.00    +0.000 A 
ATOM     21  N   UNL     1      -2.341  12.426  21.330  0.00  0.00    +0.000 NA
ATOM     22  C   UNL     1      -3.101  12.499  22.488  0.00  0.00    +0.000 A 
ATOM     23  N   UNL     1      -2.377  12.371  23.612  0.00  0.00    +0.000 NA
ATOM     24  O   UNL     1      -1.078  12.213  23.161  0.00  0.00    +0.000 OA
BRANCH  22  25
ATOM     25  C   UNL     1      -4.551  12.695  22.500  0.00  0.00    +0.000 A 
ATOM     26  C   UNL     1      -5.307  12.579  21.325  0.00  0.00    +0.000 A 
ATOM     27  C   UNL     1      -6.696  12.746  21.355  0.00  0.00    +0.000 A 
ATOM     28  C   UNL     1      -7.345  13.032  22.558  0.00  0.00    +0.000 A 
ATOM     29  C   UNL     1      -6.609  13.164  23.727  0.00  0.00    +0.000 A 
ATOM     30  C   UNL     1      -5.221  12.997  23.699  0.00  0.00    +0.000 A 
ENDBRANCH  22  25
ENDBRANCH  19  20
ENDBRANCH   6  19
TORSDOF 4
ENDMDL
MODEL 4
REMARK VINA RESULT:      -8.7      0.897      2.015
REMARK  Name = 
REMARK  6 active torsions:
REMARK  status: ('A' for Active; 'I' for Inactive)
REMARK    1  A    between atoms: C_1  and  C_2
REMARK    2  A    between atoms: C_5  and  C_6
REMARK    3  A    between atoms: C_7  and  C_8
REMARK    4  A    between atoms: N_13  and  C_14
REMARK    5  A    between atoms: C_14  and  C_15
REMARK    6  A    between atoms: C_17  and  C_18
REMARK                            x       y       z     vdW  Elec       q    Type
REMARK                         _______ _______ _______ _____ _____    ______ ____
ROOT
ATOM      1  C   UNL     1       2.248   7.114  19.026  0.00  0.00    +0.000 A 
ATOM      2  C   UNL     1       1.865   8.354  18.427  0.00  0.00    +0.000 A 
ATOM      3  C   UNL     1       1.449   9.153  19.466  0.00  0.00    +0.000 A 
ATOM      4  C   UNL     1       0.964  10.495  19.573  0.00  0.00    +0.000 A 
ATOM      5  O   UNL     1       0.871  11.245  18.606  0.00  0.00    +0.000 OA
ATOM      6  N   UNL     1       0.655  10.891  20.889  0.00  0.00    +0.000 N 
ATOM      7  N   UNL     1       0.837  10.080  22.024  0.00  0.00    +0.000 NA
ATOM      8  C   UNL     1       1.291   8.872  21.851  0.00  0.00    +0.000 A 
ATOM      9  N   UNL     1       1.594   8.407  20.584  0.00  0.00    +0.000 N 
ATOM     10  N   UNL     1       2.086   7.177  20.363  0.00  0.00    +0.000 NA
ENDROOT
BRANCH   1  17
ATOM     11  C   UNL     1       1.855   2.205  18.131  0.00  0.00    +0.000 C 
ATOM     12  C   UNL     1       2.578   3.503  17.919  0.00  0.00    +0.000 A 
ATOM     13  C   UNL     1       3.692   3.563  17.084  0.00  0.00    +0.000 A 
ATOM     14  C   UNL     1       4.358   4.771  16.888  0.00  0.00    +0.000 A 
ATOM     15  C   UNL     1       3.926   5.953  17.519  0.00  0.00    +0.000 A 
ATOM     16  C   UNL     1       4.724   7.206  17.272  0.00  0.00    +0.000 C 
ATOM     17  C   UNL     1       2.785   5.916  18.354  0.00  0.00    +0.000 A 
ATOM     18  C   UNL     1       2.134   4.678  18.547  0.00  0.00    +0.000 A 
ENDBRANCH   1  17
BRANCH   6  19
ATOM     19  C   UNL     1       0.280  12.281  21.134  0.00  0.00    +0.000 C 
BRANCH  19  20
ATOM     20  C   UNL     1      -1.028  12.435  21.822  0.00  0.00    +0.000 A 
ATOM     21  N   UNL     1      -2.278  12.368  21.407  0.00  0.00    +0.000 NA
ATOM     22  C   UNL     1      -2.993  12.707  22.546  0.00  0.00    +0.000 A 
ATOM     23  N   UNL     1      -2.214  12.961  23.611  0.00  0.00    +0.000 NA
ATOM     24  O   UNL     1      -0.926  12.784  23.137  0.00  0.00    +0.000 OA
BRANCH  22  25
ATOM     25  C   UNL     1      -4.454  12.784  22.598  0.00  0.00    +0.000 A 
ATOM     26  C   UNL     1      -5.229  12.607  21.444  0.00  0.00    +0.000 A 
ATOM     27  C   UNL     1      -6.627  12.659  21.512  0.00  0.00    +0.000 A 
ATOM     28  C   UNL     1      -7.263  12.891  22.734  0.00  0.00    +0.000 A 
ATOM     29  C   UNL     1      -6.508  13.082  23.883  0.00  0.00    +0.000 A 
ATOM     30  C   UNL     1      -5.112  13.029  23.816  0.00  0.00    +0.000 A 
ENDBRANCH  22  25
ENDBRANCH  19  20
ENDBRANCH   6  19
TORSDOF 4
ENDMDL
MODEL 5
REMARK VINA RESULT:      -8.6      1.145      2.059
REMARK  Name = 
REMARK  6 active torsions:
REMARK  status: ('A' for Active; 'I' for Inactive)
REMARK    1  A    between atoms: C_1  and  C_2
REMARK    2  A    between atoms: C_5  and  C_6
REMARK    3  A    between atoms: C_7  and  C_8
REMARK    4  A    between atoms: N_13  and  C_14
REMARK    5  A    between atoms: C_14  and  C_15
REMARK    6  A    between atoms: C_17  and  C_18
REMARK                            x       y       z     vdW  Elec       q    Type
REMARK                         _______ _______ _______ _____ _____    ______ ____
ROOT
ATOM      1  C   UNL     1       2.196   7.086  19.070  0.00  0.00    +0.000 A 
ATOM      2  C   UNL     1       1.834   8.324  18.454  0.00  0.00    +0.000 A 
ATOM      3  C   UNL     1       1.414   9.137  19.481  0.00  0.00    +0.000 A 
ATOM      4  C   UNL     1       0.942  10.485  19.570  0.00  0.00    +0.000 A 
ATOM      5  O   UNL     1       0.869  11.227  18.594  0.00  0.00    +0.000 OA
ATOM      6  N   UNL     1       0.622  10.897  20.878  0.00  0.00    +0.000 N 
ATOM      7  N   UNL     1       0.782  10.096  22.023  0.00  0.00    +0.000 NA
ATOM      8  C   UNL     1       1.225   8.881  21.867  0.00  0.00    +0.000 A 
ATOM      9  N   UNL     1       1.537   8.401  20.608  0.00  0.00    +0.000 N 
ATOM     10  N   UNL     1       2.019   7.163  20.404  0.00  0.00    +0.000 NA
ENDROOT
BRANCH   1  17
ATOM     11  C   UNL     1       1.795   2.161  18.268  0.00  0.00    +0.000 C 
ATOM     12  C   UNL     1       2.518   3.455  18.026  0.00  0.00    +0.000 A 
ATOM     13  C   UNL     1       3.625   3.499  17.182  0.00  0.00    +0.000 A 
ATOM     14  C   UNL     1       4.289   4.704  16.959  0.00  0.00    +0.000 A 
ATOM     15  C   UNL     1       3.863   5.897  17.572  0.00  0.00    +0.000 A 
ATOM     16  C   UNL     1       4.658   7.146  17.297  0.00  0.00    +0.000 C 
ATOM     17  C   UNL     1       2.728   5.875  18.416  0.00  0.00    +0.000 A 
ATOM     18  C   UNL     1       2.078   4.642  18.636  0.00  0.00    +0.000 A 
ENDBRANCH   1  17
BRANCH   6  19
ATOM     19  C   UNL     1       0.260  12.293  21.105  0.00  0.00    +0.000 C 
BRANCH  19  20
ATOM     20  C   UNL     1      -1.207  12.531  21.143  0.00  0.00    +0.000 A 
ATOM     21  N   UNL     1      -2.108  12.451  22.102  0.00  0.00    +0.000 NA
ATOM     22  C   UNL     1      -3.292  12.708  21.428  0.00  0.00    +0.000 A 
ATOM     23  N   UNL     1      -3.120  12.943  20.116  0.00  0.00    +0.000 NA
ATOM     24  O   UNL     1      -1.754  12.826  19.928  0.00  0.00    +0.000 OA
BRANCH  22  25
ATOM     25  C   UNL     1      -4.607  12.727  22.069  0.00  0.00    +0.000 A 
ATOM     26  C   UNL     1      -4.737  12.930  23.449  0.00  0.00    +0.000 A 
ATOM     27  C   UNL     1      -6.003  12.969  24.047  0.00  0.00    +0.000 A 
ATOM     28  C   UNL     1      -7.152  12.804  23.270  0.00  0.00    +0.000 A 
ATOM     29  C   UNL     1      -7.039  12.587  21.904  0.00  0.00    +0.000 A 
ATOM     30  C   UNL     1      -5.776  12.549  21.306  0.00  0.00    +0.000 A 
ENDBRANCH  22  25
ENDBRANCH  19  20
ENDBRANCH   6  19
TORSDOF 4
ENDMDL
MODEL 6
REMARK VINA RESULT:      -8.6      0.907      1.844
REMARK  Name = 
REMARK  6 active torsions:
REMARK  status: ('A' for Active; 'I' for Inactive)
REMARK    1  A    between atoms: C_1  and  C_2
REMARK    2  A    between atoms: C_5  and  C_6
REMARK    3  A    between atoms: C_7  and  C_8
REMARK    4  A    between atoms: N_13  and  C_14
REMARK    5  A    between atoms: C_14  and  C_15
REMARK    6  A    between atoms: C_17  and  C_18
REMARK                            x       y       z     vdW  Elec       q    Type
REMARK                         _______ _______ _______ _____ _____    ______ ____
ROOT
ATOM      1  C   UNL     1       2.147   7.021  19.108  0.00  0.00    +0.000 A 
ATOM      2  C   UNL     1       1.881   8.266  18.457  0.00  0.00    +0.000 A 
ATOM      3  C   UNL     1       1.538   9.141  19.462  0.00  0.00    +0.000 A 
ATOM      4  C   UNL     1       1.178  10.525  19.513  0.00  0.00    +0.000 A 
ATOM      5  O   UNL     1       1.155  11.240  18.516  0.00  0.00    +0.000 OA
ATOM      6  N   UNL     1       0.905  11.000  20.810  0.00  0.00    +0.000 N 
ATOM      7  N   UNL     1       1.010  10.223  21.978  0.00  0.00    +0.000 NA
ATOM      8  C   UNL     1       1.352   8.972  21.855  0.00  0.00    +0.000 A 
ATOM      9  N   UNL     1       1.613   8.431  20.610  0.00  0.00    +0.000 N 
ATOM     10  N   UNL     1       1.990   7.153  20.441  0.00  0.00    +0.000 NA
ENDROOT
BRANCH   1  17
ATOM     11  C   UNL     1       1.360   2.118  18.483  0.00  0.00    +0.000 C 
ATOM     12  C   UNL     1       2.173   3.344  18.185  0.00  0.00    +0.000 A 
ATOM     13  C   UNL     1       3.264   3.276  17.322  0.00  0.00    +0.000 A 
ATOM     14  C   UNL     1       4.014   4.418  17.046  0.00  0.00    +0.000 A 
ATOM     15  C   UNL     1       3.691   5.660  17.624  0.00  0.00    +0.000 A 
ATOM     16  C   UNL     1       4.573   6.834  17.293  0.00  0.00    +0.000 C 
ATOM     17  C   UNL     1       2.574   5.753  18.487  0.00  0.00    +0.000 A 
ATOM     18  C   UNL     1       1.836   4.581  18.761  0.00  0.00    +0.000 A 
ENDBRANCH   1  17
BRANCH   6  19
ATOM     19  C   UNL     1       0.658  12.427  20.997  0.00  0.00    +0.000 C 
BRANCH  19  20
ATOM     20  C   UNL     1      -0.514  12.723  21.862  0.00  0.00    +0.000 A 
ATOM     21  N   UNL     1      -1.782  12.367  21.814  0.00  0.00    +0.000 NA
ATOM     22  C   UNL     1      -2.335  13.077  22.869  0.00  0.00    +0.000 A 
ATOM     23  N   UNL     1      -1.442  13.826  23.537  0.00  0.00    +0.000 NA
ATOM     24  O   UNL     1      -0.248  13.596  22.877  0.00  0.00    +0.000 OA
BRANCH  22  25
ATOM     25  C   UNL     1      -3.752  13.023  23.233  0.00  0.00    +0.000 A 
ATOM     26  C   UNL     1      -4.173  12.394  24.412  0.00  0.00    +0.000 A 
ATOM     27  C   UNL     1      -5.529  12.370  24.760  0.00  0.00    +0.000 A 
ATOM     28  C   UNL     1      -6.478  12.974  23.931  0.00  0.00    +0.000 A 
ATOM     29  C   UNL     1      -6.078  13.588  22.753  0.00  0.00    +0.000 A 
ATOM     30  C   UNL     1      -4.724  13.613  22.405  0.00  0.00    +0.000 A 
ENDBRANCH  22  25
ENDBRANCH  19  20
ENDBRANCH   6  19
TORSDOF 4
ENDMDL
MODEL 7
REMARK VINA RESULT:      -8.6      0.852      1.031
REMARK  Name = 
REMARK  6 active torsions:
REMARK  status: ('A' for Active; 'I' for Inactive)
REMARK    1  A    between atoms: C_1  and  C_2
REMARK    2  A    between atoms: C_5  and  C_6
REMARK    3  A    between atoms: C_7  and  C_8
REMARK    4  A    between atoms: N_13  and  C_14
REMARK    5  A    between atoms: C_14  and  C_15
REMARK    6  A    between atoms: C_17  and  C_18
REMARK                            x       y       z     vdW  Elec       q    Type
REMARK                         _______ _______ _______ _____ _____    ______ ____
ROOT
ATOM      1  C   UNL     1       2.390   6.534  18.838  0.00  0.00    +0.000 A 
ATOM      2  C   UNL     1       2.155   7.767  18.155  0.00  0.00    +0.000 A 
ATOM      3  C   UNL     1       1.722   8.647  19.121  0.00  0.00    +0.000 A 
ATOM      4  C   UNL     1       1.337  10.025  19.128  0.00  0.00    +0.000 A 
ATOM      5  O   UNL     1       1.380  10.730  18.124  0.00  0.00    +0.000 OA
ATOM      6  N   UNL     1       0.958  10.508  20.396  0.00  0.00    +0.000 N 
ATOM      7  N   UNL     1       0.986   9.745  21.577  0.00  0.00    +0.000 NA
ATOM      8  C   UNL     1       1.356   8.499  21.495  0.00  0.00    +0.000 A 
ATOM      9  N   UNL     1       1.720   7.949  20.279  0.00  0.00    +0.000 N 
ATOM     10  N   UNL     1       2.129   6.676  20.154  0.00  0.00    +0.000 NA
ENDROOT
BRANCH   1  17
ATOM     11  C   UNL     1       5.693   4.202  15.887  0.00  0.00    +0.000 C 
ATOM     12  C   UNL     1       4.516   4.132  16.816  0.00  0.00    +0.000 A 
ATOM     13  C   UNL     1       3.947   2.904  17.145  0.00  0.00    +0.000 A 
ATOM     14  C   UNL     1       2.856   2.845  18.010  0.00  0.00    +0.000 A 
ATOM     15  C   UNL     1       2.306   4.012  18.572  0.00  0.00    +0.000 A 
ATOM     16  C   UNL     1       1.110   3.856  19.474  0.00  0.00    +0.000 C 
ATOM     17  C   UNL     1       2.883   5.267  18.266  0.00  0.00    +0.000 A 
ATOM     18  C   UNL     1       3.980   5.303  17.379  0.00  0.00    +0.000 A 
ENDBRANCH   1  17
BRANCH   6  19
ATOM     19  C   UNL     1       0.676  11.933  20.547  0.00  0.00    +0.000 C 
BRANCH  19  20
ATOM     20  C   UNL     1      -0.742  12.229  20.881  0.00  0.00    +0.000 A 
ATOM     21  N   UNL     1      -1.419  12.234  22.012  0.00  0.00    +0.000 NA
ATOM     22  C   UNL     1      -2.712  12.501  21.590  0.00  0.00    +0.000 A 
ATOM     23  N   UNL     1      -2.819  12.662  20.261  0.00  0.00    +0.000 NA
ATOM     24  O   UNL     1      -1.528  12.482  19.794  0.00  0.00    +0.000 OA
BRANCH  22  25
ATOM     25  C   UNL     1      -3.859  12.604  22.493  0.00  0.00    +0.000 A 
ATOM     26  C   UNL     1      -3.727  12.344  23.864  0.00  0.00    +0.000 A 
ATOM     27  C   UNL     1      -4.828  12.468  24.720  0.00  0.00    +0.000 A 
ATOM     28  C   UNL     1      -6.072  12.852  24.215  0.00  0.00    +0.000 A 
ATOM     29  C   UNL     1      -6.222  13.099  22.858  0.00  0.00    +0.000 A 
ATOM     30  C   UNL     1      -5.124  12.976  22.001  0.00  0.00    +0.000 A 
ENDBRANCH  22  25
ENDBRANCH  19  20
ENDBRANCH   6  19
TORSDOF 4
ENDMDL
MODEL 8
REMARK VINA RESULT:      -8.6      1.321      1.864
REMARK  Name = 
REMARK  6 active torsions:
REMARK  status: ('A' for Active; 'I' for Inactive)
REMARK    1  A    between atoms: C_1  and  C_2
REMARK    2  A    between atoms: C_5  and  C_6
REMARK    3  A    between atoms: C_7  and  C_8
REMARK    4  A    between atoms: N_13  and  C_14
REMARK    5  A    between atoms: C_14  and  C_15
REMARK    6  A    between atoms: C_17  and  C_18
REMARK                            x       y       z     vdW  Elec       q    Type
REMARK                         _______ _______ _______ _____ _____    ______ ____
ROOT
ATOM      1  C   UNL     1       2.110   7.581  19.279  0.00  0.00    +0.000 A 
ATOM      2  C   UNL     1       1.693   8.799  18.659  0.00  0.00    +0.000 A 
ATOM      3  C   UNL     1       1.173   9.570  19.673  0.00  0.00    +0.000 A 
ATOM      4  C   UNL     1       0.606  10.881  19.752  0.00  0.00    +0.000 A 
ATOM      5  O   UNL     1       0.526  11.628  18.780  0.00  0.00    +0.000 OA
ATOM      6  N   UNL     1       0.201  11.255  21.048  0.00  0.00    +0.000 N 
ATOM      7  N   UNL     1       0.363  10.453  22.191  0.00  0.00    +0.000 NA
ATOM      8  C   UNL     1       0.895   9.273  22.045  0.00  0.00    +0.000 A 
ATOM      9  N   UNL     1       1.295   8.830  20.797  0.00  0.00    +0.000 N 
ATOM     10  N   UNL     1       1.869   7.630  20.605  0.00  0.00    +0.000 NA
ENDROOT
BRANCH   1  17
ATOM     11  C   UNL     1       5.377   5.852  15.904  0.00  0.00    +0.000 C 
ATOM     12  C   UNL     1       4.365   5.581  16.980  0.00  0.00    +0.000 A 
ATOM     13  C   UNL     1       4.085   4.274  17.373  0.00  0.00    +0.000 A 
ATOM     14  C   UNL     1       3.147   4.029  18.374  0.00  0.00    +0.000 A 
ATOM     15  C   UNL     1       2.467   5.083  19.011  0.00  0.00    +0.000 A 
ATOM     16  C   UNL     1       1.449   4.723  20.061  0.00  0.00    +0.000 C 
ATOM     17  C   UNL     1       2.753   6.417  18.640  0.00  0.00    +0.000 A 
ATOM     18  C   UNL     1       3.698   6.642  17.615  0.00  0.00    +0.000 A 
ENDBRANCH   1  17
BRANCH   6  19
ATOM     19  C   UNL     1      -0.266  12.620  21.270  0.00  0.00    +0.000 C 
BRANCH  19  20
ATOM     20  C   UNL     1      -1.747  12.754  21.267  0.00  0.00    +0.000 A 
ATOM     21  N   UNL     1      -2.665  12.627  22.205  0.00  0.00    +0.000 NA
ATOM     22  C   UNL     1      -3.846  12.787  21.497  0.00  0.00    +0.000 A 
ATOM     23  N   UNL     1      -3.657  13.010  20.185  0.00  0.00    +0.000 NA
ATOM     24  O   UNL     1      -2.281  12.987  20.034  0.00  0.00    +0.000 OA
BRANCH  22  25
ATOM     25  C   UNL     1      -5.176  12.723  22.105  0.00  0.00    +0.000 A 
ATOM     26  C   UNL     1      -6.310  12.431  21.335  0.00  0.00    +0.000 A 
ATOM     27  C   UNL     1      -7.573  12.350  21.934  0.00  0.00    +0.000 A 
ATOM     28  C   UNL     1      -7.715  12.562  23.307  0.00  0.00    +0.000 A 
ATOM     29  C   UNL     1      -6.603  12.866  24.080  0.00  0.00    +0.000 A 
ATOM     30  C   UNL     1      -5.341  12.946  23.483  0.00  0.00    +0.000 A 
ENDBRANCH  22  25
ENDBRANCH  19  20
ENDBRANCH   6  19
TORSDOF 4
ENDMDL
MODEL 9
REMARK VINA RESULT:      -8.6      1.135      1.448
REMARK  Name = 
REMARK  6 active torsions:
REMARK  status: ('A' for Active; 'I' for Inactive)
REMARK    1  A    between atoms: C_1  and  C_2
REMARK    2  A    between atoms: C_5  and  C_6
REMARK    3  A    between atoms: C_7  and  C_8
REMARK    4  A    between atoms: N_13  and  C_14
REMARK    5  A    between atoms: C_14  and  C_15
REMARK    6  A    between atoms: C_17  and  C_18
REMARK                            x       y       z     vdW  Elec       q    Type
REMARK                         _______ _______ _______ _____ _____    ______ ____
ROOT
ATOM      1  C   UNL     1       2.612   7.135  18.530  0.00  0.00    +0.000 A 
ATOM      2  C   UNL     1       2.321   8.430  18.000  0.00  0.00    +0.000 A 
ATOM      3  C   UNL     1       1.703   9.116  19.021  0.00  0.00    +0.000 A 
ATOM      4  C   UNL     1       1.179  10.438  19.173  0.00  0.00    +0.000 A 
ATOM      5  O   UNL     1       1.250  11.285  18.287  0.00  0.00    +0.000 OA
ATOM      6  N   UNL     1       0.624  10.693  20.442  0.00  0.00    +0.000 N 
ATOM      7  N   UNL     1       0.610   9.769  21.502  0.00  0.00    +0.000 NA
ATOM      8  C   UNL     1       1.114   8.586  21.293  0.00  0.00    +0.000 A 
ATOM      9  N   UNL     1       1.655   8.257  20.063  0.00  0.00    +0.000 N 
ATOM     10  N   UNL     1       2.205   7.057  19.813  0.00  0.00    +0.000 NA
ENDROOT
BRANCH   1  17
ATOM     11  C   UNL     1       6.543   5.520  15.886  0.00  0.00    +0.000 C 
ATOM     12  C   UNL     1       5.230   5.233  16.555  0.00  0.00    +0.000 A 
ATOM     13  C   UNL     1       4.705   3.942  16.557  0.00  0.00    +0.000 A 
ATOM     14  C   UNL     1       3.487   3.681  17.182  0.00  0.00    +0.000 A 
ATOM     15  C   UNL     1       2.763   4.702  17.824  0.00  0.00    +0.000 A 
ATOM     16  C   UNL     1       1.443   4.335  18.448  0.00  0.00    +0.000 C 
ATOM     17  C   UNL     1       3.290   6.015  17.850  0.00  0.00    +0.000 A 
ATOM     18  C   UNL     1       4.520   6.258  17.201  0.00  0.00    +0.000 A 
ENDBRANCH   1  17
BRANCH   6  19
ATOM     19  C   UNL     1       0.181  12.049  20.754  0.00  0.00    +0.000 C 
BRANCH  19  20
ATOM     20  C   UNL     1      -1.292  12.231  20.669  0.00  0.00    +0.000 A 
ATOM     21  N   UNL     1      -2.234  12.391  21.577  0.00  0.00    +0.000 NA
ATOM     22  C   UNL     1      -3.392  12.401  20.813  0.00  0.00    +0.000 A 
ATOM     23  N   UNL     1      -3.165  12.263  19.496  0.00  0.00    +0.000 NA
ATOM     24  O   UNL     1      -1.789  12.150  19.400  0.00  0.00    +0.000 OA
BRANCH  22  25
ATOM     25  C   UNL     1      -4.736  12.549  21.374  0.00  0.00    +0.000 A 
ATOM     26  C   UNL     1      -4.927  13.000  22.686  0.00  0.00    +0.000 A 
ATOM     27  C   UNL     1      -6.219  13.159  23.202  0.00  0.00    +0.000 A 
ATOM     28  C   UNL     1      -7.333  12.867  22.411  0.00  0.00    +0.000 A 
ATOM     29  C   UNL     1      -7.159  12.405  21.114  0.00  0.00    +0.000 A 
ATOM     30  C   UNL     1      -5.869  12.246  20.598  0.00  0.00    +0.000 A 
ENDBRANCH  22  25
ENDBRANCH  19  20
ENDBRANCH   6  19
TORSDOF 4
ENDMDL
