MODEL 1
REMARK VINA RESULT:      -6.2      0.000      0.000
REMARK  Name = 
REMARK  8 active torsions:
REMARK  status: ('A' for Active; 'I' for Inactive)
REMARK    1  A    between atoms: N_1  and  C_2
REMARK    2  A    between atoms: C_2  and  C_3
REMARK    3  A    between atoms: C_3  and  C_5
REMARK    4  A    between atoms: C_5  and  C_6
REMARK    5  A    between atoms: C_6  and  C_7
REMARK    6  A    between atoms: C_7  and  O_9
REMARK    7  A    between atoms: O_9  and  C_10
REMARK    8  A    between atoms: C_10  and  C_11
REMARK                            x       y       z     vdW  Elec       q    Type
REMARK                         _______ _______ _______ _____ _____    ______ ____
ROOT
ATOM      1  C   UNL     1       5.287   6.183  16.021  0.00  0.00    +0.000 C 
ATOM      2  O   UNL     1       5.048   7.028  15.176  0.00  0.00    +0.000 OA
ENDROOT
BRANCH   1   3
ATOM      3  C   UNL     1       6.720   5.816  16.302  0.00  0.00    +0.000 C 
BRANCH   3   4
ATOM      4  C   UNL     1       6.861   4.523  17.111  0.00  0.00    +0.000 C 
BRANCH   4   5
ATOM      5  C   UNL     1       6.842   4.802  18.595  0.00  0.00    +0.000 C 
ATOM      6  O   UNL     1       6.079   4.174  19.318  0.00  0.00    +0.000 OA
BRANCH   5   7
ATOM      7  C   UNL     1       7.781   5.809  19.199  0.00  0.00    +0.000 C 
BRANCH   7   8
ATOM      8  N   UNL     1       8.169   5.422  20.560  0.00  0.00    +0.000 NA
ATOM      9  H   UNL     1       8.143   6.275  21.167  0.00  0.00    +0.000 HD
ATOM     10  H   UNL     1       7.514   4.720  20.974  0.00  0.00    +0.000 HD
ENDBRANCH   7   8
ENDBRANCH   5   7
ENDBRANCH   4   5
ENDBRANCH   3   4
ENDBRANCH   1   3
BRANCH   1  11
ATOM     11  O   UNL     1       4.275   5.622  16.745  0.00  0.00    +0.000 OA
BRANCH  11  12
ATOM     12  C   UNL     1       3.612   6.294  17.760  0.00  0.00    +0.000 C 
BRANCH  12  13
ATOM     13  C   UNL     1       2.690   5.354  18.488  0.00  0.00    +0.000 A 
ATOM     14  C   UNL     1       2.153   4.227  17.840  0.00  0.00    +0.000 A 
ATOM     15  C   UNL     1       1.287   3.366  18.524  0.00  0.00    +0.000 A 
ATOM     16  C   UNL     1       0.950   3.619  19.857  0.00  0.00    +0.000 A 
ATOM     17  C   UNL     1       1.481   4.739  20.507  0.00  0.00    +0.000 A 
ATOM     18  C   UNL     1       2.347   5.599  19.828  0.00  0.00    +0.000 A 
ENDBRANCH  12  13
ENDBRANCH  11  12
ENDBRANCH   1  11
TORSDOF 8
ENDMDL
MODEL 2
REMARK VINA RESULT:      -6.2      1.622      2.204
REMARK  Name = 
REMARK  8 active torsions:
REMARK  status: ('A' for Active; 'I' for Inactive)
REMARK    1  A    between atoms: N_1  and  C_2
REMARK    2  A    between atoms: C_2  and  C_3
REMARK    3  A    between atoms: C_3  and  C_5
REMARK    4  A    between atoms: C_5  and  C_6
REMARK    5  A    between atoms: C_6  and  C_7
REMARK    6  A    between atoms: C_7  and  O_9
REMARK    7  A    between atoms: O_9  and  C_10
REMARK    8  A    between atoms: C_10  and  C_11
REMARK                            x       y       z     vdW  Elec       q    Type
REMARK                         _______ _______ _______ _____ _____    ______ ____
ROOT
ATOM      1  C   UNL     1       5.271   4.216  16.297  0.00  0.00    +0.000 C 
ATOM      2  O   UNL     1       6.097   3.654  15.598  0.00  0.00    +0.000 OA
ENDROOT
BRANCH   1   3
ATOM      3  C   UNL     1       5.094   5.705  16.163  0.00  0.00    +0.000 C 
BRANCH   3   4
ATOM      4  C   UNL     1       5.537   6.478  17.408  0.00  0.00    +0.000 C 
BRANCH   4   5
ATOM      5  C   UNL     1       7.042   6.504  17.529  0.00  0.00    +0.000 C 
ATOM      6  O   UNL     1       7.717   6.904  16.590  0.00  0.00    +0.000 OA
BRANCH   5   7
ATOM      7  C   UNL     1       7.717   6.087  18.806  0.00  0.00    +0.000 C 
BRANCH   7   8
ATOM      8  N   UNL     1       6.802   5.329  19.666  0.00  0.00    +0.000 NA
ATOM      9  H   UNL     1       7.316   5.058  20.538  0.00  0.00    +0.000 HD
ATOM     10  H   UNL     1       5.970   5.892  19.952  0.00  0.00    +0.000 HD
ENDBRANCH   7   8
ENDBRANCH   5   7
ENDBRANCH   4   5
ENDBRANCH   3   4
ENDBRANCH   1   3
BRANCH   1  11
ATOM     11  O   UNL     1       4.477   3.498  17.144  0.00  0.00    +0.000 OA
BRANCH  11  12
ATOM     12  C   UNL     1       3.094   3.491  17.054  0.00  0.00    +0.000 C 
BRANCH  12  13
ATOM     13  C   UNL     1       2.485   3.596  18.426  0.00  0.00    +0.000 A 
ATOM     14  C   UNL     1       2.058   2.446  19.115  0.00  0.00    +0.000 A 
ATOM     15  C   UNL     1       1.484   2.558  20.386  0.00  0.00    +0.000 A 
ATOM     16  C   UNL     1       1.329   3.813  20.981  0.00  0.00    +0.000 A 
ATOM     17  C   UNL     1       1.752   4.961  20.302  0.00  0.00    +0.000 A 
ATOM     18  C   UNL     1       2.327   4.853  19.033  0.00  0.00    +0.000 A 
ENDBRANCH  12  13
ENDBRANCH  11  12
ENDBRANCH   1  11
TORSDOF 8
ENDMDL
MODEL 3
REMARK VINA RESULT:      -6.1      2.542      3.389
REMARK  Name = 
REMARK  8 active torsions:
REMARK  status: ('A' for Active; 'I' for Inactive)
REMARK    1  A    between atoms: N_1  and  C_2
REMARK    2  A    between atoms: C_2  and  C_3
REMARK    3  A    between atoms: C_3  and  C_5
REMARK    4  A    between atoms: C_5  and  C_6
REMARK    5  A    between atoms: C_6  and  C_7
REMARK    6  A    between atoms: C_7  and  O_9
REMARK    7  A    between atoms: O_9  and  C_10
REMARK    8  A    between atoms: C_10  and  C_11
REMARK                            x       y       z     vdW  Elec       q    Type
REMARK                         _______ _______ _______ _____ _____    ______ ____
ROOT
ATOM      1  C   UNL     1       5.417   5.989  17.591  0.00  0.00    +0.000 C 
ATOM      2  O   UNL     1       6.168   6.910  17.320  0.00  0.00    +0.000 OA
ENDROOT
BRANCH   1   3
ATOM      3  C   UNL     1       5.683   4.631  16.999  0.00  0.00    +0.000 C 
BRANCH   3   4
ATOM      4  C   UNL     1       7.046   4.535  16.307  0.00  0.00    +0.000 C 
BRANCH   4   5
ATOM      5  C   UNL     1       6.923   4.775  14.821  0.00  0.00    +0.000 C 
ATOM      6  O   UNL     1       7.770   5.444  14.245  0.00  0.00    +0.000 OA
BRANCH   5   7
ATOM      7  C   UNL     1       5.797   4.162  14.036  0.00  0.00    +0.000 C 
BRANCH   7   8
ATOM      8  N   UNL     1       6.302   3.224  13.028  0.00  0.00    +0.000 NA
ATOM      9  H   UNL     1       6.835   3.767  12.308  0.00  0.00    +0.000 HD
ATOM     10  H   UNL     1       6.955   2.518  13.437  0.00  0.00    +0.000 HD
ENDBRANCH   7   8
ENDBRANCH   5   7
ENDBRANCH   4   5
ENDBRANCH   3   4
ENDBRANCH   1   3
BRANCH   1  11
ATOM     11  O   UNL     1       4.386   6.172  18.468  0.00  0.00    +0.000 OA
BRANCH  11  12
ATOM     12  C   UNL     1       3.060   6.232  18.069  0.00  0.00    +0.000 C 
BRANCH  12  13
ATOM     13  C   UNL     1       2.284   5.096  18.676  0.00  0.00    +0.000 A 
ATOM     14  C   UNL     1       1.949   5.100  20.042  0.00  0.00    +0.000 A 
ATOM     15  C   UNL     1       1.236   4.032  20.598  0.00  0.00    +0.000 A 
ATOM     16  C   UNL     1       0.851   2.951  19.799  0.00  0.00    +0.000 A 
ATOM     17  C   UNL     1       1.180   2.940  18.439  0.00  0.00    +0.000 A 
ATOM     18  C   UNL     1       1.891   4.006  17.881  0.00  0.00    +0.000 A 
ENDBRANCH  12  13
ENDBRANCH  11  12
ENDBRANCH   1  11
TORSDOF 8
ENDMDL
MODEL 4
REMARK VINA RESULT:      -6.1      2.366      2.896
REMARK  Name = 
REMARK  8 active torsions:
REMARK  status: ('A' for Active; 'I' for Inactive)
REMARK    1  A    between atoms: N_1  and  C_2
REMARK    2  A    between atoms: C_2  and  C_3
REMARK    3  A    between atoms: C_3  and  C_5
REMARK    4  A    between atoms: C_5  and  C_6
REMARK    5  A    between atoms: C_6  and  C_7
REMARK    6  A    between atoms: C_7  and  O_9
REMARK    7  A    between atoms: O_9  and  C_10
REMARK    8  A    between atoms: C_10  and  C_11
REMARK                            x       y       z     vdW  Elec       q    Type
REMARK                         _______ _______ _______ _____ _____    ______ ____
ROOT
ATOM      1  C   UNL     1       4.295   5.522  18.091  0.00  0.00    +0.000 C 
ATOM      2  O   UNL     1       3.559   6.447  18.387  0.00  0.00    +0.000 OA
ENDROOT
BRANCH   1   3
ATOM      3  C   UNL     1       5.693   5.493  18.651  0.00  0.00    +0.000 C 
BRANCH   3   4
ATOM      4  C   UNL     1       6.742   6.026  17.671  0.00  0.00    +0.000 C 
BRANCH   4   5
ATOM      5  C   UNL     1       7.325   4.912  16.834  0.00  0.00    +0.000 C 
ATOM      6  O   UNL     1       8.189   4.188  17.308  0.00  0.00    +0.000 OA
BRANCH   5   7
ATOM      7  C   UNL     1       6.820   4.656  15.441  0.00  0.00    +0.000 C 
BRANCH   7   8
ATOM      8  N   UNL     1       7.628   5.369  14.445  0.00  0.00    +0.000 NA
ATOM      9  H   UNL     1       7.555   6.397  14.635  0.00  0.00    +0.000 HD
ATOM     10  H   UNL     1       8.639   5.110  14.497  0.00  0.00    +0.000 HD
ENDBRANCH   7   8
ENDBRANCH   5   7
ENDBRANCH   4   5
ENDBRANCH   3   4
ENDBRANCH   1   3
BRANCH   1  11
ATOM     11  O   UNL     1       3.839   4.494  17.316  0.00  0.00    +0.000 OA
BRANCH  11  12
ATOM     12  C   UNL     1       3.803   3.180  17.753  0.00  0.00    +0.000 C 
BRANCH  12  13
ATOM     13  C   UNL     1       2.924   3.062  18.968  0.00  0.00    +0.000 A 
ATOM     14  C   UNL     1       1.530   3.232  18.869  0.00  0.00    +0.000 A 
ATOM     15  C   UNL     1       0.724   3.131  20.008  0.00  0.00    +0.000 A 
ATOM     16  C   UNL     1       1.297   2.861  21.254  0.00  0.00    +0.000 A 
ATOM     17  C   UNL     1       2.682   2.691  21.361  0.00  0.00    +0.000 A 
ATOM     18  C   UNL     1       3.489   2.790  20.225  0.00  0.00    +0.000 A 
ENDBRANCH  12  13
ENDBRANCH  11  12
ENDBRANCH   1  11
TORSDOF 8
ENDMDL
MODEL 5
REMARK VINA RESULT:      -6.1      2.312      2.832
REMARK  Name = 
REMARK  8 active torsions:
REMARK  status: ('A' for Active; 'I' for Inactive)
REMARK    1  A    between atoms: N_1  and  C_2
REMARK    2  A    between atoms: C_2  and  C_3
REMARK    3  A    between atoms: C_3  and  C_5
REMARK    4  A    between atoms: C_5  and  C_6
REMARK    5  A    between atoms: C_6  and  C_7
REMARK    6  A    between atoms: C_7  and  O_9
REMARK    7  A    between atoms: O_9  and  C_10
REMARK    8  A    between atoms: C_10  and  C_11
REMARK                            x       y       z     vdW  Elec       q    Type
REMARK                         _______ _______ _______ _____ _____    ______ ____
ROOT
ATOM      1  C   UNL     1       5.215   6.451  17.251  0.00  0.00    +0.000 C 
ATOM      2  O   UNL     1       4.821   6.941  16.207  0.00  0.00    +0.000 OA
ENDROOT
BRANCH   1   3
ATOM      3  C   UNL     1       6.692   6.230  17.442  0.00  0.00    +0.000 C 
BRANCH   3   4
ATOM      4  C   UNL     1       7.162   4.856  16.956  0.00  0.00    +0.000 C 
BRANCH   4   5
ATOM      5  C   UNL     1       7.022   4.728  15.458  0.00  0.00    +0.000 C 
ATOM      6  O   UNL     1       7.747   5.387  14.725  0.00  0.00    +0.000 OA
BRANCH   5   7
ATOM      7  C   UNL     1       6.034   3.766  14.859  0.00  0.00    +0.000 C 
BRANCH   7   8
ATOM      8  N   UNL     1       6.341   3.500  13.449  0.00  0.00    +0.000 NA
ATOM      9  H   UNL     1       5.720   2.724  13.116  0.00  0.00    +0.000 HD
ATOM     10  H   UNL     1       6.161   4.331  12.841  0.00  0.00    +0.000 HD
ENDBRANCH   7   8
ENDBRANCH   5   7
ENDBRANCH   4   5
ENDBRANCH   3   4
ENDBRANCH   1   3
BRANCH   1  11
ATOM     11  O   UNL     1       4.337   6.163  18.256  0.00  0.00    +0.000 OA
BRANCH  11  12
ATOM     12  C   UNL     1       2.967   6.335  18.132  0.00  0.00    +0.000 C 
BRANCH  12  13
ATOM     13  C   UNL     1       2.242   5.172  18.752  0.00  0.00    +0.000 A 
ATOM     14  C   UNL     1       1.802   4.093  17.963  0.00  0.00    +0.000 A 
ATOM     15  C   UNL     1       1.119   3.022  18.550  0.00  0.00    +0.000 A 
ATOM     16  C   UNL     1       0.867   3.016  19.925  0.00  0.00    +0.000 A 
ATOM     17  C   UNL     1       1.302   4.086  20.716  0.00  0.00    +0.000 A 
ATOM     18  C   UNL     1       1.986   5.156  20.134  0.00  0.00    +0.000 A 
ENDBRANCH  12  13
ENDBRANCH  11  12
ENDBRANCH   1  11
TORSDOF 8
ENDMDL
MODEL 6
REMARK VINA RESULT:      -6.1      1.568      1.707
REMARK  Name = 
REMARK  8 active torsions:
REMARK  status: ('A' for Active; 'I' for Inactive)
REMARK    1  A    between atoms: N_1  and  C_2
REMARK    2  A    between atoms: C_2  and  C_3
REMARK    3  A    between atoms: C_3  and  C_5
REMARK    4  A    between atoms: C_5  and  C_6
REMARK    5  A    between atoms: C_6  and  C_7
REMARK    6  A    between atoms: C_7  and  O_9
REMARK    7  A    between atoms: O_9  and  C_10
REMARK    8  A    between atoms: C_10  and  C_11
REMARK                            x       y       z     vdW  Elec       q    Type
REMARK                         _______ _______ _______ _____ _____    ______ ____
ROOT
ATOM      1  C   UNL     1       4.818   5.154  16.832  0.00  0.00    +0.000 C 
ATOM      2  O   UNL     1       5.242   5.900  15.967  0.00  0.00    +0.000 OA
ENDROOT
BRANCH   1   3
ATOM      3  C   UNL     1       5.788   4.281  17.582  0.00  0.00    +0.000 C 
BRANCH   3   4
ATOM      4  C   UNL     1       7.246   4.716  17.408  0.00  0.00    +0.000 C 
BRANCH   4   5
ATOM      5  C   UNL     1       7.673   5.654  18.512  0.00  0.00    +0.000 C 
ATOM      6  O   UNL     1       7.895   5.210  19.630  0.00  0.00    +0.000 OA
BRANCH   5   7
ATOM      7  C   UNL     1       7.870   7.120  18.240  0.00  0.00    +0.000 C 
BRANCH   7   8
ATOM      8  N   UNL     1       7.565   7.445  16.842  0.00  0.00    +0.000 NA
ATOM      9  H   UNL     1       7.109   6.612  16.401  0.00  0.00    +0.000 HD
ATOM     10  H   UNL     1       6.903   8.249  16.759  0.00  0.00    +0.000 HD
ENDBRANCH   7   8
ENDBRANCH   5   7
ENDBRANCH   4   5
ENDBRANCH   3   4
ENDBRANCH   1   3
BRANCH   1  11
ATOM     11  O   UNL     1       3.492   5.154  17.159  0.00  0.00    +0.000 OA
BRANCH  11  12
ATOM     12  C   UNL     1       2.997   5.780  18.292  0.00  0.00    +0.000 C 
BRANCH  12  13
ATOM     13  C   UNL     1       2.355   4.769  19.203  0.00  0.00    +0.000 A 
ATOM     14  C   UNL     1       1.448   3.819  18.700  0.00  0.00    +0.000 A 
ATOM     15  C   UNL     1       0.849   2.890  19.559  0.00  0.00    +0.000 A 
ATOM     16  C   UNL     1       1.148   2.900  20.924  0.00  0.00    +0.000 A 
ATOM     17  C   UNL     1       2.050   3.842  21.432  0.00  0.00    +0.000 A 
ATOM     18  C   UNL     1       2.650   4.769  20.577  0.00  0.00    +0.000 A 
ENDBRANCH  12  13
ENDBRANCH  11  12
ENDBRANCH   1  11
TORSDOF 8
ENDMDL
MODEL 7
REMARK VINA RESULT:      -6.0      2.499      3.537
REMARK  Name = 
REMARK  8 active torsions:
REMARK  status: ('A' for Active; 'I' for Inactive)
REMARK    1  A    between atoms: N_1  and  C_2
REMARK    2  A    between atoms: C_2  and  C_3
REMARK    3  A    between atoms: C_3  and  C_5
REMARK    4  A    between atoms: C_5  and  C_6
REMARK    5  A    between atoms: C_6  and  C_7
REMARK    6  A    between atoms: C_7  and  O_9
REMARK    7  A    between atoms: O_9  and  C_10
REMARK    8  A    between atoms: C_10  and  C_11
REMARK                            x       y       z     vdW  Elec       q    Type
REMARK                         _______ _______ _______ _____ _____    ______ ____
ROOT
ATOM      1  C   UNL     1       6.645   5.582  19.223  0.00  0.00    +0.000 C 
ATOM      2  O   UNL     1       7.370   5.344  20.173  0.00  0.00    +0.000 OA
ENDROOT
BRANCH   1   3
ATOM      3  C   UNL     1       7.230   6.257  18.011  0.00  0.00    +0.000 C 
BRANCH   3   4
ATOM      4  C   UNL     1       6.318   6.181  16.783  0.00  0.00    +0.000 C 
BRANCH   4   5
ATOM      5  C   UNL     1       6.822   5.164  15.788  0.00  0.00    +0.000 C 
ATOM      6  O   UNL     1       7.843   4.536  16.031  0.00  0.00    +0.000 OA
BRANCH   5   7
ATOM      7  C   UNL     1       6.057   4.882  14.524  0.00  0.00    +0.000 C 
BRANCH   7   8
ATOM      8  N   UNL     1       6.301   3.516  14.051  0.00  0.00    +0.000 NA
ATOM      9  H   UNL     1       7.081   3.104  14.616  0.00  0.00    +0.000 HD
ATOM     10  H   UNL     1       5.465   2.900  14.172  0.00  0.00    +0.000 HD
ENDBRANCH   7   8
ENDBRANCH   5   7
ENDBRANCH   4   5
ENDBRANCH   3   4
ENDBRANCH   1   3
BRANCH   1  11
ATOM     11  O   UNL     1       5.339   5.187  19.232  0.00  0.00    +0.000 OA
BRANCH  11  12
ATOM     12  C   UNL     1       4.953   3.857  19.195  0.00  0.00    +0.000 C 
BRANCH  12  13
ATOM     13  C   UNL     1       3.497   3.729  19.551  0.00  0.00    +0.000 A 
ATOM     14  C   UNL     1       2.858   4.709  20.332  0.00  0.00    +0.000 A 
ATOM     15  C   UNL     1       1.505   4.574  20.665  0.00  0.00    +0.000 A 
ATOM     16  C   UNL     1       0.779   3.464  20.225  0.00  0.00    +0.000 A 
ATOM     17  C   UNL     1       1.409   2.485  19.448  0.00  0.00    +0.000 A 
ATOM     18  C   UNL     1       2.758   2.618  19.112  0.00  0.00    +0.000 A 
ENDBRANCH  12  13
ENDBRANCH  11  12
ENDBRANCH   1  11
TORSDOF 8
ENDMDL
MODEL 8
REMARK VINA RESULT:      -6.0      2.523      3.671
REMARK  Name = 
REMARK  8 active torsions:
REMARK  status: ('A' for Active; 'I' for Inactive)
REMARK    1  A    between atoms: N_1  and  C_2
REMARK    2  A    between atoms: C_2  and  C_3
REMARK    3  A    between atoms: C_3  and  C_5
REMARK    4  A    between atoms: C_5  and  C_6
REMARK    5  A    between atoms: C_6  and  C_7
REMARK    6  A    between atoms: C_7  and  O_9
REMARK    7  A    between atoms: O_9  and  C_10
REMARK    8  A    between atoms: C_10  and  C_11
REMARK                            x       y       z     vdW  Elec       q    Type
REMARK                         _______ _______ _______ _____ _____    ______ ____
ROOT
ATOM      1  C   UNL     1       5.992   4.966  18.343  0.00  0.00    +0.000 C 
ATOM      2  O   UNL     1       6.068   4.188  19.279  0.00  0.00    +0.000 OA
ENDROOT
BRANCH   1   3
ATOM      3  C   UNL     1       6.898   4.771  17.157  0.00  0.00    +0.000 C 
BRANCH   3   4
ATOM      4  C   UNL     1       6.266   3.918  16.053  0.00  0.00    +0.000 C 
BRANCH   4   5
ATOM      5  C   UNL     1       6.563   4.485  14.685  0.00  0.00    +0.000 C 
ATOM      6  O   UNL     1       7.507   5.249  14.540  0.00  0.00    +0.000 OA
BRANCH   5   7
ATOM      7  C   UNL     1       5.739   4.084  13.493  0.00  0.00    +0.000 C 
BRANCH   7   8
ATOM      8  N   UNL     1       6.405   3.032  12.718  0.00  0.00    +0.000 NA
ATOM      9  H   UNL     1       5.803   2.798  11.892  0.00  0.00    +0.000 HD
ATOM     10  H   UNL     1       7.335   3.338  12.353  0.00  0.00    +0.000 HD
ENDBRANCH   7   8
ENDBRANCH   5   7
ENDBRANCH   4   5
ENDBRANCH   3   4
ENDBRANCH   1   3
BRANCH   1  11
ATOM     11  O   UNL     1       5.057   5.961  18.344  0.00  0.00    +0.000 OA
BRANCH  11  12
ATOM     12  C   UNL     1       3.860   5.870  17.651  0.00  0.00    +0.000 C 
BRANCH  12  13
ATOM     13  C   UNL     1       2.840   5.130  18.473  0.00  0.00    +0.000 A 
ATOM     14  C   UNL     1       2.602   5.484  19.814  0.00  0.00    +0.000 A 
ATOM     15  C   UNL     1       1.659   4.781  20.572  0.00  0.00    +0.000 A 
ATOM     16  C   UNL     1       0.945   3.723  20.002  0.00  0.00    +0.000 A 
ATOM     17  C   UNL     1       1.176   3.366  18.669  0.00  0.00    +0.000 A 
ATOM     18  C   UNL     1       2.116   4.066  17.909  0.00  0.00    +0.000 A 
ENDBRANCH  12  13
ENDBRANCH  11  12
ENDBRANCH   1  11
TORSDOF 8
ENDMDL
MODEL 9
REMARK VINA RESULT:      -6.0      2.138      3.328
REMARK  Name = 
REMARK  8 active torsions:
REMARK  status: ('A' for Active; 'I' for Inactive)
REMARK    1  A    between atoms: N_1  and  C_2
REMARK    2  A    between atoms: C_2  and  C_3
REMARK    3  A    between atoms: C_3  and  C_5
REMARK    4  A    between atoms: C_5  and  C_6
REMARK    5  A    between atoms: C_6  and  C_7
REMARK    6  A    between atoms: C_7  and  O_9
REMARK    7  A    between atoms: O_9  and  C_10
REMARK    8  A    between atoms: C_10  and  C_11
REMARK                            x       y       z     vdW  Elec       q    Type
REMARK                         _______ _______ _______ _____ _____    ______ ____
ROOT
ATOM      1  C   UNL     1       7.012   5.104  19.272  0.00  0.00    +0.000 C 
ATOM      2  O   UNL     1       7.535   5.546  20.280  0.00  0.00    +0.000 OA
ENDROOT
BRANCH   1   3
ATOM      3  C   UNL     1       7.769   5.160  17.972  0.00  0.00    +0.000 C 
BRANCH   3   4
ATOM      4  C   UNL     1       7.127   6.094  16.942  0.00  0.00    +0.000 C 
BRANCH   4   5
ATOM      5  C   UNL     1       6.726   5.342  15.695  0.00  0.00    +0.000 C 
ATOM      6  O   UNL     1       7.467   5.349  14.722  0.00  0.00    +0.000 OA
BRANCH   5   7
ATOM      7  C   UNL     1       5.449   4.550  15.654  0.00  0.00    +0.000 C 
BRANCH   7   8
ATOM      8  N   UNL     1       5.612   3.249  16.312  0.00  0.00    +0.000 NA
ATOM      9  H   UNL     1       6.480   2.796  15.939  0.00  0.00    +0.000 HD
ATOM     10  H   UNL     1       5.724   3.340  17.347  0.00  0.00    +0.000 HD
ENDBRANCH   7   8
ENDBRANCH   5   7
ENDBRANCH   4   5
ENDBRANCH   3   4
ENDBRANCH   1   3
BRANCH   1  11
ATOM     11  O   UNL     1       5.784   4.510  19.331  0.00  0.00    +0.000 OA
BRANCH  11  12
ATOM     12  C   UNL     1       4.598   5.225  19.267  0.00  0.00    +0.000 C 
BRANCH  12  13
ATOM     13  C   UNL     1       3.449   4.296  18.984  0.00  0.00    +0.000 A 
ATOM     14  C   UNL     1       2.293   4.759  18.328  0.00  0.00    +0.000 A 
ATOM     15  C   UNL     1       1.226   3.889  18.080  0.00  0.00    +0.000 A 
ATOM     16  C   UNL     1       1.300   2.552  18.483  0.00  0.00    +0.000 A 
ATOM     17  C   UNL     1       2.446   2.085  19.136  0.00  0.00    +0.000 A 
ATOM     18  C   UNL     1       3.514   2.951  19.383  0.00  0.00    +0.000 A 
ENDBRANCH  12  13
ENDBRANCH  11  12
ENDBRANCH   1  11
TORSDOF 8
ENDMDL
