MODEL 1
REMARK VINA RESULT:      -7.5      0.000      0.000
REMARK  Name = 
REMARK  9 active torsions:
REMARK  status: ('A' for Active; 'I' for Inactive)
REMARK    1  A    between atoms: C_1  and  C_2
REMARK    2  A    between atoms: C_2  and  N_3
REMARK    3  A    between atoms: C_6  and  C_7
REMARK    4  A    between atoms: C_9  and  N_10
REMARK    5  A    between atoms: N_10  and  C_11
REMARK    6  A    between atoms: C_11  and  C_12
REMARK    7  A    between atoms: C_12  and  N_13
REMARK    8  A    between atoms: C_14  and  C_16
REMARK    9  A    between atoms: C_20  and  C_21
REMARK                            x       y       z     vdW  Elec       q    Type
REMARK                         _______ _______ _______ _____ _____    ______ ____
ROOT
ATOM      1  N   UNL     1       5.809   3.735  18.830  0.00  0.00    +0.000 N 
ATOM      2  H   UNL     1       6.546   3.394  19.438  0.00  0.00    +0.000 HD
ENDROOT
BRANCH   1   9
ATOM      3  N   UNL     1       7.023   4.930  14.389  0.00  0.00    +0.000 N 
ATOM      4  C   UNL     1       6.908   5.220  15.743  0.00  0.00    +0.000 A 
ATOM      5  N   UNL     1       7.372   6.418  16.112  0.00  0.00    +0.000 NA
ATOM      6  C   UNL     1       7.317   6.724  17.421  0.00  0.00    +0.000 A 
ATOM      7  C   UNL     1       7.880   8.043  17.849  0.00  0.00    +0.000 C 
ATOM      8  C   UNL     1       6.779   5.859  18.351  0.00  0.00    +0.000 A 
ATOM      9  C   UNL     1       6.293   4.654  17.887  0.00  0.00    +0.000 A 
ATOM     10  N   UNL     1       6.368   4.328  16.588  0.00  0.00    +0.000 NA
ATOM     11  H   UNL     1       7.162   5.823  13.927  0.00  0.00    +0.000 HD
BRANCH   3  13
ATOM     12  C   UNL     1       6.419   3.528  12.511  0.00  0.00    +0.000 C 
ATOM     13  C   UNL     1       5.977   4.087  13.853  0.00  0.00    +0.000 C 
ENDBRANCH   3  13
ENDBRANCH   1   9
BRANCH   1  14
ATOM     14  C   UNL     1       4.599   4.108  19.561  0.00  0.00    +0.000 C 
BRANCH  14  15
ATOM     15  C   UNL     1       3.437   4.337  18.586  0.00  0.00    +0.000 C 
BRANCH  15  16
ATOM     16  N   UNL     1       3.027   5.728  18.525  0.00  0.00    +0.000 N 
ATOM     17  C   UNL     1       2.330   6.353  19.543  0.00  0.00    +0.000 C 
ATOM     18  O   UNL     1       2.020   5.762  20.568  0.00  0.00    +0.000 OA
ATOM     19  H   UNL     1       3.341   6.268  17.730  0.00  0.00    +0.000 HD
BRANCH  17  20
ATOM     20  C   UNL     1       2.002   7.748  19.303  0.00  0.00    +0.000 A 
ATOM     21  S   UNL     1       2.314   8.545  17.813  0.00  0.00    +0.000 S 
ATOM     22  N   UNL     1       1.686   9.996  18.328  0.00  0.00    +0.000 NA
ATOM     23  N   UNL     1       1.240   9.947  19.568  0.00  0.00    +0.000 NA
ATOM     24  C   UNL     1       1.410   8.688  20.140  0.00  0.00    +0.000 A 
ATOM     25  C   UNL     1       0.959   8.504  21.542  0.00  0.00    +0.000 C 
ENDBRANCH  17  20
ENDBRANCH  15  16
ENDBRANCH  14  15
ENDBRANCH   1  14
TORSDOF 6
ENDMDL
MODEL 2
REMARK VINA RESULT:      -7.3      1.296      1.598
REMARK  Name = 
REMARK  9 active torsions:
REMARK  status: ('A' for Active; 'I' for Inactive)
REMARK    1  A    between atoms: C_1  and  C_2
REMARK    2  A    between atoms: C_2  and  N_3
REMARK    3  A    between atoms: C_6  and  C_7
REMARK    4  A    between atoms: C_9  and  N_10
REMARK    5  A    between atoms: N_10  and  C_11
REMARK    6  A    between atoms: C_11  and  C_12
REMARK    7  A    between atoms: C_12  and  N_13
REMARK    8  A    between atoms: C_14  and  C_16
REMARK    9  A    between atoms: C_20  and  C_21
REMARK                            x       y       z     vdW  Elec       q    Type
REMARK                         _______ _______ _______ _____ _____    ______ ____
ROOT
ATOM      1  N   UNL     1       5.080   3.571  18.466  0.00  0.00    +0.000 N 
ATOM      2  H   UNL     1       4.952   3.974  19.388  0.00  0.00    +0.000 HD
ENDROOT
BRANCH   1   9
ATOM      3  N   UNL     1       7.007   4.633  14.249  0.00  0.00    +0.000 N 
ATOM      4  C   UNL     1       6.752   4.927  15.583  0.00  0.00    +0.000 A 
ATOM      5  N   UNL     1       7.306   6.056  16.036  0.00  0.00    +0.000 NA
ATOM      6  C   UNL     1       7.117   6.357  17.333  0.00  0.00    +0.000 A 
ATOM      7  C   UNL     1       7.776   7.594  17.861  0.00  0.00    +0.000 C 
ATOM      8  C   UNL     1       6.358   5.561  18.166  0.00  0.00    +0.000 A 
ATOM      9  C   UNL     1       5.793   4.429  17.615  0.00  0.00    +0.000 A 
ATOM     10  N   UNL     1       5.999   4.104  16.330  0.00  0.00    +0.000 NA
ATOM     11  H   UNL     1       7.316   5.504  13.829  0.00  0.00    +0.000 HD
BRANCH   3  13
ATOM     12  C   UNL     1       6.455   3.440  12.217  0.00  0.00    +0.000 C 
ATOM     13  C   UNL     1       5.946   3.930  13.563  0.00  0.00    +0.000 C 
ENDBRANCH   3  13
ENDBRANCH   1   9
BRANCH   1  14
ATOM     14  C   UNL     1       3.855   2.976  17.934  0.00  0.00    +0.000 C 
BRANCH  14  15
ATOM     15  C   UNL     1       2.665   3.304  18.844  0.00  0.00    +0.000 C 
BRANCH  15  16
ATOM     16  N   UNL     1       2.348   4.720  18.859  0.00  0.00    +0.000 N 
ATOM     17  C   UNL     1       2.384   5.488  20.009  0.00  0.00    +0.000 C 
ATOM     18  O   UNL     1       2.693   5.009  21.093  0.00  0.00    +0.000 OA
ATOM     19  H   UNL     1       2.172   5.165  17.968  0.00  0.00    +0.000 HD
BRANCH  17  20
ATOM     20  C   UNL     1       2.032   6.886  19.832  0.00  0.00    +0.000 A 
ATOM     21  S   UNL     1       1.048   7.756  20.940  0.00  0.00    +0.000 S 
ATOM     22  N   UNL     1       1.129   9.172  20.072  0.00  0.00    +0.000 NA
ATOM     23  N   UNL     1       1.856   9.060  18.977  0.00  0.00    +0.000 NA
ATOM     24  C   UNL     1       2.374   7.777  18.820  0.00  0.00    +0.000 A 
ATOM     25  C   UNL     1       3.203   7.514  17.617  0.00  0.00    +0.000 C 
ENDBRANCH  17  20
ENDBRANCH  15  16
ENDBRANCH  14  15
ENDBRANCH   1  14
TORSDOF 6
ENDMDL
MODEL 3
REMARK VINA RESULT:      -7.0      1.322      1.586
REMARK  Name = 
REMARK  9 active torsions:
REMARK  status: ('A' for Active; 'I' for Inactive)
REMARK    1  A    between atoms: C_1  and  C_2
REMARK    2  A    between atoms: C_2  and  N_3
REMARK    3  A    between atoms: C_6  and  C_7
REMARK    4  A    between atoms: C_9  and  N_10
REMARK    5  A    between atoms: N_10  and  C_11
REMARK    6  A    between atoms: C_11  and  C_12
REMARK    7  A    between atoms: C_12  and  N_13
REMARK    8  A    between atoms: C_14  and  C_16
REMARK    9  A    between atoms: C_20  and  C_21
REMARK                            x       y       z     vdW  Elec       q    Type
REMARK                         _______ _______ _______ _____ _____    ______ ____
ROOT
ATOM      1  N   UNL     1       5.109   4.191  18.851  0.00  0.00    +0.000 N 
ATOM      2  H   UNL     1       5.698   3.605  19.434  0.00  0.00    +0.000 HD
ENDROOT
BRANCH   1   9
ATOM      3  N   UNL     1       7.025   4.710  14.529  0.00  0.00    +0.000 N 
ATOM      4  C   UNL     1       6.810   5.150  15.829  0.00  0.00    +0.000 A 
ATOM      5  N   UNL     1       7.438   6.282  16.161  0.00  0.00    +0.000 NA
ATOM      6  C   UNL     1       7.289   6.722  17.424  0.00  0.00    +0.000 A 
ATOM      7  C   UNL     1       8.029   7.962  17.818  0.00  0.00    +0.000 C 
ATOM      8  C   UNL     1       6.498   6.059  18.340  0.00  0.00    +0.000 A 
ATOM      9  C   UNL     1       5.858   4.915  17.911  0.00  0.00    +0.000 A 
ATOM     10  N   UNL     1       6.022   4.453  16.663  0.00  0.00    +0.000 NA
ATOM     11  H   UNL     1       7.378   5.515  14.021  0.00  0.00    +0.000 HD
BRANCH   3  13
ATOM     12  C   UNL     1       6.322   3.497  12.556  0.00  0.00    +0.000 C 
ATOM     13  C   UNL     1       5.912   4.009  13.927  0.00  0.00    +0.000 C 
ENDBRANCH   3  13
ENDBRANCH   1   9
BRANCH   1  14
ATOM     14  C   UNL     1       4.112   4.934  19.620  0.00  0.00    +0.000 C 
BRANCH  14  15
ATOM     15  C   UNL     1       3.051   5.526  18.685  0.00  0.00    +0.000 C 
BRANCH  15  16
ATOM     16  N   UNL     1       2.596   6.835  19.116  0.00  0.00    +0.000 N 
ATOM     17  C   UNL     1       1.788   7.025  20.223  0.00  0.00    +0.000 C 
ATOM     18  O   UNL     1       1.410   6.087  20.912  0.00  0.00    +0.000 OA
ATOM     19  H   UNL     1       2.959   7.638  18.620  0.00  0.00    +0.000 HD
BRANCH  17  20
ATOM     20  C   UNL     1       1.430   8.405  20.499  0.00  0.00    +0.000 A 
ATOM     21  S   UNL     1       1.234   9.027  22.089  0.00  0.00    +0.000 S 
ATOM     22  N   UNL     1       0.860  10.560  21.564  0.00  0.00    +0.000 NA
ATOM     23  N   UNL     1       0.867  10.666  20.250  0.00  0.00    +0.000 NA
ATOM     24  C   UNL     1       1.184   9.461  19.627  0.00  0.00    +0.000 A 
ATOM     25  C   UNL     1       1.213   9.442  18.142  0.00  0.00    +0.000 C 
ENDBRANCH  17  20
ENDBRANCH  15  16
ENDBRANCH  14  15
ENDBRANCH   1  14
TORSDOF 6
ENDMDL
MODEL 4
REMARK VINA RESULT:      -6.9      2.925      5.103
REMARK  Name = 
REMARK  9 active torsions:
REMARK  status: ('A' for Active; 'I' for Inactive)
REMARK    1  A    between atoms: C_1  and  C_2
REMARK    2  A    between atoms: C_2  and  N_3
REMARK    3  A    between atoms: C_6  and  C_7
REMARK    4  A    between atoms: C_9  and  N_10
REMARK    5  A    between atoms: N_10  and  C_11
REMARK    6  A    between atoms: C_11  and  C_12
REMARK    7  A    between atoms: C_12  and  N_13
REMARK    8  A    between atoms: C_14  and  C_16
REMARK    9  A    between atoms: C_20  and  C_21
REMARK                            x       y       z     vdW  Elec       q    Type
REMARK                         _______ _______ _______ _____ _____    ______ ____
ROOT
ATOM      1  N   UNL     1       2.364   7.120  19.546  0.00  0.00    +0.000 N 
ATOM      2  H   UNL     1       2.642   7.744  20.296  0.00  0.00    +0.000 HD
ENDROOT
BRANCH   1   9
ATOM      3  N   UNL     1       5.583   3.763  18.550  0.00  0.00    +0.000 N 
ATOM      4  C   UNL     1       4.438   4.200  19.205  0.00  0.00    +0.000 A 
ATOM      5  N   UNL     1       3.818   3.278  19.949  0.00  0.00    +0.000 NA
ATOM      6  C   UNL     1       2.683   3.649  20.568  0.00  0.00    +0.000 A 
ATOM      7  C   UNL     1       1.955   2.609  21.363  0.00  0.00    +0.000 C 
ATOM      8  C   UNL     1       2.183   4.931  20.473  0.00  0.00    +0.000 A 
ATOM      9  C   UNL     1       2.897   5.833  19.711  0.00  0.00    +0.000 A 
ATOM     10  N   UNL     1       4.016   5.467  19.068  0.00  0.00    +0.000 NA
ATOM     11  H   UNL     1       5.864   2.911  19.026  0.00  0.00    +0.000 HD
BRANCH   3  13
ATOM     12  C   UNL     1       7.294   4.557  17.033  0.00  0.00    +0.000 C 
ATOM     13  C   UNL     1       6.608   4.767  18.374  0.00  0.00    +0.000 C 
ENDBRANCH   3  13
ENDBRANCH   1   9
BRANCH   1  14
ATOM     14  C   UNL     1       2.499   7.729  18.224  0.00  0.00    +0.000 C 
BRANCH  14  15
ATOM     15  C   UNL     1       1.774   9.081  18.185  0.00  0.00    +0.000 C 
BRANCH  15  16
ATOM     16  N   UNL     1       1.063   9.368  19.418  0.00  0.00    +0.000 N 
ATOM     17  C   UNL     1       0.843  10.654  19.878  0.00  0.00    +0.000 C 
ATOM     18  O   UNL     1       1.236  11.635  19.260  0.00  0.00    +0.000 OA
ATOM     19  H   UNL     1       0.652   8.586  19.907  0.00  0.00    +0.000 HD
BRANCH  17  20
ATOM     20  C   UNL     1       0.116  10.746  21.132  0.00  0.00    +0.000 A 
ATOM     21  S   UNL     1       0.320   9.630  22.422  0.00  0.00    +0.000 S 
ATOM     22  N   UNL     1      -0.784  10.391  23.405  0.00  0.00    +0.000 NA
ATOM     23  N   UNL     1      -1.322  11.455  22.840  0.00  0.00    +0.000 NA
ATOM     24  C   UNL     1      -0.830  11.674  21.556  0.00  0.00    +0.000 A 
ATOM     25  C   UNL     1      -1.367  12.836  20.804  0.00  0.00    +0.000 C 
ENDBRANCH  17  20
ENDBRANCH  15  16
ENDBRANCH  14  15
ENDBRANCH   1  14
TORSDOF 6
ENDMDL
MODEL 5
REMARK VINA RESULT:      -6.9      2.419      7.585
REMARK  Name = 
REMARK  9 active torsions:
REMARK  status: ('A' for Active; 'I' for Inactive)
REMARK    1  A    between atoms: C_1  and  C_2
REMARK    2  A    between atoms: C_2  and  N_3
REMARK    3  A    between atoms: C_6  and  C_7
REMARK    4  A    between atoms: C_9  and  N_10
REMARK    5  A    between atoms: N_10  and  C_11
REMARK    6  A    between atoms: C_11  and  C_12
REMARK    7  A    between atoms: C_12  and  N_13
REMARK    8  A    between atoms: C_14  and  C_16
REMARK    9  A    between atoms: C_20  and  C_21
REMARK                            x       y       z     vdW  Elec       q    Type
REMARK                         _______ _______ _______ _____ _____    ______ ____
ROOT
ATOM      1  N   UNL     1       2.334   7.301  19.919  0.00  0.00    +0.000 N 
ATOM      2  H   UNL     1       3.242   7.508  20.322  0.00  0.00    +0.000 HD
ENDROOT
BRANCH   1   9
ATOM      3  N   UNL     1      -0.764  10.776  18.944  0.00  0.00    +0.000 N 
ATOM      4  C   UNL     1      -0.114   9.937  19.840  0.00  0.00    +0.000 A 
ATOM      5  N   UNL     1      -0.414  10.133  21.128  0.00  0.00    +0.000 NA
ATOM      6  C   UNL     1       0.224   9.368  22.033  0.00  0.00    +0.000 A 
ATOM      7  C   UNL     1      -0.068   9.616  23.480  0.00  0.00    +0.000 C 
ATOM      8  C   UNL     1       1.130   8.397  21.659  0.00  0.00    +0.000 A 
ATOM      9  C   UNL     1       1.362   8.235  20.310  0.00  0.00    +0.000 A 
ATOM     10  N   UNL     1       0.753   9.010  19.401  0.00  0.00    +0.000 NA
ATOM     11  H   UNL     1      -1.557  11.157  19.450  0.00  0.00    +0.000 HD
BRANCH   3  13
ATOM     12  C   UNL     1      -2.282  10.852  17.061  0.00  0.00    +0.000 C 
ATOM     13  C   UNL     1      -1.048  10.191  17.653  0.00  0.00    +0.000 C 
ENDBRANCH   3  13
ENDBRANCH   1   9
BRANCH   1  14
ATOM     14  C   UNL     1       1.977   5.887  20.025  0.00  0.00    +0.000 C 
BRANCH  14  15
ATOM     15  C   UNL     1       3.241   5.018  20.029  0.00  0.00    +0.000 C 
BRANCH  15  16
ATOM     16  N   UNL     1       4.204   5.431  19.024  0.00  0.00    +0.000 N 
ATOM     17  C   UNL     1       5.348   4.708  18.736  0.00  0.00    +0.000 C 
ATOM     18  O   UNL     1       5.612   3.663  19.316  0.00  0.00    +0.000 OA
ATOM     19  H   UNL     1       3.974   6.243  18.469  0.00  0.00    +0.000 HD
BRANCH  17  20
ATOM     20  C   UNL     1       6.196   5.278  17.704  0.00  0.00    +0.000 A 
ATOM     21  S   UNL     1       7.176   6.668  17.953  0.00  0.00    +0.000 S 
ATOM     22  N   UNL     1       7.782   6.656  16.404  0.00  0.00    +0.000 NA
ATOM     23  N   UNL     1       7.304   5.666  15.676  0.00  0.00    +0.000 NA
ATOM     24  C   UNL     1       6.405   4.876  16.388  0.00  0.00    +0.000 A 
ATOM     25  C   UNL     1       5.783   3.731  15.676  0.00  0.00    +0.000 C 
ENDBRANCH  17  20
ENDBRANCH  15  16
ENDBRANCH  14  15
ENDBRANCH   1  14
TORSDOF 6
ENDMDL
MODEL 6
REMARK VINA RESULT:      -6.9      1.883      3.531
REMARK  Name = 
REMARK  9 active torsions:
REMARK  status: ('A' for Active; 'I' for Inactive)
REMARK    1  A    between atoms: C_1  and  C_2
REMARK    2  A    between atoms: C_2  and  N_3
REMARK    3  A    between atoms: C_6  and  C_7
REMARK    4  A    between atoms: C_9  and  N_10
REMARK    5  A    between atoms: N_10  and  C_11
REMARK    6  A    between atoms: C_11  and  C_12
REMARK    7  A    between atoms: C_12  and  N_13
REMARK    8  A    between atoms: C_14  and  C_16
REMARK    9  A    between atoms: C_20  and  C_21
REMARK                            x       y       z     vdW  Elec       q    Type
REMARK                         _______ _______ _______ _____ _____    ______ ____
ROOT
ATOM      1  N   UNL     1       3.737   5.341  18.028  0.00  0.00    +0.000 N 
ATOM      2  H   UNL     1       3.165   4.543  17.774  0.00  0.00    +0.000 HD
ENDROOT
BRANCH   1   9
ATOM      3  N   UNL     1       7.834   7.434  16.821  0.00  0.00    +0.000 N 
ATOM      4  C   UNL     1       6.863   6.459  16.639  0.00  0.00    +0.000 A 
ATOM      5  N   UNL     1       7.060   5.642  15.599  0.00  0.00    +0.000 NA
ATOM      6  C   UNL     1       6.122   4.708  15.362  0.00  0.00    +0.000 A 
ATOM      7  C   UNL     1       6.310   3.823  14.169  0.00  0.00    +0.000 C 
ATOM      8  C   UNL     1       5.012   4.566  16.169  0.00  0.00    +0.000 A 
ATOM      9  C   UNL     1       4.896   5.426  17.241  0.00  0.00    +0.000 A 
ATOM     10  N   UNL     1       5.811   6.379  17.470  0.00  0.00    +0.000 NA
ATOM     11  H   UNL     1       8.643   7.119  16.295  0.00  0.00    +0.000 HD
BRANCH   3  13
ATOM     12  C   UNL     1       8.444   9.285  18.258  0.00  0.00    +0.000 C 
ATOM     13  C   UNL     1       8.072   7.812  18.197  0.00  0.00    +0.000 C 
ENDBRANCH   3  13
ENDBRANCH   1   9
BRANCH   1  14
ATOM     14  C   UNL     1       3.906   5.480  19.473  0.00  0.00    +0.000 C 
BRANCH  14  15
ATOM     15  C   UNL     1       2.549   5.368  20.180  0.00  0.00    +0.000 C 
BRANCH  15  16
ATOM     16  N   UNL     1       2.067   6.648  20.666  0.00  0.00    +0.000 N 
ATOM     17  C   UNL     1       1.796   7.717  19.831  0.00  0.00    +0.000 C 
ATOM     18  O   UNL     1       1.945   7.640  18.618  0.00  0.00    +0.000 OA
ATOM     19  H   UNL     1       1.852   6.719  21.651  0.00  0.00    +0.000 HD
BRANCH  17  20
ATOM     20  C   UNL     1       1.325   8.919  20.496  0.00  0.00    +0.000 A 
ATOM     21  S   UNL     1       1.198   9.061  22.204  0.00  0.00    +0.000 S 
ATOM     22  N   UNL     1       0.631  10.623  22.145  0.00  0.00    +0.000 NA
ATOM     23  N   UNL     1       0.521  11.080  20.913  0.00  0.00    +0.000 NA
ATOM     24  C   UNL     1       0.905  10.135  19.965  0.00  0.00    +0.000 A 
ATOM     25  C   UNL     1       0.815  10.521  18.534  0.00  0.00    +0.000 C 
ENDBRANCH  17  20
ENDBRANCH  15  16
ENDBRANCH  14  15
ENDBRANCH   1  14
TORSDOF 6
ENDMDL
MODEL 7
REMARK VINA RESULT:      -6.9      2.811      4.832
REMARK  Name = 
REMARK  9 active torsions:
REMARK  status: ('A' for Active; 'I' for Inactive)
REMARK    1  A    between atoms: C_1  and  C_2
REMARK    2  A    between atoms: C_2  and  N_3
REMARK    3  A    between atoms: C_6  and  C_7
REMARK    4  A    between atoms: C_9  and  N_10
REMARK    5  A    between atoms: N_10  and  C_11
REMARK    6  A    between atoms: C_11  and  C_12
REMARK    7  A    between atoms: C_12  and  N_13
REMARK    8  A    between atoms: C_14  and  C_16
REMARK    9  A    between atoms: C_20  and  C_21
REMARK                            x       y       z     vdW  Elec       q    Type
REMARK                         _______ _______ _______ _____ _____    ______ ____
ROOT
ATOM      1  N   UNL     1       3.147   7.789  17.644  0.00  0.00    +0.000 N 
ATOM      2  H   UNL     1       3.435   7.718  16.673  0.00  0.00    +0.000 HD
ENDROOT
BRANCH   1   9
ATOM      3  N   UNL     1       5.943   4.043  18.521  0.00  0.00    +0.000 N 
ATOM      4  C   UNL     1       4.811   4.807  18.775  0.00  0.00    +0.000 A 
ATOM      5  N   UNL     1       3.995   4.323  19.717  0.00  0.00    +0.000 NA
ATOM      6  C   UNL     1       2.866   5.011  19.966  0.00  0.00    +0.000 A 
ATOM      7  C   UNL     1       1.922   4.449  20.984  0.00  0.00    +0.000 C 
ATOM      8  C   UNL     1       2.566   6.186  19.308  0.00  0.00    +0.000 A 
ATOM      9  C   UNL     1       3.473   6.636  18.373  0.00  0.00    +0.000 A 
ATOM     10  N   UNL     1       4.588   5.943  18.096  0.00  0.00    +0.000 NA
ATOM     11  H   UNL     1       6.052   3.434  19.326  0.00  0.00    +0.000 HD
BRANCH   3  13
ATOM     12  C   UNL     1       7.379   4.569  16.645  0.00  0.00    +0.000 C 
ATOM     13  C   UNL     1       7.113   4.795  18.124  0.00  0.00    +0.000 C 
ENDBRANCH   3  13
ENDBRANCH   1   9
BRANCH   1  14
ATOM     14  C   UNL     1       1.788   8.307  17.794  0.00  0.00    +0.000 C 
BRANCH  14  15
ATOM     15  C   UNL     1       1.817   9.828  17.993  0.00  0.00    +0.000 C 
BRANCH  15  16
ATOM     16  N   UNL     1       1.357  10.226  19.311  0.00  0.00    +0.000 N 
ATOM     17  C   UNL     1       0.056  10.623  19.565  0.00  0.00    +0.000 C 
ATOM     18  O   UNL     1      -0.792  10.657  18.683  0.00  0.00    +0.000 OA
ATOM     19  H   UNL     1       2.007  10.129  20.078  0.00  0.00    +0.000 HD
BRANCH  17  20
ATOM     20  C   UNL     1      -0.221  10.989  20.943  0.00  0.00    +0.000 A 
ATOM     21  S   UNL     1      -0.406  12.616  21.466  0.00  0.00    +0.000 S 
ATOM     22  N   UNL     1      -0.682  12.194  23.050  0.00  0.00    +0.000 NA
ATOM     23  N   UNL     1      -0.650  10.890  23.245  0.00  0.00    +0.000 NA
ATOM     24  C   UNL     1      -0.389  10.190  22.069  0.00  0.00    +0.000 A 
ATOM     25  C   UNL     1      -0.313   8.709  22.155  0.00  0.00    +0.000 C 
ENDBRANCH  17  20
ENDBRANCH  15  16
ENDBRANCH  14  15
ENDBRANCH   1  14
TORSDOF 6
ENDMDL
MODEL 8
REMARK VINA RESULT:      -6.9      0.999      2.950
REMARK  Name = 
REMARK  9 active torsions:
REMARK  status: ('A' for Active; 'I' for Inactive)
REMARK    1  A    between atoms: C_1  and  C_2
REMARK    2  A    between atoms: C_2  and  N_3
REMARK    3  A    between atoms: C_6  and  C_7
REMARK    4  A    between atoms: C_9  and  N_10
REMARK    5  A    between atoms: N_10  and  C_11
REMARK    6  A    between atoms: C_11  and  C_12
REMARK    7  A    between atoms: C_12  and  N_13
REMARK    8  A    between atoms: C_14  and  C_16
REMARK    9  A    between atoms: C_20  and  C_21
REMARK                            x       y       z     vdW  Elec       q    Type
REMARK                         _______ _______ _______ _____ _____    ______ ____
ROOT
ATOM      1  N   UNL     1       4.824   4.574  19.130  0.00  0.00    +0.000 N 
ATOM      2  H   UNL     1       4.317   5.348  19.547  0.00  0.00    +0.000 HD
ENDROOT
BRANCH   1   9
ATOM      3  N   UNL     1       7.697   7.721  17.017  0.00  0.00    +0.000 N 
ATOM      4  C   UNL     1       6.985   6.529  17.019  0.00  0.00    +0.000 A 
ATOM      5  N   UNL     1       7.037   5.830  15.880  0.00  0.00    +0.000 NA
ATOM      6  C   UNL     1       6.328   4.688  15.825  0.00  0.00    +0.000 A 
ATOM      7  C   UNL     1       6.340   3.926  14.537  0.00  0.00    +0.000 C 
ATOM      8  C   UNL     1       5.597   4.229  16.902  0.00  0.00    +0.000 A 
ATOM      9  C   UNL     1       5.619   4.990  18.051  0.00  0.00    +0.000 A 
ATOM     10  N   UNL     1       6.300   6.144  18.108  0.00  0.00    +0.000 NA
ATOM     11  H   UNL     1       8.351   7.650  16.243  0.00  0.00    +0.000 HD
BRANCH   3  13
ATOM     12  C   UNL     1       8.553   9.593  18.291  0.00  0.00    +0.000 C 
ATOM     13  C   UNL     1       8.256   8.102  18.296  0.00  0.00    +0.000 C 
ENDBRANCH   3  13
ENDBRANCH   1   9
BRANCH   1  14
ATOM     14  C   UNL     1       3.984   3.396  18.919  0.00  0.00    +0.000 C 
BRANCH  14  15
ATOM     15  C   UNL     1       2.501   3.783  18.974  0.00  0.00    +0.000 C 
BRANCH  15  16
ATOM     16  N   UNL     1       2.287   5.203  18.762  0.00  0.00    +0.000 N 
ATOM     17  C   UNL     1       2.221   6.117  19.799  0.00  0.00    +0.000 C 
ATOM     18  O   UNL     1       2.344   5.775  20.968  0.00  0.00    +0.000 OA
ATOM     19  H   UNL     1       2.267   5.531  17.807  0.00  0.00    +0.000 HD
BRANCH  17  20
ATOM     20  C   UNL     1       1.998   7.495  19.396  0.00  0.00    +0.000 A 
ATOM     21  S   UNL     1       2.489   8.121  17.873  0.00  0.00    +0.000 S 
ATOM     22  N   UNL     1       1.903   9.646  18.186  0.00  0.00    +0.000 NA
ATOM     23  N   UNL     1       1.345   9.745  19.376  0.00  0.00    +0.000 NA
ATOM     24  C   UNL     1       1.389   8.543  20.079  0.00  0.00    +0.000 A 
ATOM     25  C   UNL     1       0.804   8.524  21.444  0.00  0.00    +0.000 C 
ENDBRANCH  17  20
ENDBRANCH  15  16
ENDBRANCH  14  15
ENDBRANCH   1  14
TORSDOF 6
ENDMDL
MODEL 9
REMARK VINA RESULT:      -6.9      2.329      2.894
REMARK  Name = 
REMARK  9 active torsions:
REMARK  status: ('A' for Active; 'I' for Inactive)
REMARK    1  A    between atoms: C_1  and  C_2
REMARK    2  A    between atoms: C_2  and  N_3
REMARK    3  A    between atoms: C_6  and  C_7
REMARK    4  A    between atoms: C_9  and  N_10
REMARK    5  A    between atoms: N_10  and  C_11
REMARK    6  A    between atoms: C_11  and  C_12
REMARK    7  A    between atoms: C_12  and  N_13
REMARK    8  A    between atoms: C_14  and  C_16
REMARK    9  A    between atoms: C_20  and  C_21
REMARK                            x       y       z     vdW  Elec       q    Type
REMARK                         _______ _______ _______ _____ _____    ______ ____
ROOT
ATOM      1  N   UNL     1       3.472   5.603  17.632  0.00  0.00    +0.000 N 
ATOM      2  H   UNL     1       3.232   4.623  17.740  0.00  0.00    +0.000 HD
ENDROOT
BRANCH   1   9
ATOM      3  N   UNL     1       6.891   4.353  14.570  0.00  0.00    +0.000 N 
ATOM      4  C   UNL     1       6.410   5.143  15.606  0.00  0.00    +0.000 A 
ATOM      5  N   UNL     1       7.279   6.032  16.098  0.00  0.00    +0.000 NA
ATOM      6  C   UNL     1       6.868   6.790  17.130  0.00  0.00    +0.000 A 
ATOM      7  C   UNL     1       7.852   7.753  17.719  0.00  0.00    +0.000 C 
ATOM      8  C   UNL     1       5.594   6.688  17.650  0.00  0.00    +0.000 A 
ATOM      9  C   UNL     1       4.746   5.769  17.068  0.00  0.00    +0.000 A 
ATOM     10  N   UNL     1       5.155   4.989  16.057  0.00  0.00    +0.000 NA
ATOM     11  H   UNL     1       7.709   4.836  14.212  0.00  0.00    +0.000 HD
BRANCH   3  13
ATOM     12  C   UNL     1       6.595   3.609  12.286  0.00  0.00    +0.000 C 
ATOM     13  C   UNL     1       5.901   3.957  13.593  0.00  0.00    +0.000 C 
ENDBRANCH   3  13
ENDBRANCH   1   9
BRANCH   1  14
ATOM     14  C   UNL     1       3.164   6.395  18.821  0.00  0.00    +0.000 C 
BRANCH  14  15
ATOM     15  C   UNL     1       2.307   7.610  18.443  0.00  0.00    +0.000 C 
BRANCH  15  16
ATOM     16  N   UNL     1       1.784   8.306  19.605  0.00  0.00    +0.000 N 
ATOM     17  C   UNL     1       1.033   9.464  19.514  0.00  0.00    +0.000 C 
ATOM     18  O   UNL     1       0.759   9.971  18.434  0.00  0.00    +0.000 OA
ATOM     19  H   UNL     1       1.919   7.869  20.506  0.00  0.00    +0.000 HD
BRANCH  17  20
ATOM     20  C   UNL     1       0.599  10.022  20.783  0.00  0.00    +0.000 A 
ATOM     21  S   UNL     1       0.192   9.057  22.145  0.00  0.00    +0.000 S 
ATOM     22  N   UNL     1      -0.166  10.365  23.107  0.00  0.00    +0.000 NA
ATOM     23  N   UNL     1      -0.005  11.516  22.484  0.00  0.00    +0.000 NA
ATOM     24  C   UNL     1       0.425  11.347  21.169  0.00  0.00    +0.000 A 
ATOM     25  C   UNL     1       0.633  12.569  20.352  0.00  0.00    +0.000 C 
ENDBRANCH  17  20
ENDBRANCH  15  16
ENDBRANCH  14  15
ENDBRANCH   1  14
TORSDOF 6
ENDMDL
