MODEL 1
REMARK VINA RESULT:      -8.4      0.000      0.000
REMARK  Name = 
REMARK  8 active torsions:
REMARK  status: ('A' for Active; 'I' for Inactive)
REMARK    1  A    between atoms: N_2  and  C_4
REMARK    2  A    between atoms: C_7  and  C_8
REMARK    3  A    between atoms: C_8  and  N_9
REMARK    4  A    between atoms: N_13  and  C_14
REMARK    5  A    between atoms: C_14  and  C_15
REMARK    6  A    between atoms: N_24  and  C_25
REMARK    7  A    between atoms: C_25  and  C_26
REMARK    8  A    between atoms: C_26  and  O_27
REMARK                            x       y       z     vdW  Elec       q    Type
REMARK                         _______ _______ _______ _____ _____    ______ ____
ROOT
ATOM      1  N   UNL     1       2.152   7.559  20.457  0.00  0.00    +0.000 N 
ATOM      2  C   UNL     1       2.440   6.434  19.678  0.00  0.00    +0.000 A 
ATOM      3  N   UNL     1       3.276   6.644  18.631  0.00  0.00    +0.000 NA
ATOM      4  C   UNL     1       3.679   5.606  17.845  0.00  0.00    +0.000 A 
ATOM      5  N   UNL     1       4.476   5.767  16.703  0.00  0.00    +0.000 N 
ATOM      6  C   UNL     1       3.244   4.323  18.207  0.00  0.00    +0.000 A 
ATOM      7  N   UNL     1       3.518   3.080  17.672  0.00  0.00    +0.000 NA
ATOM      8  C   UNL     1       2.805   2.245  18.393  0.00  0.00    +0.000 A 
ATOM      9  N   UNL     1       2.061   2.898  19.348  0.00  0.00    +0.000 N 
ATOM     10  C   UNL     1       2.378   4.230  19.282  0.00  0.00    +0.000 A 
ATOM     11  N   UNL     1       1.936   5.237  20.053  0.00  0.00    +0.000 NA
ATOM     12  H   UNL     1       2.946   7.667  21.079  0.00  0.00    +0.000 HD
ATOM     13  H   UNL     1       4.871   4.861  16.455  0.00  0.00    +0.000 HD
ENDROOT
BRANCH   1  14
ATOM     14  C   UNL     1       0.893   7.514  21.193  0.00  0.00    +0.000 C 
BRANCH  14  18
ATOM     15  C   UNL     1      -0.394  11.580  22.024  0.00  0.00    +0.000 A 
ATOM     16  C   UNL     1       0.313  11.296  20.853  0.00  0.00    +0.000 A 
ATOM     17  C   UNL     1       0.704   9.976  20.584  0.00  0.00    +0.000 A 
ATOM     18  C   UNL     1       0.416   8.932  21.487  0.00  0.00    +0.000 A 
ATOM     19  C   UNL     1      -0.324   9.235  22.638  0.00  0.00    +0.000 A 
ATOM     20  C   UNL     1      -0.730  10.553  22.913  0.00  0.00    +0.000 A 
BRANCH  15  22
ATOM     21  O   UNL     1      -1.985  13.258  22.253  0.00  0.00    +0.000 OA
ATOM     22  N   UNL     1      -0.779  12.958  22.346  0.00  0.00    +0.000 N 
ATOM     23  O   UNL     1       0.106  13.746  22.685  0.00  0.00    +0.000 OA
ENDBRANCH  15  22
ENDBRANCH  14  18
ENDBRANCH   1  14
BRANCH   5  24
ATOM     24  C   UNL     1       5.397   6.888  16.714  0.00  0.00    +0.000 C 
BRANCH  24  25
ATOM     25  C   UNL     1       6.845   6.425  16.420  0.00  0.00    +0.000 C 
ATOM     26  C   UNL     1       7.856   7.330  17.154  0.00  0.00    +0.000 C 
ATOM     27  C   UNL     1       7.862   7.108  18.668  0.00  0.00    +0.000 C 
ATOM     28  C   UNL     1       8.052   5.636  19.036  0.00  0.00    +0.000 C 
ATOM     29  C   UNL     1       7.073   4.724  18.299  0.00  0.00    +0.000 C 
ATOM     30  C   UNL     1       7.141   4.959  16.793  0.00  0.00    +0.000 C 
ENDBRANCH  24  25
ENDBRANCH   5  24
BRANCH   9  31
ATOM     31  C   UNL     1       1.116   2.267  20.247  0.00  0.00    +0.000 C 
BRANCH  31  32
ATOM     32  C   UNL     1       1.400   2.558  21.722  0.00  0.00    +0.000 C 
BRANCH  32  33
ATOM     33  O   UNL     1       2.798   2.559  21.995  0.00  0.00    +0.000 OA
ATOM     34  H   UNL     1       2.951   1.984  22.768  0.00  0.00    +0.000 HD
ENDBRANCH  32  33
ENDBRANCH  31  32
ENDBRANCH   9  31
TORSDOF 8
ENDMDL
MODEL 2
REMARK VINA RESULT:      -8.3      2.597      5.275
REMARK  Name = 
REMARK  8 active torsions:
REMARK  status: ('A' for Active; 'I' for Inactive)
REMARK    1  A    between atoms: N_2  and  C_4
REMARK    2  A    between atoms: C_7  and  C_8
REMARK    3  A    between atoms: C_8  and  N_9
REMARK    4  A    between atoms: N_13  and  C_14
REMARK    5  A    between atoms: C_14  and  C_15
REMARK    6  A    between atoms: N_24  and  C_25
REMARK    7  A    between atoms: C_25  and  C_26
REMARK    8  A    between atoms: C_26  and  O_27
REMARK                            x       y       z     vdW  Elec       q    Type
REMARK                         _______ _______ _______ _____ _____    ______ ____
ROOT
ATOM      1  N   UNL     1       2.177   7.400  17.559  0.00  0.00    +0.000 N 
ATOM      2  C   UNL     1       3.382   6.704  17.706  0.00  0.00    +0.000 A 
ATOM      3  N   UNL     1       3.265   5.372  17.934  0.00  0.00    +0.000 NA
ATOM      4  C   UNL     1       4.374   4.585  18.025  0.00  0.00    +0.000 A 
ATOM      5  N   UNL     1       4.326   3.219  18.338  0.00  0.00    +0.000 N 
ATOM      6  C   UNL     1       5.615   5.199  17.809  0.00  0.00    +0.000 A 
ATOM      7  N   UNL     1       6.895   4.684  17.767  0.00  0.00    +0.000 NA
ATOM      8  C   UNL     1       7.666   5.728  17.569  0.00  0.00    +0.000 A 
ATOM      9  N   UNL     1       6.943   6.897  17.511  0.00  0.00    +0.000 N 
ATOM     10  C   UNL     1       5.616   6.567  17.603  0.00  0.00    +0.000 A 
ATOM     11  N   UNL     1       4.544   7.375  17.544  0.00  0.00    +0.000 NA
ATOM     12  H   UNL     1       1.885   7.234  16.602  0.00  0.00    +0.000 HD
ATOM     13  H   UNL     1       5.214   2.796  18.075  0.00  0.00    +0.000 HD
ENDROOT
BRANCH   1  14
ATOM     14  C   UNL     1       2.228   8.825  17.869  0.00  0.00    +0.000 C 
BRANCH  14  18
ATOM     15  C   UNL     1       0.381   9.629  21.720  0.00  0.00    +0.000 A 
ATOM     16  C   UNL     1       0.241  10.543  20.673  0.00  0.00    +0.000 A 
ATOM     17  C   UNL     1       0.823  10.262  19.427  0.00  0.00    +0.000 A 
ATOM     18  C   UNL     1       1.567   9.083  19.220  0.00  0.00    +0.000 A 
ATOM     19  C   UNL     1       1.665   8.166  20.274  0.00  0.00    +0.000 A 
ATOM     20  C   UNL     1       1.079   8.431  21.523  0.00  0.00    +0.000 A 
BRANCH  15  22
ATOM     21  O   UNL     1      -1.273  10.522  23.086  0.00  0.00    +0.000 OA
ATOM     22  N   UNL     1      -0.184   9.917  23.042  0.00  0.00    +0.000 N 
ATOM     23  O   UNL     1       0.447   9.555  24.036  0.00  0.00    +0.000 OA
ENDBRANCH  15  22
ENDBRANCH  14  18
ENDBRANCH   1  14
BRANCH   5  24
ATOM     24  C   UNL     1       3.129   2.507  17.929  0.00  0.00    +0.000 C 
BRANCH  24  25
ATOM     25  C   UNL     1       2.459   1.802  19.134  0.00  0.00    +0.000 C 
ATOM     26  C   UNL     1       3.059   2.318  20.457  0.00  0.00    +0.000 C 
ATOM     27  C   UNL     1       2.634   3.752  20.783  0.00  0.00    +0.000 C 
ATOM     28  C   UNL     1       1.117   3.928  20.746  0.00  0.00    +0.000 C 
ATOM     29  C   UNL     1       0.504   3.400  19.450  0.00  0.00    +0.000 C 
ATOM     30  C   UNL     1       0.927   1.956  19.200  0.00  0.00    +0.000 C 
ENDBRANCH  24  25
ENDBRANCH   5  24
BRANCH   9  31
ATOM     31  C   UNL     1       7.507   8.224  17.381  0.00  0.00    +0.000 C 
BRANCH  31  32
ATOM     32  C   UNL     1       8.506   8.566  18.488  0.00  0.00    +0.000 C 
BRANCH  32  33
ATOM     33  O   UNL     1       8.765   9.966  18.546  0.00  0.00    +0.000 OA
ATOM     34  H   UNL     1       8.243  10.395  17.842  0.00  0.00    +0.000 HD
ENDBRANCH  32  33
ENDBRANCH  31  32
ENDBRANCH   9  31
TORSDOF 8
ENDMDL
MODEL 3
REMARK VINA RESULT:      -8.0      4.176      8.810
REMARK  Name = 
REMARK  8 active torsions:
REMARK  status: ('A' for Active; 'I' for Inactive)
REMARK    1  A    between atoms: N_2  and  C_4
REMARK    2  A    between atoms: C_7  and  C_8
REMARK    3  A    between atoms: C_8  and  N_9
REMARK    4  A    between atoms: N_13  and  C_14
REMARK    5  A    between atoms: C_14  and  C_15
REMARK    6  A    between atoms: N_24  and  C_25
REMARK    7  A    between atoms: C_25  and  C_26
REMARK    8  A    between atoms: C_26  and  O_27
REMARK                            x       y       z     vdW  Elec       q    Type
REMARK                         _______ _______ _______ _____ _____    ______ ____
ROOT
ATOM      1  N   UNL     1       5.027   6.865  16.927  0.00  0.00    +0.000 N 
ATOM      2  C   UNL     1       4.173   6.509  17.977  0.00  0.00    +0.000 A 
ATOM      3  N   UNL     1       3.337   7.485  18.409  0.00  0.00    +0.000 NA
ATOM      4  C   UNL     1       2.416   7.229  19.381  0.00  0.00    +0.000 A 
ATOM      5  N   UNL     1       1.579   8.211  19.927  0.00  0.00    +0.000 N 
ATOM      6  C   UNL     1       2.335   5.913  19.855  0.00  0.00    +0.000 A 
ATOM      7  N   UNL     1       1.486   5.321  20.769  0.00  0.00    +0.000 NA
ATOM      8  C   UNL     1       1.899   4.077  20.848  0.00  0.00    +0.000 A 
ATOM      9  N   UNL     1       2.995   3.848  20.048  0.00  0.00    +0.000 N 
ATOM     10  C   UNL     1       3.251   5.004  19.356  0.00  0.00    +0.000 A 
ATOM     11  N   UNL     1       4.193   5.234  18.426  0.00  0.00    +0.000 NA
ATOM     12  H   UNL     1       4.464   6.793  16.086  0.00  0.00    +0.000 HD
ATOM     13  H   UNL     1       0.809   7.749  20.408  0.00  0.00    +0.000 HD
ENDROOT
BRANCH   1  14
ATOM     14  C   UNL     1       6.258   6.089  16.822  0.00  0.00    +0.000 C 
BRANCH  14  18
ATOM     15  C   UNL     1       6.163   3.708  13.188  0.00  0.00    +0.000 A 
ATOM     16  C   UNL     1       7.250   4.547  13.446  0.00  0.00    +0.000 A 
ATOM     17  C   UNL     1       7.280   5.294  14.633  0.00  0.00    +0.000 A 
ATOM     18  C   UNL     1       6.221   5.231  15.561  0.00  0.00    +0.000 A 
ATOM     19  C   UNL     1       5.158   4.357  15.297  0.00  0.00    +0.000 A 
ATOM     20  C   UNL     1       5.121   3.596  14.116  0.00  0.00    +0.000 A 
BRANCH  15  22
ATOM     21  O   UNL     1       7.162   2.576  11.421  0.00  0.00    +0.000 OA
ATOM     22  N   UNL     1       6.089   2.947  11.937  0.00  0.00    +0.000 N 
ATOM     23  O   UNL     1       4.977   2.721  11.457  0.00  0.00    +0.000 OA
ENDBRANCH  15  22
ENDBRANCH  14  18
ENDBRANCH   1  14
BRANCH   5  24
ATOM     24  C   UNL     1       1.220   9.312  19.051  0.00  0.00    +0.000 C 
BRANCH  24  25
ATOM     25  C   UNL     1      -0.199   9.843  19.373  0.00  0.00    +0.000 C 
ATOM     26  C   UNL     1      -0.288  10.266  20.853  0.00  0.00    +0.000 C 
ATOM     27  C   UNL     1       0.495  11.547  21.153  0.00  0.00    +0.000 C 
ATOM     28  C   UNL     1       0.113  12.691  20.215  0.00  0.00    +0.000 C 
ATOM     29  C   UNL     1       0.174  12.281  18.746  0.00  0.00    +0.000 C 
ATOM     30  C   UNL     1      -0.657  11.026  18.498  0.00  0.00    +0.000 C 
ENDBRANCH  24  25
ENDBRANCH   5  24
BRANCH   9  31
ATOM     31  C   UNL     1       3.730   2.603  19.972  0.00  0.00    +0.000 C 
BRANCH  31  32
ATOM     32  C   UNL     1       3.434   1.803  18.702  0.00  0.00    +0.000 C 
BRANCH  32  33
ATOM     33  O   UNL     1       4.350   0.724  18.537  0.00  0.00    +0.000 OA
ATOM     34  H   UNL     1       4.433   0.270  19.396  0.00  0.00    +0.000 HD
ENDBRANCH  32  33
ENDBRANCH  31  32
ENDBRANCH   9  31
TORSDOF 8
ENDMDL
MODEL 4
REMARK VINA RESULT:      -8.0      3.834      8.884
REMARK  Name = 
REMARK  8 active torsions:
REMARK  status: ('A' for Active; 'I' for Inactive)
REMARK    1  A    between atoms: N_2  and  C_4
REMARK    2  A    between atoms: C_7  and  C_8
REMARK    3  A    between atoms: C_8  and  N_9
REMARK    4  A    between atoms: N_13  and  C_14
REMARK    5  A    between atoms: C_14  and  C_15
REMARK    6  A    between atoms: N_24  and  C_25
REMARK    7  A    between atoms: C_25  and  C_26
REMARK    8  A    between atoms: C_26  and  O_27
REMARK                            x       y       z     vdW  Elec       q    Type
REMARK                         _______ _______ _______ _____ _____    ______ ____
ROOT
ATOM      1  N   UNL     1       4.973   6.845  16.748  0.00  0.00    +0.000 N 
ATOM      2  C   UNL     1       4.148   6.549  17.838  0.00  0.00    +0.000 A 
ATOM      3  N   UNL     1       3.316   7.545  18.233  0.00  0.00    +0.000 NA
ATOM      4  C   UNL     1       2.422   7.343  19.241  0.00  0.00    +0.000 A 
ATOM      5  N   UNL     1       1.592   8.352  19.749  0.00  0.00    +0.000 N 
ATOM      6  C   UNL     1       2.362   6.057  19.795  0.00  0.00    +0.000 A 
ATOM      7  N   UNL     1       1.540   5.517  20.764  0.00  0.00    +0.000 NA
ATOM      8  C   UNL     1       1.963   4.282  20.907  0.00  0.00    +0.000 A 
ATOM      9  N   UNL     1       3.039   4.011  20.094  0.00  0.00    +0.000 N 
ATOM     10  C   UNL     1       3.270   5.124  19.328  0.00  0.00    +0.000 A 
ATOM     11  N   UNL     1       4.187   5.303  18.362  0.00  0.00    +0.000 NA
ATOM     12  H   UNL     1       4.390   6.720  15.927  0.00  0.00    +0.000 HD
ATOM     13  H   UNL     1       0.838   7.915  20.276  0.00  0.00    +0.000 HD
ENDROOT
BRANCH   1  14
ATOM     14  C   UNL     1       6.206   6.071  16.658  0.00  0.00    +0.000 C 
BRANCH  14  18
ATOM     15  C   UNL     1       6.196   3.678  13.030  0.00  0.00    +0.000 A 
ATOM     16  C   UNL     1       5.078   3.682  13.868  0.00  0.00    +0.000 A 
ATOM     17  C   UNL     1       5.084   4.476  15.025  0.00  0.00    +0.000 A 
ATOM     18  C   UNL     1       6.208   5.253  15.370  0.00  0.00    +0.000 A 
ATOM     19  C   UNL     1       7.304   5.260  14.497  0.00  0.00    +0.000 A 
ATOM     20  C   UNL     1       7.306   4.476  13.330  0.00  0.00    +0.000 A 
BRANCH  15  22
ATOM     21  O   UNL     1       5.145   2.389  11.407  0.00  0.00    +0.000 OA
ATOM     22  N   UNL     1       6.230   2.827  11.836  0.00  0.00    +0.000 N 
ATOM     23  O   UNL     1       7.325   2.584  11.325  0.00  0.00    +0.000 OA
ENDBRANCH  15  22
ENDBRANCH  14  18
ENDBRANCH   1  14
BRANCH   5  24
ATOM     24  C   UNL     1       1.204   9.396  18.818  0.00  0.00    +0.000 C 
BRANCH  24  25
ATOM     25  C   UNL     1      -0.204   9.947  19.151  0.00  0.00    +0.000 C 
ATOM     26  C   UNL     1      -0.340  10.187  20.668  0.00  0.00    +0.000 C 
ATOM     27  C   UNL     1       0.480  11.383  21.156  0.00  0.00    +0.000 C 
ATOM     28  C   UNL     1       0.185  12.651  20.356  0.00  0.00    +0.000 C 
ATOM     29  C   UNL     1       0.292  12.424  18.849  0.00  0.00    +0.000 C 
ATOM     30  C   UNL     1      -0.577  11.249  18.415  0.00  0.00    +0.000 C 
ENDBRANCH  24  25
ENDBRANCH   5  24
BRANCH   9  31
ATOM     31  C   UNL     1       3.781   2.767  20.074  0.00  0.00    +0.000 C 
BRANCH  31  32
ATOM     32  C   UNL     1       3.484   1.907  18.845  0.00  0.00    +0.000 C 
BRANCH  32  33
ATOM     33  O   UNL     1       2.087   1.666  18.699  0.00  0.00    +0.000 OA
ATOM     34  H   UNL     1       1.665   1.828  19.563  0.00  0.00    +0.000 HD
ENDBRANCH  32  33
ENDBRANCH  31  32
ENDBRANCH   9  31
TORSDOF 8
ENDMDL
MODEL 5
REMARK VINA RESULT:      -7.9      2.289      5.107
REMARK  Name = 
REMARK  8 active torsions:
REMARK  status: ('A' for Active; 'I' for Inactive)
REMARK    1  A    between atoms: N_2  and  C_4
REMARK    2  A    between atoms: C_7  and  C_8
REMARK    3  A    between atoms: C_8  and  N_9
REMARK    4  A    between atoms: N_13  and  C_14
REMARK    5  A    between atoms: C_14  and  C_15
REMARK    6  A    between atoms: N_24  and  C_25
REMARK    7  A    between atoms: C_25  and  C_26
REMARK    8  A    between atoms: C_26  and  O_27
REMARK                            x       y       z     vdW  Elec       q    Type
REMARK                         _______ _______ _______ _____ _____    ______ ____
ROOT
ATOM      1  N   UNL     1       2.121   7.462  17.613  0.00  0.00    +0.000 N 
ATOM      2  C   UNL     1       3.251   6.637  17.629  0.00  0.00    +0.000 A 
ATOM      3  N   UNL     1       3.012   5.319  17.841  0.00  0.00    +0.000 NA
ATOM      4  C   UNL     1       4.033   4.416  17.809  0.00  0.00    +0.000 A 
ATOM      5  N   UNL     1       3.866   3.055  18.099  0.00  0.00    +0.000 N 
ATOM      6  C   UNL     1       5.308   4.901  17.487  0.00  0.00    +0.000 A 
ATOM      7  N   UNL     1       6.514   4.254  17.311  0.00  0.00    +0.000 NA
ATOM      8  C   UNL     1       7.372   5.216  17.060  0.00  0.00    +0.000 A 
ATOM      9  N   UNL     1       6.778   6.456  17.095  0.00  0.00    +0.000 N 
ATOM     10  C   UNL     1       5.437   6.267  17.309  0.00  0.00    +0.000 A 
ATOM     11  N   UNL     1       4.459   7.186  17.370  0.00  0.00    +0.000 NA
ATOM     12  H   UNL     1       1.724   7.357  16.686  0.00  0.00    +0.000 HD
ATOM     13  H   UNL     1       4.674   2.548  17.743  0.00  0.00    +0.000 HD
ENDROOT
BRANCH   1  14
ATOM     14  C   UNL     1       2.356   8.863  17.945  0.00  0.00    +0.000 C 
BRANCH  14  18
ATOM     15  C   UNL     1       0.456   9.737  21.755  0.00  0.00    +0.000 A 
ATOM     16  C   UNL     1       1.097   8.511  21.558  0.00  0.00    +0.000 A 
ATOM     17  C   UNL     1       1.726   8.249  20.331  0.00  0.00    +0.000 A 
ATOM     18  C   UNL     1       1.703   9.192  19.284  0.00  0.00    +0.000 A 
ATOM     19  C   UNL     1       1.085  10.428  19.517  0.00  0.00    +0.000 A 
ATOM     20  C   UNL     1       0.459  10.706  20.745  0.00  0.00    +0.000 A 
BRANCH  15  22
ATOM     21  O   UNL     1      -1.294  10.685  22.953  0.00  0.00    +0.000 OA
ATOM     22  N   UNL     1      -0.242  10.019  23.013  0.00  0.00    +0.000 N 
ATOM     23  O   UNL     1       0.248   9.592  24.059  0.00  0.00    +0.000 OA
ENDBRANCH  15  22
ENDBRANCH  14  18
ENDBRANCH   1  14
BRANCH   5  24
ATOM     24  C   UNL     1       2.566   2.486  17.793  0.00  0.00    +0.000 C 
BRANCH  24  25
ATOM     25  C   UNL     1       1.927   1.844  19.050  0.00  0.00    +0.000 C 
ATOM     26  C   UNL     1       2.905   1.909  20.240  0.00  0.00    +0.000 C 
ATOM     27  C   UNL     1       3.080   3.328  20.788  0.00  0.00    +0.000 C 
ATOM     28  C   UNL     1       1.742   3.988  21.120  0.00  0.00    +0.000 C 
ATOM     29  C   UNL     1       0.753   3.911  19.959  0.00  0.00    +0.000 C 
ATOM     30  C   UNL     1       0.587   2.471  19.483  0.00  0.00    +0.000 C 
ENDBRANCH  24  25
ENDBRANCH   5  24
BRANCH   9  31
ATOM     31  C   UNL     1       7.469   7.719  16.937  0.00  0.00    +0.000 C 
BRANCH  31  32
ATOM     32  C   UNL     1       8.007   8.281  18.254  0.00  0.00    +0.000 C 
BRANCH  32  33
ATOM     33  O   UNL     1       8.611   7.265  19.049  0.00  0.00    +0.000 OA
ATOM     34  H   UNL     1       8.605   7.569  19.976  0.00  0.00    +0.000 HD
ENDBRANCH  32  33
ENDBRANCH  31  32
ENDBRANCH   9  31
TORSDOF 8
ENDMDL
MODEL 6
REMARK VINA RESULT:      -7.8      4.239      8.771
REMARK  Name = 
REMARK  8 active torsions:
REMARK  status: ('A' for Active; 'I' for Inactive)
REMARK    1  A    between atoms: N_2  and  C_4
REMARK    2  A    between atoms: C_7  and  C_8
REMARK    3  A    between atoms: C_8  and  N_9
REMARK    4  A    between atoms: N_13  and  C_14
REMARK    5  A    between atoms: C_14  and  C_15
REMARK    6  A    between atoms: N_24  and  C_25
REMARK    7  A    between atoms: C_25  and  C_26
REMARK    8  A    between atoms: C_26  and  O_27
REMARK                            x       y       z     vdW  Elec       q    Type
REMARK                         _______ _______ _______ _____ _____    ______ ____
ROOT
ATOM      1  N   UNL     1       5.021   6.804  17.099  0.00  0.00    +0.000 N 
ATOM      2  C   UNL     1       4.153   6.407  18.121  0.00  0.00    +0.000 A 
ATOM      3  N   UNL     1       3.333   7.374  18.602  0.00  0.00    +0.000 NA
ATOM      4  C   UNL     1       2.399   7.082  19.552  0.00  0.00    +0.000 A 
ATOM      5  N   UNL     1       1.577   8.049  20.147  0.00  0.00    +0.000 N 
ATOM      6  C   UNL     1       2.288   5.743  19.950  0.00  0.00    +0.000 A 
ATOM      7  N   UNL     1       1.420   5.118  20.823  0.00  0.00    +0.000 NA
ATOM      8  C   UNL     1       1.807   3.863  20.834  0.00  0.00    +0.000 A 
ATOM      9  N   UNL     1       2.904   3.658  20.030  0.00  0.00    +0.000 N 
ATOM     10  C   UNL     1       3.189   4.845  19.407  0.00  0.00    +0.000 A 
ATOM     11  N   UNL     1       4.142   5.108  18.497  0.00  0.00    +0.000 NA
ATOM     12  H   UNL     1       4.464   6.791  16.252  0.00  0.00    +0.000 HD
ATOM     13  H   UNL     1       0.795   7.576  20.596  0.00  0.00    +0.000 HD
ENDROOT
BRANCH   1  14
ATOM     14  C   UNL     1       6.237   6.010  16.958  0.00  0.00    +0.000 C 
BRANCH  14  18
ATOM     15  C   UNL     1       6.138   3.797  13.219  0.00  0.00    +0.000 A 
ATOM     16  C   UNL     1       5.013   3.822  14.046  0.00  0.00    +0.000 A 
ATOM     17  C   UNL     1       5.049   4.559  15.240  0.00  0.00    +0.000 A 
ATOM     18  C   UNL     1       6.210   5.255  15.632  0.00  0.00    +0.000 A 
ATOM     19  C   UNL     1       7.315   5.242  14.771  0.00  0.00    +0.000 A 
ATOM     20  C   UNL     1       7.287   4.516  13.567  0.00  0.00    +0.000 A 
BRANCH  15  22
ATOM     21  O   UNL     1       7.232   2.825  11.414  0.00  0.00    +0.000 OA
ATOM     22  N   UNL     1       6.139   3.003  11.987  0.00  0.00    +0.000 N 
ATOM     23  O   UNL     1       5.065   2.559  11.579  0.00  0.00    +0.000 OA
ENDBRANCH  15  22
ENDBRANCH  14  18
ENDBRANCH   1  14
BRANCH   5  24
ATOM     24  C   UNL     1       1.248   9.204  19.332  0.00  0.00    +0.000 C 
BRANCH  24  25
ATOM     25  C   UNL     1       0.377  10.214  20.120  0.00  0.00    +0.000 C 
ATOM     26  C   UNL     1       1.132  11.547  20.298  0.00  0.00    +0.000 C 
ATOM     27  C   UNL     1       1.253  12.339  18.994  0.00  0.00    +0.000 C 
ATOM     28  C   UNL     1      -0.100  12.543  18.314  0.00  0.00    +0.000 C 
ATOM     29  C   UNL     1      -0.871  11.234  18.152  0.00  0.00    +0.000 C 
ATOM     30  C   UNL     1      -0.997  10.510  19.489  0.00  0.00    +0.000 C 
ENDBRANCH  24  25
ENDBRANCH   5  24
BRANCH   9  31
ATOM     31  C   UNL     1       3.615   2.403  19.889  0.00  0.00    +0.000 C 
BRANCH  31  32
ATOM     32  C   UNL     1       3.296   1.673  18.583  0.00  0.00    +0.000 C 
BRANCH  32  33
ATOM     33  O   UNL     1       4.184   0.580  18.364  0.00  0.00    +0.000 OA
ATOM     34  H   UNL     1       4.098   0.309  17.431  0.00  0.00    +0.000 HD
ENDBRANCH  32  33
ENDBRANCH  31  32
ENDBRANCH   9  31
TORSDOF 8
ENDMDL
MODEL 7
REMARK VINA RESULT:      -7.8      0.955      1.063
REMARK  Name = 
REMARK  8 active torsions:
REMARK  status: ('A' for Active; 'I' for Inactive)
REMARK    1  A    between atoms: N_2  and  C_4
REMARK    2  A    between atoms: C_7  and  C_8
REMARK    3  A    between atoms: C_8  and  N_9
REMARK    4  A    between atoms: N_13  and  C_14
REMARK    5  A    between atoms: C_14  and  C_15
REMARK    6  A    between atoms: N_24  and  C_25
REMARK    7  A    between atoms: C_25  and  C_26
REMARK    8  A    between atoms: C_26  and  O_27
REMARK                            x       y       z     vdW  Elec       q    Type
REMARK                         _______ _______ _______ _____ _____    ______ ____
ROOT
ATOM      1  N   UNL     1       2.000   7.788  20.281  0.00  0.00    +0.000 N 
ATOM      2  C   UNL     1       2.535   6.584  19.814  0.00  0.00    +0.000 A 
ATOM      3  N   UNL     1       3.193   6.654  18.630  0.00  0.00    +0.000 NA
ATOM      4  C   UNL     1       3.812   5.554  18.114  0.00  0.00    +0.000 A 
ATOM      5  N   UNL     1       4.439   5.540  16.861  0.00  0.00    +0.000 N 
ATOM      6  C   UNL     1       3.790   4.385  18.887  0.00  0.00    +0.000 A 
ATOM      7  N   UNL     1       4.365   3.146  18.687  0.00  0.00    +0.000 NA
ATOM      8  C   UNL     1       3.977   2.431  19.718  0.00  0.00    +0.000 A 
ATOM      9  N   UNL     1       3.155   3.145  20.558  0.00  0.00    +0.000 N 
ATOM     10  C   UNL     1       3.073   4.423  20.070  0.00  0.00    +0.000 A 
ATOM     11  N   UNL     1       2.423   5.480  20.586  0.00  0.00    +0.000 NA
ATOM     12  H   UNL     1       2.777   8.279  20.711  0.00  0.00    +0.000 HD
ATOM     13  H   UNL     1       5.055   4.730  16.817  0.00  0.00    +0.000 HD
ENDROOT
BRANCH   1  14
ATOM     14  C   UNL     1       0.867   7.666  21.192  0.00  0.00    +0.000 C 
BRANCH  14  18
ATOM     15  C   UNL     1      -0.616  11.642  22.129  0.00  0.00    +0.000 A 
ATOM     16  C   UNL     1      -0.016  11.393  20.892  0.00  0.00    +0.000 A 
ATOM     17  C   UNL     1       0.439  10.100  20.592  0.00  0.00    +0.000 A 
ATOM     18  C   UNL     1       0.323   9.051  21.527  0.00  0.00    +0.000 A 
ATOM     19  C   UNL     1      -0.313   9.317  22.747  0.00  0.00    +0.000 A 
ATOM     20  C   UNL     1      -0.781  10.606  23.055  0.00  0.00    +0.000 A 
BRANCH  15  22
ATOM     21  O   UNL     1      -1.628  13.665  21.597  0.00  0.00    +0.000 OA
ATOM     22  N   UNL     1      -1.063  12.993  22.482  0.00  0.00    +0.000 N 
ATOM     23  O   UNL     1      -0.853  13.396  23.627  0.00  0.00    +0.000 OA
ENDBRANCH  15  22
ENDBRANCH  14  18
ENDBRANCH   1  14
BRANCH   5  24
ATOM     24  C   UNL     1       5.001   6.799  16.407  0.00  0.00    +0.000 C 
BRANCH  24  25
ATOM     25  C   UNL     1       6.483   6.633  15.991  0.00  0.00    +0.000 C 
ATOM     26  C   UNL     1       7.414   7.083  17.134  0.00  0.00    +0.000 C 
ATOM     27  C   UNL     1       7.413   6.113  18.318  0.00  0.00    +0.000 C 
ATOM     28  C   UNL     1       7.702   4.675  17.888  0.00  0.00    +0.000 C 
ATOM     29  C   UNL     1       6.804   4.222  16.739  0.00  0.00    +0.000 C 
ATOM     30  C   UNL     1       6.878   5.203  15.573  0.00  0.00    +0.000 C 
ENDBRANCH  24  25
ENDBRANCH   5  24
BRANCH   9  31
ATOM     31  C   UNL     1       2.501   2.616  21.738  0.00  0.00    +0.000 C 
BRANCH  31  32
ATOM     32  C   UNL     1       0.981   2.523  21.594  0.00  0.00    +0.000 C 
BRANCH  32  33
ATOM     33  O   UNL     1       0.538   3.067  20.354  0.00  0.00    +0.000 OA
ATOM     34  H   UNL     1      -0.290   3.555  20.522  0.00  0.00    +0.000 HD
ENDBRANCH  32  33
ENDBRANCH  31  32
ENDBRANCH   9  31
TORSDOF 8
ENDMDL
MODEL 8
REMARK VINA RESULT:      -7.7      3.929     10.258
REMARK  Name = 
REMARK  8 active torsions:
REMARK  status: ('A' for Active; 'I' for Inactive)
REMARK    1  A    between atoms: N_2  and  C_4
REMARK    2  A    between atoms: C_7  and  C_8
REMARK    3  A    between atoms: C_8  and  N_9
REMARK    4  A    between atoms: N_13  and  C_14
REMARK    5  A    between atoms: C_14  and  C_15
REMARK    6  A    between atoms: N_24  and  C_25
REMARK    7  A    between atoms: C_25  and  C_26
REMARK    8  A    between atoms: C_26  and  O_27
REMARK                            x       y       z     vdW  Elec       q    Type
REMARK                         _______ _______ _______ _____ _____    ______ ____
ROOT
ATOM      1  N   UNL     1       0.084   9.147  20.836  0.00  0.00    +0.000 N 
ATOM      2  C   UNL     1      -0.016  10.373  20.170  0.00  0.00    +0.000 A 
ATOM      3  N   UNL     1      -1.158  10.565  19.464  0.00  0.00    +0.000 NA
ATOM      4  C   UNL     1      -1.391  11.750  18.832  0.00  0.00    +0.000 A 
ATOM      5  N   UNL     1      -2.511  11.984  18.022  0.00  0.00    +0.000 N 
ATOM      6  C   UNL     1      -0.439  12.765  19.001  0.00  0.00    +0.000 A 
ATOM      7  N   UNL     1      -0.407  14.072  18.560  0.00  0.00    +0.000 NA
ATOM      8  C   UNL     1       0.744  14.538  18.985  0.00  0.00    +0.000 A 
ATOM      9  N   UNL     1       1.469  13.580  19.655  0.00  0.00    +0.000 N 
ATOM     10  C   UNL     1       0.696  12.451  19.727  0.00  0.00    +0.000 A 
ATOM     11  N   UNL     1       0.972  11.282  20.330  0.00  0.00    +0.000 NA
ATOM     12  H   UNL     1      -0.456   9.257  21.687  0.00  0.00    +0.000 HD
ATOM     13  H   UNL     1      -2.615  12.990  17.898  0.00  0.00    +0.000 HD
ENDROOT
BRANCH   1  14
ATOM     14  C   UNL     1       1.441   8.686  21.113  0.00  0.00    +0.000 C 
BRANCH  14  18
ATOM     15  C   UNL     1       2.425   5.248  18.644  0.00  0.00    +0.000 A 
ATOM     16  C   UNL     1       1.934   5.062  19.938  0.00  0.00    +0.000 A 
ATOM     17  C   UNL     1       1.598   6.179  20.718  0.00  0.00    +0.000 A 
ATOM     18  C   UNL     1       1.770   7.489  20.227  0.00  0.00    +0.000 A 
ATOM     19  C   UNL     1       2.232   7.651  18.914  0.00  0.00    +0.000 A 
ATOM     20  C   UNL     1       2.563   6.539  18.119  0.00  0.00    +0.000 A 
BRANCH  15  22
ATOM     21  O   UNL     1       1.940   3.551  17.133  0.00  0.00    +0.000 OA
ATOM     22  N   UNL     1       2.821   4.099  17.824  0.00  0.00    +0.000 N 
ATOM     23  O   UNL     1       3.996   3.731  17.864  0.00  0.00    +0.000 OA
ENDBRANCH  15  22
ENDBRANCH  14  18
ENDBRANCH   1  14
BRANCH   5  24
ATOM     24  C   UNL     1      -3.716  11.251  18.362  0.00  0.00    +0.000 C 
BRANCH  24  25
ATOM     25  C   UNL     1      -4.973  12.145  18.221  0.00  0.00    +0.000 C 
ATOM     26  C   UNL     1      -6.193  11.293  17.816  0.00  0.00    +0.000 C 
ATOM     27  C   UNL     1      -6.693  10.395  18.950  0.00  0.00    +0.000 C 
ATOM     28  C   UNL     1      -6.954  11.178  20.236  0.00  0.00    +0.000 C 
ATOM     29  C   UNL     1      -5.763  12.045  20.638  0.00  0.00    +0.000 C 
ATOM     30  C   UNL     1      -5.336  12.948  19.485  0.00  0.00    +0.000 C 
ENDBRANCH  24  25
ENDBRANCH   5  24
BRANCH   9  31
ATOM     31  C   UNL     1       2.809  13.758  20.176  0.00  0.00    +0.000 C 
BRANCH  31  32
ATOM     32  C   UNL     1       2.901  14.847  21.246  0.00  0.00    +0.000 C 
BRANCH  32  33
ATOM     33  O   UNL     1       1.972  14.623  22.303  0.00  0.00    +0.000 OA
ATOM     34  H   UNL     1       1.772  15.486  22.712  0.00  0.00    +0.000 HD
ENDBRANCH  32  33
ENDBRANCH  31  32
ENDBRANCH   9  31
TORSDOF 8
ENDMDL
MODEL 9
REMARK VINA RESULT:      -7.7      3.976     10.227
REMARK  Name = 
REMARK  8 active torsions:
REMARK  status: ('A' for Active; 'I' for Inactive)
REMARK    1  A    between atoms: N_2  and  C_4
REMARK    2  A    between atoms: C_7  and  C_8
REMARK    3  A    between atoms: C_8  and  N_9
REMARK    4  A    between atoms: N_13  and  C_14
REMARK    5  A    between atoms: C_14  and  C_15
REMARK    6  A    between atoms: N_24  and  C_25
REMARK    7  A    between atoms: C_25  and  C_26
REMARK    8  A    between atoms: C_26  and  O_27
REMARK                            x       y       z     vdW  Elec       q    Type
REMARK                         _______ _______ _______ _____ _____    ______ ____
ROOT
ATOM      1  N   UNL     1       0.023   9.133  20.918  0.00  0.00    +0.000 N 
ATOM      2  C   UNL     1      -0.066  10.367  20.264  0.00  0.00    +0.000 A 
ATOM      3  N   UNL     1      -1.191  10.564  19.534  0.00  0.00    +0.000 NA
ATOM      4  C   UNL     1      -1.414  11.756  18.910  0.00  0.00    +0.000 A 
ATOM      5  N   UNL     1      -2.515  11.996  18.078  0.00  0.00    +0.000 N 
ATOM      6  C   UNL     1      -0.468  12.771  19.113  0.00  0.00    +0.000 A 
ATOM      7  N   UNL     1      -0.431  14.083  18.687  0.00  0.00    +0.000 NA
ATOM      8  C   UNL     1       0.710  14.547  19.143  0.00  0.00    +0.000 A 
ATOM      9  N   UNL     1       1.422  13.584  19.819  0.00  0.00    +0.000 N 
ATOM     10  C   UNL     1       0.651  12.451  19.861  0.00  0.00    +0.000 A 
ATOM     11  N   UNL     1       0.916  11.277  20.457  0.00  0.00    +0.000 NA
ATOM     12  H   UNL     1      -0.536   9.233  21.757  0.00  0.00    +0.000 HD
ATOM     13  H   UNL     1      -2.619  13.003  17.963  0.00  0.00    +0.000 HD
ENDROOT
BRANCH   1  14
ATOM     14  C   UNL     1       1.374   8.673  21.220  0.00  0.00    +0.000 C 
BRANCH  14  18
ATOM     15  C   UNL     1       2.401   5.442  18.501  0.00  0.00    +0.000 A 
ATOM     16  C   UNL     1       2.534   6.771  18.090  0.00  0.00    +0.000 A 
ATOM     17  C   UNL     1       2.221   7.806  18.984  0.00  0.00    +0.000 A 
ATOM     18  C   UNL     1       1.751   7.529  20.284  0.00  0.00    +0.000 A 
ATOM     19  C   UNL     1       1.659   6.190  20.685  0.00  0.00    +0.000 A 
ATOM     20  C   UNL     1       1.979   5.144  19.802  0.00  0.00    +0.000 A 
BRANCH  15  22
ATOM     21  O   UNL     1       3.847   4.239  17.138  0.00  0.00    +0.000 OA
ATOM     22  N   UNL     1       2.684   4.343  17.573  0.00  0.00    +0.000 N 
ATOM     23  O   UNL     1       1.760   3.587  17.267  0.00  0.00    +0.000 OA
ENDBRANCH  15  22
ENDBRANCH  14  18
ENDBRANCH   1  14
BRANCH   5  24
ATOM     24  C   UNL     1      -3.726  11.255  18.381  0.00  0.00    +0.000 C 
BRANCH  24  25
ATOM     25  C   UNL     1      -4.982  12.148  18.225  0.00  0.00    +0.000 C 
ATOM     26  C   UNL     1      -6.200  11.293  17.824  0.00  0.00    +0.000 C 
ATOM     27  C   UNL     1      -6.706  10.408  18.966  0.00  0.00    +0.000 C 
ATOM     28  C   UNL     1      -6.972  11.206  20.242  0.00  0.00    +0.000 C 
ATOM     29  C   UNL     1      -5.783  12.078  20.639  0.00  0.00    +0.000 C 
ATOM     30  C   UNL     1      -5.350  12.967  19.478  0.00  0.00    +0.000 C 
ENDBRANCH  24  25
ENDBRANCH   5  24
BRANCH   9  31
ATOM     31  C   UNL     1       2.749  13.759  20.373  0.00  0.00    +0.000 C 
BRANCH  31  32
ATOM     32  C   UNL     1       2.846  14.932  21.349  0.00  0.00    +0.000 C 
BRANCH  32  33
ATOM     33  O   UNL     1       3.424  14.536  22.590  0.00  0.00    +0.000 OA
ATOM     34  H   UNL     1       2.697  14.292  23.192  0.00  0.00    +0.000 HD
ENDBRANCH  32  33
ENDBRANCH  31  32
ENDBRANCH   9  31
TORSDOF 8
ENDMDL
