MODEL 1
REMARK VINA RESULT:      -7.7      0.000      0.000
REMARK  Name = 
REMARK  4 active torsions:
REMARK  status: ('A' for Active; 'I' for Inactive)
REMARK    1  A    between atoms: C_4  and  C_5
REMARK    2  A    between atoms: C_5  and  S_6
REMARK    3  A    between atoms: S_6  and  C_7
REMARK    4  A    between atoms: N_14  and  C_15
REMARK                            x       y       z     vdW  Elec       q    Type
REMARK                         _______ _______ _______ _____ _____    ______ ____
ROOT
ATOM      1  N   UNL     1       7.945   4.856  18.791  0.00  0.00    +0.000 N 
ATOM      2  C   UNL     1       7.006   4.759  17.784  0.00  0.00    +0.000 A 
ATOM      3  N   UNL     1       7.427   4.732  16.531  0.00  0.00    +0.000 NA
ATOM      4  C   UNL     1       6.462   4.624  15.613  0.00  0.00    +0.000 A 
ATOM      5  N   UNL     1       5.155   4.552  15.895  0.00  0.00    +0.000 NA
ATOM      6  C   UNL     1       4.842   4.593  17.186  0.00  0.00    +0.000 A 
ATOM      7  N   UNL     1       3.489   4.530  17.517  0.00  0.00    +0.000 N 
ATOM      8  N   UNL     1       5.744   4.712  18.156  0.00  0.00    +0.000 NA
ATOM      9  H   UNL     1       8.788   5.299  18.456  0.00  0.00    +0.000 HD
ATOM     10  H   UNL     1       7.515   5.244  19.621  0.00  0.00    +0.000 HD
ATOM     11  H   UNL     1       2.903   4.552  16.696  0.00  0.00    +0.000 HD
ENDROOT
BRANCH   7  12
ATOM     12  C   UNL     1       2.905   4.064  18.704  0.00  0.00    +0.000 A 
ATOM     13  C   UNL     1       2.697   2.688  18.883  0.00  0.00    +0.000 A 
ATOM     14  C   UNL     1       2.033   2.209  20.017  0.00  0.00    +0.000 A 
ATOM     15  C   UNL     1       1.579   3.101  20.981  0.00  0.00    +0.000 A 
ATOM     16  F   UNL     1       0.931   2.643  22.059  0.00  0.00    +0.000 F 
ATOM     17  C   UNL     1       1.779   4.465  20.834  0.00  0.00    +0.000 A 
ATOM     18  C   UNL     1       2.432   4.939  19.696  0.00  0.00    +0.000 A 
ENDBRANCH   7  12
BRANCH   4  19
ATOM     19  C   UNL     1       6.885   4.532  14.163  0.00  0.00    +0.000 C 
BRANCH  19  20
ATOM     20  S   UNL     1       5.474   4.209  13.068  0.00  0.00    +0.000 S 
BRANCH  20  21
ATOM     21  C   UNL     1       6.099   2.913  12.095  0.00  0.00    +0.000 A 
ATOM     22  N   UNL     1       5.345   1.902  11.564  0.00  0.00    +0.000 NA
ATOM     23  C   UNL     1       6.234   1.166  10.937  0.00  0.00    +0.000 A 
ATOM     24  N   UNL     1       7.466   1.720  11.087  0.00  0.00    +0.000 N 
ATOM     25  N   UNL     1       7.406   2.839  11.823  0.00  0.00    +0.000 NA
ATOM     26  H   UNL     1       8.364   1.406  10.733  0.00  0.00    +0.000 HD
ENDBRANCH  20  21
ENDBRANCH  19  20
ENDBRANCH   4  19
TORSDOF 4
ENDMDL
MODEL 2
REMARK VINA RESULT:      -7.6      0.157      1.039
REMARK  Name = 
REMARK  4 active torsions:
REMARK  status: ('A' for Active; 'I' for Inactive)
REMARK    1  A    between atoms: C_4  and  C_5
REMARK    2  A    between atoms: C_5  and  S_6
REMARK    3  A    between atoms: S_6  and  C_7
REMARK    4  A    between atoms: N_14  and  C_15
REMARK                            x       y       z     vdW  Elec       q    Type
REMARK                         _______ _______ _______ _____ _____    ______ ____
ROOT
ATOM      1  N   UNL     1       7.787   4.680  18.739  0.00  0.00    +0.000 N 
ATOM      2  C   UNL     1       6.860   4.658  17.717  0.00  0.00    +0.000 A 
ATOM      3  N   UNL     1       7.297   4.656  16.470  0.00  0.00    +0.000 NA
ATOM      4  C   UNL     1       6.342   4.622  15.536  0.00  0.00    +0.000 A 
ATOM      5  N   UNL     1       5.029   4.596  15.798  0.00  0.00    +0.000 NA
ATOM      6  C   UNL     1       4.699   4.606  17.086  0.00  0.00    +0.000 A 
ATOM      7  N   UNL     1       3.340   4.589  17.397  0.00  0.00    +0.000 N 
ATOM      8  N   UNL     1       5.591   4.653  18.071  0.00  0.00    +0.000 NA
ATOM      9  H   UNL     1       8.653   5.098  18.431  0.00  0.00    +0.000 HD
ATOM     10  H   UNL     1       7.362   5.058  19.577  0.00  0.00    +0.000 HD
ATOM     11  H   UNL     1       2.768   4.664  16.569  0.00  0.00    +0.000 HD
ENDROOT
BRANCH   7  12
ATOM     12  C   UNL     1       2.720   4.108  18.560  0.00  0.00    +0.000 A 
ATOM     13  C   UNL     1       2.365   5.004  19.580  0.00  0.00    +0.000 A 
ATOM     14  C   UNL     1       1.830   4.537  20.785  0.00  0.00    +0.000 A 
ATOM     15  C   UNL     1       1.642   3.173  20.974  0.00  0.00    +0.000 A 
ATOM     16  F   UNL     1       1.143   2.726  22.133  0.00  0.00    +0.000 F 
ATOM     17  C   UNL     1       1.975   2.267  19.980  0.00  0.00    +0.000 A 
ATOM     18  C   UNL     1       2.518   2.736  18.784  0.00  0.00    +0.000 A 
ENDBRANCH   7  12
BRANCH   4  19
ATOM     19  C   UNL     1       6.781   4.561  14.090  0.00  0.00    +0.000 C 
BRANCH  19  20
ATOM     20  S   UNL     1       5.401   4.161  12.981  0.00  0.00    +0.000 S 
BRANCH  20  21
ATOM     21  C   UNL     1       6.091   2.872  12.044  0.00  0.00    +0.000 A 
ATOM     22  N   UNL     1       5.388   1.811  11.539  0.00  0.00    +0.000 NA
ATOM     23  C   UNL     1       6.314   1.103  10.934  0.00  0.00    +0.000 A 
ATOM     24  N   UNL     1       7.518   1.721  11.070  0.00  0.00    +0.000 N 
ATOM     25  N   UNL     1       7.400   2.854  11.775  0.00  0.00    +0.000 NA
ATOM     26  H   UNL     1       8.430   1.442  10.725  0.00  0.00    +0.000 HD
ENDBRANCH  20  21
ENDBRANCH  19  20
ENDBRANCH   4  19
TORSDOF 4
ENDMDL
MODEL 3
REMARK VINA RESULT:      -7.6      3.910      6.582
REMARK  Name = 
REMARK  4 active torsions:
REMARK  status: ('A' for Active; 'I' for Inactive)
REMARK    1  A    between atoms: C_4  and  C_5
REMARK    2  A    between atoms: C_5  and  S_6
REMARK    3  A    between atoms: S_6  and  C_7
REMARK    4  A    between atoms: N_14  and  C_15
REMARK                            x       y       z     vdW  Elec       q    Type
REMARK                         _______ _______ _______ _____ _____    ______ ____
ROOT
ATOM      1  N   UNL     1       6.622   5.200  14.918  0.00  0.00    +0.000 N 
ATOM      2  C   UNL     1       6.672   5.481  16.268  0.00  0.00    +0.000 A 
ATOM      3  N   UNL     1       7.513   6.410  16.688  0.00  0.00    +0.000 NA
ATOM      4  C   UNL     1       7.496   6.635  18.004  0.00  0.00    +0.000 A 
ATOM      5  N   UNL     1       6.707   5.989  18.872  0.00  0.00    +0.000 NA
ATOM      6  C   UNL     1       5.902   5.071  18.344  0.00  0.00    +0.000 A 
ATOM      7  N   UNL     1       5.072   4.371  19.218  0.00  0.00    +0.000 N 
ATOM      8  N   UNL     1       5.872   4.782  17.046  0.00  0.00    +0.000 NA
ATOM      9  H   UNL     1       7.497   5.430  14.470  0.00  0.00    +0.000 HD
ATOM     10  H   UNL     1       6.261   4.265  14.777  0.00  0.00    +0.000 HD
ATOM     11  H   UNL     1       5.265   4.602  20.181  0.00  0.00    +0.000 HD
ENDROOT
BRANCH   7  12
ATOM     12  C   UNL     1       3.840   3.758  18.945  0.00  0.00    +0.000 A 
ATOM     13  C   UNL     1       2.722   4.551  18.643  0.00  0.00    +0.000 A 
ATOM     14  C   UNL     1       1.464   3.968  18.458  0.00  0.00    +0.000 A 
ATOM     15  C   UNL     1       1.318   2.590  18.568  0.00  0.00    +0.000 A 
ATOM     16  F   UNL     1       0.111   2.035  18.405  0.00  0.00    +0.000 F 
ATOM     17  C   UNL     1       2.407   1.783  18.856  0.00  0.00    +0.000 A 
ATOM     18  C   UNL     1       3.658   2.370  19.050  0.00  0.00    +0.000 A 
ENDBRANCH   7  12
BRANCH   4  19
ATOM     19  C   UNL     1       8.398   7.726  18.539  0.00  0.00    +0.000 C 
BRANCH  19  20
ATOM     20  S   UNL     1       8.122   9.306  17.687  0.00  0.00    +0.000 S 
BRANCH  20  21
ATOM     21  C   UNL     1       9.147  10.362  18.609  0.00  0.00    +0.000 A 
ATOM     22  N   UNL     1       9.260  10.345  19.973  0.00  0.00    +0.000 NA
ATOM     23  C   UNL     1      10.115  11.312  20.213  0.00  0.00    +0.000 A 
ATOM     24  N   UNL     1      10.498  11.879  19.037  0.00  0.00    +0.000 N 
ATOM     25  N   UNL     1       9.894  11.287  17.998  0.00  0.00    +0.000 NA
ATOM     26  H   UNL     1      11.142  12.644  18.868  0.00  0.00    +0.000 HD
ENDBRANCH  20  21
ENDBRANCH  19  20
ENDBRANCH   4  19
TORSDOF 4
ENDMDL
MODEL 4
REMARK VINA RESULT:      -7.6      5.166      7.638
REMARK  Name = 
REMARK  4 active torsions:
REMARK  status: ('A' for Active; 'I' for Inactive)
REMARK    1  A    between atoms: C_4  and  C_5
REMARK    2  A    between atoms: C_5  and  S_6
REMARK    3  A    between atoms: S_6  and  C_7
REMARK    4  A    between atoms: N_14  and  C_15
REMARK                            x       y       z     vdW  Elec       q    Type
REMARK                         _______ _______ _______ _____ _____    ______ ____
ROOT
ATOM      1  N   UNL     1       8.454   5.356  20.104  0.00  0.00    +0.000 N 
ATOM      2  C   UNL     1       7.828   5.971  19.039  0.00  0.00    +0.000 A 
ATOM      3  N   UNL     1       6.884   5.308  18.395  0.00  0.00    +0.000 NA
ATOM      4  C   UNL     1       6.316   5.971  17.384  0.00  0.00    +0.000 A 
ATOM      5  N   UNL     1       6.652   7.213  17.011  0.00  0.00    +0.000 NA
ATOM      6  C   UNL     1       7.618   7.786  17.723  0.00  0.00    +0.000 A 
ATOM      7  N   UNL     1       8.000   9.076  17.358  0.00  0.00    +0.000 N 
ATOM      8  N   UNL     1       8.238   7.185  18.734  0.00  0.00    +0.000 NA
ATOM      9  H   UNL     1       8.413   4.352  20.015  0.00  0.00    +0.000 HD
ATOM     10  H   UNL     1       9.365   5.772  20.251  0.00  0.00    +0.000 HD
ATOM     11  H   UNL     1       7.535   9.378  16.515  0.00  0.00    +0.000 HD
ENDROOT
BRANCH   7  12
ATOM     12  C   UNL     1       8.575  10.073  18.161  0.00  0.00    +0.000 A 
ATOM     13  C   UNL     1       8.631  11.395  17.694  0.00  0.00    +0.000 A 
ATOM     14  C   UNL     1       9.281  12.386  18.436  0.00  0.00    +0.000 A 
ATOM     15  C   UNL     1       9.872  12.063  19.652  0.00  0.00    +0.000 A 
ATOM     16  F   UNL     1      10.506  13.010  20.355  0.00  0.00    +0.000 F 
ATOM     17  C   UNL     1       9.823  10.767  20.141  0.00  0.00    +0.000 A 
ATOM     18  C   UNL     1       9.183   9.780  19.392  0.00  0.00    +0.000 A 
ENDBRANCH   7  12
BRANCH   4  19
ATOM     19  C   UNL     1       5.188   5.286  16.644  0.00  0.00    +0.000 C 
BRANCH  19  20
ATOM     20  S   UNL     1       3.626   5.373  17.564  0.00  0.00    +0.000 S 
BRANCH  20  21
ATOM     21  C   UNL     1       3.310   3.687  17.839  0.00  0.00    +0.000 A 
ATOM     22  N   UNL     1       4.088   2.862  18.606  0.00  0.00    +0.000 NA
ATOM     23  C   UNL     1       3.480   1.703  18.505  0.00  0.00    +0.000 A 
ATOM     24  N   UNL     1       2.381   1.835  17.715  0.00  0.00    +0.000 N 
ATOM     25  N   UNL     1       2.251   3.095  17.278  0.00  0.00    +0.000 NA
ATOM     26  H   UNL     1       1.698   1.138  17.436  0.00  0.00    +0.000 HD
ENDBRANCH  20  21
ENDBRANCH  19  20
ENDBRANCH   4  19
TORSDOF 4
ENDMDL
MODEL 5
REMARK VINA RESULT:      -7.5      5.249      7.747
REMARK  Name = 
REMARK  4 active torsions:
REMARK  status: ('A' for Active; 'I' for Inactive)
REMARK    1  A    between atoms: C_4  and  C_5
REMARK    2  A    between atoms: C_5  and  S_6
REMARK    3  A    between atoms: S_6  and  C_7
REMARK    4  A    between atoms: N_14  and  C_15
REMARK                            x       y       z     vdW  Elec       q    Type
REMARK                         _______ _______ _______ _____ _____    ______ ____
ROOT
ATOM      1  N   UNL     1       8.367   5.305  20.026  0.00  0.00    +0.000 N 
ATOM      2  C   UNL     1       7.770   6.051  19.030  0.00  0.00    +0.000 A 
ATOM      3  N   UNL     1       6.713   5.550  18.415  0.00  0.00    +0.000 NA
ATOM      4  C   UNL     1       6.183   6.334  17.472  0.00  0.00    +0.000 A 
ATOM      5  N   UNL     1       6.658   7.540  17.137  0.00  0.00    +0.000 NA
ATOM      6  C   UNL     1       7.728   7.946  17.814  0.00  0.00    +0.000 A 
ATOM      7  N   UNL     1       8.256   9.193  17.485  0.00  0.00    +0.000 N 
ATOM      8  N   UNL     1       8.318   7.217  18.756  0.00  0.00    +0.000 NA
ATOM      9  H   UNL     1       8.189   4.320  19.893  0.00  0.00    +0.000 HD
ATOM     10  H   UNL     1       9.331   5.592  20.135  0.00  0.00    +0.000 HD
ATOM     11  H   UNL     1       7.789   9.597  16.687  0.00  0.00    +0.000 HD
ENDROOT
BRANCH   7  12
ATOM     12  C   UNL     1       9.000  10.064  18.296  0.00  0.00    +0.000 A 
ATOM     13  C   UNL     1       8.901   9.968  19.693  0.00  0.00    +0.000 A 
ATOM     14  C   UNL     1       9.560  10.884  20.519  0.00  0.00    +0.000 A 
ATOM     15  C   UNL     1      10.326  11.897  19.954  0.00  0.00    +0.000 A 
ATOM     16  F   UNL     1      10.946  12.781  20.745  0.00  0.00    +0.000 F 
ATOM     17  C   UNL     1      10.449  12.009  18.578  0.00  0.00    +0.000 A 
ATOM     18  C   UNL     1       9.781  11.100  17.758  0.00  0.00    +0.000 A 
ENDBRANCH   7  12
BRANCH   4  19
ATOM     19  C   UNL     1       4.936   5.840  16.771  0.00  0.00    +0.000 C 
BRANCH  19  20
ATOM     20  S   UNL     1       3.529   5.709  17.911  0.00  0.00    +0.000 S 
BRANCH  20  21
ATOM     21  C   UNL     1       3.270   3.992  17.922  0.00  0.00    +0.000 A 
ATOM     22  N   UNL     1       4.132   3.076  18.462  0.00  0.00    +0.000 NA
ATOM     23  C   UNL     1       3.537   1.930  18.221  0.00  0.00    +0.000 A 
ATOM     24  N   UNL     1       2.366   2.157  17.568  0.00  0.00    +0.000 N 
ATOM     25  N   UNL     1       2.173   3.468  17.366  0.00  0.00    +0.000 NA
ATOM     26  H   UNL     1       1.672   1.495  17.237  0.00  0.00    +0.000 HD
ENDBRANCH  20  21
ENDBRANCH  19  20
ENDBRANCH   4  19
TORSDOF 4
ENDMDL
MODEL 6
REMARK VINA RESULT:      -7.5      5.180      6.885
REMARK  Name = 
REMARK  4 active torsions:
REMARK  status: ('A' for Active; 'I' for Inactive)
REMARK    1  A    between atoms: C_4  and  C_5
REMARK    2  A    between atoms: C_5  and  S_6
REMARK    3  A    between atoms: S_6  and  C_7
REMARK    4  A    between atoms: N_14  and  C_15
REMARK                            x       y       z     vdW  Elec       q    Type
REMARK                         _______ _______ _______ _____ _____    ______ ____
ROOT
ATOM      1  N   UNL     1       8.387   5.493  20.043  0.00  0.00    +0.000 N 
ATOM      2  C   UNL     1       7.867   6.167  18.957  0.00  0.00    +0.000 A 
ATOM      3  N   UNL     1       6.954   5.561  18.218  0.00  0.00    +0.000 NA
ATOM      4  C   UNL     1       6.489   6.280  17.192  0.00  0.00    +0.000 A 
ATOM      5  N   UNL     1       6.893   7.521  16.894  0.00  0.00    +0.000 NA
ATOM      6  C   UNL     1       7.819   8.034  17.699  0.00  0.00    +0.000 A 
ATOM      7  N   UNL     1       8.271   9.321  17.414  0.00  0.00    +0.000 N 
ATOM      8  N   UNL     1       8.338   7.376  18.731  0.00  0.00    +0.000 NA
ATOM      9  H   UNL     1       8.320   4.494  19.913  0.00  0.00    +0.000 HD
ATOM     10  H   UNL     1       9.297   5.871  20.275  0.00  0.00    +0.000 HD
ATOM     11  H   UNL     1       7.883   9.669  16.549  0.00  0.00    +0.000 HD
ENDROOT
BRANCH   7  12
ATOM     12  C   UNL     1       8.813  10.268  18.296  0.00  0.00    +0.000 A 
ATOM     13  C   UNL     1       9.114   9.897  19.615  0.00  0.00    +0.000 A 
ATOM     14  C   UNL     1       9.567  10.846  20.537  0.00  0.00    +0.000 A 
ATOM     15  C   UNL     1       9.730  12.169  20.143  0.00  0.00    +0.000 A 
ATOM     16  F   UNL     1      10.151  13.079  21.030  0.00  0.00    +0.000 F 
ATOM     17  C   UNL     1       9.449  12.561  18.844  0.00  0.00    +0.000 A 
ATOM     18  C   UNL     1       8.986  11.614  17.931  0.00  0.00    +0.000 A 
ENDBRANCH   7  12
BRANCH   4  19
ATOM     19  C   UNL     1       5.401   5.661  16.342  0.00  0.00    +0.000 C 
BRANCH  19  20
ATOM     20  S   UNL     1       5.870   4.016  15.737  0.00  0.00    +0.000 S 
BRANCH  20  21
ATOM     21  C   UNL     1       6.640   4.423  14.234  0.00  0.00    +0.000 A 
ATOM     22  N   UNL     1       6.397   3.800  13.039  0.00  0.00    +0.000 NA
ATOM     23  C   UNL     1       7.206   4.420  12.211  0.00  0.00    +0.000 A 
ATOM     24  N   UNL     1       7.898   5.376  12.886  0.00  0.00    +0.000 N 
ATOM     25  N   UNL     1       7.553   5.398  14.181  0.00  0.00    +0.000 NA
ATOM     26  H   UNL     1       8.598   6.028  12.548  0.00  0.00    +0.000 HD
ENDBRANCH  20  21
ENDBRANCH  19  20
ENDBRANCH   4  19
TORSDOF 4
ENDMDL
MODEL 7
REMARK VINA RESULT:      -7.4      3.900      6.543
REMARK  Name = 
REMARK  4 active torsions:
REMARK  status: ('A' for Active; 'I' for Inactive)
REMARK    1  A    between atoms: C_4  and  C_5
REMARK    2  A    between atoms: C_5  and  S_6
REMARK    3  A    between atoms: S_6  and  C_7
REMARK    4  A    between atoms: N_14  and  C_15
REMARK                            x       y       z     vdW  Elec       q    Type
REMARK                         _______ _______ _______ _____ _____    ______ ____
ROOT
ATOM      1  N   UNL     1       5.891   5.740  14.968  0.00  0.00    +0.000 N 
ATOM      2  C   UNL     1       6.223   5.815  16.305  0.00  0.00    +0.000 A 
ATOM      3  N   UNL     1       7.133   6.697  16.680  0.00  0.00    +0.000 NA
ATOM      4  C   UNL     1       7.393   6.719  17.991  0.00  0.00    +0.000 A 
ATOM      5  N   UNL     1       6.806   5.922  18.892  0.00  0.00    +0.000 NA
ATOM      6  C   UNL     1       5.910   5.067  18.406  0.00  0.00    +0.000 A 
ATOM      7  N   UNL     1       5.285   4.214  19.314  0.00  0.00    +0.000 N 
ATOM      8  N   UNL     1       5.607   4.978  17.115  0.00  0.00    +0.000 NA
ATOM      9  H   UNL     1       6.651   6.066  14.389  0.00  0.00    +0.000 HD
ATOM     10  H   UNL     1       5.510   4.825  14.762  0.00  0.00    +0.000 HD
ATOM     11  H   UNL     1       5.676   4.303  20.240  0.00  0.00    +0.000 HD
ENDROOT
BRANCH   7  12
ATOM     12  C   UNL     1       4.024   3.607  19.211  0.00  0.00    +0.000 A 
ATOM     13  C   UNL     1       3.818   2.587  18.271  0.00  0.00    +0.000 A 
ATOM     14  C   UNL     1       2.547   2.033  18.086  0.00  0.00    +0.000 A 
ATOM     15  C   UNL     1       1.477   2.491  18.846  0.00  0.00    +0.000 A 
ATOM     16  F   UNL     1       0.258   1.969  18.660  0.00  0.00    +0.000 F 
ATOM     17  C   UNL     1       1.655   3.491  19.789  0.00  0.00    +0.000 A 
ATOM     18  C   UNL     1       2.921   4.048  19.962  0.00  0.00    +0.000 A 
ENDBRANCH   7  12
BRANCH   4  19
ATOM     19  C   UNL     1       8.385   7.748  18.489  0.00  0.00    +0.000 C 
BRANCH  19  20
ATOM     20  S   UNL     1       8.082   9.384  17.763  0.00  0.00    +0.000 S 
BRANCH  20  21
ATOM     21  C   UNL     1       9.224  10.353  18.642  0.00  0.00    +0.000 A 
ATOM     22  N   UNL     1      10.192  11.132  18.067  0.00  0.00    +0.000 NA
ATOM     23  C   UNL     1      10.811  11.649  19.104  0.00  0.00    +0.000 A 
ATOM     24  N   UNL     1      10.231  11.199  20.248  0.00  0.00    +0.000 N 
ATOM     25  N   UNL     1       9.213  10.370  19.979  0.00  0.00    +0.000 NA
ATOM     26  H   UNL     1      10.464  11.403  21.215  0.00  0.00    +0.000 HD
ENDBRANCH  20  21
ENDBRANCH  19  20
ENDBRANCH   4  19
TORSDOF 4
ENDMDL
MODEL 8
REMARK VINA RESULT:      -7.4      5.277      7.955
REMARK  Name = 
REMARK  4 active torsions:
REMARK  status: ('A' for Active; 'I' for Inactive)
REMARK    1  A    between atoms: C_4  and  C_5
REMARK    2  A    between atoms: C_5  and  S_6
REMARK    3  A    between atoms: S_6  and  C_7
REMARK    4  A    between atoms: N_14  and  C_15
REMARK                            x       y       z     vdW  Elec       q    Type
REMARK                         _______ _______ _______ _____ _____    ______ ____
ROOT
ATOM      1  N   UNL     1       8.376   5.397  19.926  0.00  0.00    +0.000 N 
ATOM      2  C   UNL     1       7.802   6.189  18.953  0.00  0.00    +0.000 A 
ATOM      3  N   UNL     1       6.731   5.739  18.324  0.00  0.00    +0.000 NA
ATOM      4  C   UNL     1       6.226   6.566  17.404  0.00  0.00    +0.000 A 
ATOM      5  N   UNL     1       6.736   7.767  17.106  0.00  0.00    +0.000 NA
ATOM      6  C   UNL     1       7.817   8.120  17.795  0.00  0.00    +0.000 A 
ATOM      7  N   UNL     1       8.382   9.361  17.504  0.00  0.00    +0.000 N 
ATOM      8  N   UNL     1       8.385   7.347  18.715  0.00  0.00    +0.000 NA
ATOM      9  H   UNL     1       8.170   4.422  19.764  0.00  0.00    +0.000 HD
ATOM     10  H   UNL     1       9.348   5.652  20.044  0.00  0.00    +0.000 HD
ATOM     11  H   UNL     1       7.928   9.803  16.718  0.00  0.00    +0.000 HD
ENDROOT
BRANCH   7  12
ATOM     12  C   UNL     1       9.150  10.185  18.341  0.00  0.00    +0.000 A 
ATOM     13  C   UNL     1       8.934  10.162  19.727  0.00  0.00    +0.000 A 
ATOM     14  C   UNL     1       9.622  11.040  20.571  0.00  0.00    +0.000 A 
ATOM     15  C   UNL     1      10.535  11.941  20.034  0.00  0.00    +0.000 A 
ATOM     16  F   UNL     1      11.183  12.790  20.841  0.00  0.00    +0.000 F 
ATOM     17  C   UNL     1      10.774  11.978  18.670  0.00  0.00    +0.000 A 
ATOM     18  C   UNL     1      10.077  11.109  17.831  0.00  0.00    +0.000 A 
ENDBRANCH   7  12
BRANCH   4  19
ATOM     19  C   UNL     1       4.965   6.130  16.690  0.00  0.00    +0.000 C 
BRANCH  19  20
ATOM     20  S   UNL     1       4.815   4.322  16.630  0.00  0.00    +0.000 S 
BRANCH  20  21
ATOM     21  C   UNL     1       3.388   4.076  17.590  0.00  0.00    +0.000 A 
ATOM     22  N   UNL     1       2.239   3.482  17.142  0.00  0.00    +0.000 NA
ATOM     23  C   UNL     1       1.449   3.536  18.189  0.00  0.00    +0.000 A 
ATOM     24  N   UNL     1       2.104   4.134  19.220  0.00  0.00    +0.000 N 
ATOM     25  N   UNL     1       3.346   4.488  18.861  0.00  0.00    +0.000 NA
ATOM     26  H   UNL     1       1.784   4.332  20.162  0.00  0.00    +0.000 HD
ENDBRANCH  20  21
ENDBRANCH  19  20
ENDBRANCH   4  19
TORSDOF 4
ENDMDL
MODEL 9
REMARK VINA RESULT:      -7.4      3.678      5.435
REMARK  Name = 
REMARK  4 active torsions:
REMARK  status: ('A' for Active; 'I' for Inactive)
REMARK    1  A    between atoms: C_4  and  C_5
REMARK    2  A    between atoms: C_5  and  S_6
REMARK    3  A    between atoms: S_6  and  C_7
REMARK    4  A    between atoms: N_14  and  C_15
REMARK                            x       y       z     vdW  Elec       q    Type
REMARK                         _______ _______ _______ _____ _____    ______ ____
ROOT
ATOM      1  N   UNL     1       0.618   3.230  19.122  0.00  0.00    +0.000 N 
ATOM      2  C   UNL     1       1.780   3.969  19.206  0.00  0.00    +0.000 A 
ATOM      3  N   UNL     1       2.913   3.409  18.819  0.00  0.00    +0.000 NA
ATOM      4  C   UNL     1       3.993   4.189  18.919  0.00  0.00    +0.000 A 
ATOM      5  N   UNL     1       3.977   5.447  19.376  0.00  0.00    +0.000 NA
ATOM      6  C   UNL     1       2.785   5.910  19.744  0.00  0.00    +0.000 A 
ATOM      7  N   UNL     1       2.731   7.214  20.234  0.00  0.00    +0.000 N 
ATOM      8  N   UNL     1       1.669   5.191  19.686  0.00  0.00    +0.000 NA
ATOM      9  H   UNL     1       0.816   2.241  19.165  0.00  0.00    +0.000 HD
ATOM     10  H   UNL     1      -0.066   3.594  19.772  0.00  0.00    +0.000 HD
ATOM     11  H   UNL     1       3.653   7.615  20.330  0.00  0.00    +0.000 HD
ENDROOT
BRANCH   7  12
ATOM     12  C   UNL     1       1.647   8.105  20.218  0.00  0.00    +0.000 A 
ATOM     13  C   UNL     1       1.431   8.917  19.094  0.00  0.00    +0.000 A 
ATOM     14  C   UNL     1       0.415   9.877  19.093  0.00  0.00    +0.000 A 
ATOM     15  C   UNL     1      -0.396  10.026  20.212  0.00  0.00    +0.000 A 
ATOM     16  F   UNL     1      -1.361  10.955  20.215  0.00  0.00    +0.000 F 
ATOM     17  C   UNL     1      -0.211   9.231  21.332  0.00  0.00    +0.000 A 
ATOM     18  C   UNL     1       0.812   8.283  21.333  0.00  0.00    +0.000 A 
ENDBRANCH   7  12
BRANCH   4  19
ATOM     19  C   UNL     1       5.311   3.623  18.438  0.00  0.00    +0.000 C 
BRANCH  19  20
ATOM     20  S   UNL     1       6.535   4.928  18.134  0.00  0.00    +0.000 S 
BRANCH  20  21
ATOM     21  C   UNL     1       6.713   4.820  16.410  0.00  0.00    +0.000 A 
ATOM     22  N   UNL     1       6.089   3.894  15.617  0.00  0.00    +0.000 NA
ATOM     23  C   UNL     1       6.533   4.184  14.416  0.00  0.00    +0.000 A 
ATOM     24  N   UNL     1       7.383   5.242  14.491  0.00  0.00    +0.000 N 
ATOM     25  N   UNL     1       7.513   5.667  15.756  0.00  0.00    +0.000 NA
ATOM     26  H   UNL     1       7.896   5.713  13.753  0.00  0.00    +0.000 HD
ENDBRANCH  20  21
ENDBRANCH  19  20
ENDBRANCH   4  19
TORSDOF 4
ENDMDL
