MODEL 1
REMARK VINA RESULT:      -6.5      0.000      0.000
REMARK  Name = 
REMARK  10 active torsions:
REMARK  status: ('A' for Active; 'I' for Inactive)
REMARK    1  A    between atoms: C_1  and  C_2
REMARK    2  A    between atoms: C_2  and  C_3
REMARK    3  A    between atoms: C_2  and  C_4
REMARK    4  A    between atoms: C_2  and  C_5
REMARK    5  A    between atoms: C_8  and  C_9
REMARK    6  A    between atoms: C_10  and  C_11
REMARK    7  A    between atoms: C_11  and  O_13
REMARK    8  A    between atoms: C_16  and  C_17
REMARK    9  A    between atoms: N_24  and  S_25
REMARK   10  A    between atoms: S_25  and  C_26
REMARK                            x       y       z     vdW  Elec       q    Type
REMARK                         _______ _______ _______ _____ _____    ______ ____
ROOT
ATOM      1  C   UNL     1       0.493  11.358  21.582  0.00  0.00    +0.000 C 
ATOM      2  C   UNL     1       0.477   9.833  21.711  0.00  0.00    +0.000 C 
ATOM      3  C   UNL     1       0.921   8.984  20.763  0.00  0.00    +0.000 C 
ATOM      4  C   UNL     1       1.409   9.479  19.431  0.00  0.00    +0.000 C 
ATOM      5  C   UNL     1       0.910  10.898  19.065  0.00  0.00    +0.000 C 
ATOM      6  N   UNL     1       1.109  11.773  20.263  0.00  0.00    +0.000 NA
ENDROOT
BRANCH   5   7
ATOM      7  C   UNL     1      -0.478  10.961  18.429  0.00  0.00    +0.000 A 
ATOM      8  C   UNL     1      -1.026  12.125  17.869  0.00  0.00    +0.000 A 
ATOM      9  C   UNL     1      -2.188  12.071  17.089  0.00  0.00    +0.000 A 
ATOM     10  C   UNL     1      -2.846  10.861  16.906  0.00  0.00    +0.000 A 
ATOM     11 CL   UNL     1      -4.182  10.765  15.829  0.00  0.00    +0.000 Cl
ATOM     12  C   UNL     1      -2.408   9.728  17.575  0.00  0.00    +0.000 A 
ATOM     13  C   UNL     1      -1.246   9.787  18.348  0.00  0.00    +0.000 A 
ENDBRANCH   5   7
BRANCH   1  17
ATOM     14  C   UNL     1      -3.441  13.083  22.469  0.00  0.00    +0.000 A 
ATOM     15  C   UNL     1      -3.197  12.426  21.255  0.00  0.00    +0.000 A 
ATOM     16  C   UNL     1      -1.927  11.907  20.957  0.00  0.00    +0.000 A 
ATOM     17  C   UNL     1      -0.862  12.011  21.863  0.00  0.00    +0.000 A 
ATOM     18  C   UNL     1      -1.091  12.747  23.026  0.00  0.00    +0.000 A 
ATOM     19  C   UNL     1      -2.349  13.266  23.325  0.00  0.00    +0.000 A 
BRANCH  14  21
ATOM     20  C   UNL     1      -4.908  15.092  23.138  0.00  0.00    +0.000 C 
ATOM     21  C   UNL     1      -4.827  13.568  22.914  0.00  0.00    +0.000 C 
ATOM     22  C   UNL     1      -5.231  12.878  24.234  0.00  0.00    +0.000 C 
ATOM     23  C   UNL     1      -5.857  13.202  21.820  0.00  0.00    +0.000 C 
ENDBRANCH  14  21
ENDBRANCH   1  17
BRANCH   6  24
ATOM     24  S   UNL     1       1.595  13.377  20.107  0.00  0.00    +0.000 S 
ATOM     25  C   UNL     1       2.611  13.348  18.650  0.00  0.00    +0.000 C 
ATOM     26  O   UNL     1       0.457  14.215  19.818  0.00  0.00    +0.000 OA
ATOM     27  O   UNL     1       2.502  13.700  21.190  0.00  0.00    +0.000 OA
ENDBRANCH   6  24
BRANCH   2  28
ATOM     28  C   UNL     1       0.006   9.324  23.029  0.00  0.00    +0.000 C 
ATOM     29  O   UNL     1       0.528   9.629  24.087  0.00  0.00    +0.000 OA
BRANCH  28  30
ATOM     30  O   UNL     1      -1.076   8.523  22.960  0.00  0.00    +0.000 OA
ATOM     31  H   UNL     1      -1.056   7.840  22.268  0.00  0.00    +0.000 HD
ENDBRANCH  28  30
ENDBRANCH   2  28
TORSDOF 6
ENDMDL
MODEL 2
REMARK VINA RESULT:      -6.4      0.869      1.311
REMARK  Name = 
REMARK  10 active torsions:
REMARK  status: ('A' for Active; 'I' for Inactive)
REMARK    1  A    between atoms: C_1  and  C_2
REMARK    2  A    between atoms: C_2  and  C_3
REMARK    3  A    between atoms: C_2  and  C_4
REMARK    4  A    between atoms: C_2  and  C_5
REMARK    5  A    between atoms: C_8  and  C_9
REMARK    6  A    between atoms: C_10  and  C_11
REMARK    7  A    between atoms: C_11  and  O_13
REMARK    8  A    between atoms: C_16  and  C_17
REMARK    9  A    between atoms: N_24  and  S_25
REMARK   10  A    between atoms: S_25  and  C_26
REMARK                            x       y       z     vdW  Elec       q    Type
REMARK                         _______ _______ _______ _____ _____    ______ ____
ROOT
ATOM      1  C   UNL     1       0.685  11.302  21.393  0.00  0.00    +0.000 C 
ATOM      2  C   UNL     1       0.553   9.790  21.596  0.00  0.00    +0.000 C 
ATOM      3  C   UNL     1       0.795   8.870  20.642  0.00  0.00    +0.000 C 
ATOM      4  C   UNL     1       1.148   9.269  19.237  0.00  0.00    +0.000 C 
ATOM      5  C   UNL     1       0.731  10.714  18.869  0.00  0.00    +0.000 C 
ATOM      6  N   UNL     1       1.159  11.610  19.988  0.00  0.00    +0.000 NA
ENDROOT
BRANCH   5   7
ATOM      7  C   UNL     1      -0.716  10.881  18.410  0.00  0.00    +0.000 A 
ATOM      8  C   UNL     1      -1.533   9.815  18.003  0.00  0.00    +0.000 A 
ATOM      9  C   UNL     1      -2.911   9.989  17.828  0.00  0.00    +0.000 A 
ATOM     10  C   UNL     1      -3.480  11.244  18.003  0.00  0.00    +0.000 A 
ATOM     11 CL   UNL     1      -5.188  11.430  17.936  0.00  0.00    +0.000 Cl
ATOM     12  C   UNL     1      -2.670  12.342  18.254  0.00  0.00    +0.000 A 
ATOM     13  C   UNL     1      -1.297  12.161  18.433  0.00  0.00    +0.000 A 
ENDBRANCH   5   7
BRANCH   1  17
ATOM     14  C   UNL     1      -2.876  13.476  22.745  0.00  0.00    +0.000 A 
ATOM     15  C   UNL     1      -2.990  12.261  22.057  0.00  0.00    +0.000 A 
ATOM     16  C   UNL     1      -1.851  11.584  21.592  0.00  0.00    +0.000 A 
ATOM     17  C   UNL     1      -0.560  12.088  21.810  0.00  0.00    +0.000 A 
ATOM     18  C   UNL     1      -0.465  13.342  22.413  0.00  0.00    +0.000 A 
ATOM     19  C   UNL     1      -1.592  14.018  22.874  0.00  0.00    +0.000 A 
BRANCH  14  21
ATOM     20  C   UNL     1      -4.754  15.213  22.441  0.00  0.00    +0.000 C 
ATOM     21  C   UNL     1      -4.062  14.209  23.385  0.00  0.00    +0.000 C 
ATOM     22  C   UNL     1      -3.594  14.985  24.635  0.00  0.00    +0.000 C 
ATOM     23  C   UNL     1      -5.121  13.164  23.811  0.00  0.00    +0.000 C 
ENDBRANCH  14  21
ENDBRANCH   1  17
BRANCH   6  24
ATOM     24  S   UNL     1       1.759  13.155  19.695  0.00  0.00    +0.000 S 
ATOM     25  C   UNL     1       2.710  12.940  18.211  0.00  0.00    +0.000 C 
ATOM     26  O   UNL     1       0.677  14.057  19.385  0.00  0.00    +0.000 OA
ATOM     27  O   UNL     1       2.731  13.483  20.719  0.00  0.00    +0.000 OA
ENDBRANCH   6  24
BRANCH   2  28
ATOM     28  C   UNL     1       0.214   9.377  22.986  0.00  0.00    +0.000 C 
ATOM     29  O   UNL     1       0.889   9.675  23.956  0.00  0.00    +0.000 OA
BRANCH  28  30
ATOM     30  O   UNL     1      -0.930   8.671  23.092  0.00  0.00    +0.000 OA
ATOM     31  H   UNL     1      -0.923   7.945  23.739  0.00  0.00    +0.000 HD
ENDBRANCH  28  30
ENDBRANCH   2  28
TORSDOF 6
ENDMDL
MODEL 3
REMARK VINA RESULT:      -6.4      1.183      1.501
REMARK  Name = 
REMARK  10 active torsions:
REMARK  status: ('A' for Active; 'I' for Inactive)
REMARK    1  A    between atoms: C_1  and  C_2
REMARK    2  A    between atoms: C_2  and  C_3
REMARK    3  A    between atoms: C_2  and  C_4
REMARK    4  A    between atoms: C_2  and  C_5
REMARK    5  A    between atoms: C_8  and  C_9
REMARK    6  A    between atoms: C_10  and  C_11
REMARK    7  A    between atoms: C_11  and  O_13
REMARK    8  A    between atoms: C_16  and  C_17
REMARK    9  A    between atoms: N_24  and  S_25
REMARK   10  A    between atoms: S_25  and  C_26
REMARK                            x       y       z     vdW  Elec       q    Type
REMARK                         _______ _______ _______ _____ _____    ______ ____
ROOT
ATOM      1  C   UNL     1       0.827  11.518  21.123  0.00  0.00    +0.000 C 
ATOM      2  C   UNL     1       0.898   9.995  21.266  0.00  0.00    +0.000 C 
ATOM      3  C   UNL     1       1.006   9.137  20.233  0.00  0.00    +0.000 C 
ATOM      4  C   UNL     1       0.984   9.615  18.809  0.00  0.00    +0.000 C 
ATOM      5  C   UNL     1       0.352  11.016  18.624  0.00  0.00    +0.000 C 
ATOM      6  N   UNL     1       0.933  11.919  19.666  0.00  0.00    +0.000 NA
ENDROOT
BRANCH   5   7
ATOM      7  C   UNL     1      -1.172  11.037  18.513  0.00  0.00    +0.000 A 
ATOM      8  C   UNL     1      -1.967  12.127  18.899  0.00  0.00    +0.000 A 
ATOM      9  C   UNL     1      -3.322  12.190  18.553  0.00  0.00    +0.000 A 
ATOM     10  C   UNL     1      -3.912  11.137  17.863  0.00  0.00    +0.000 A 
ATOM     11 CL   UNL     1      -5.532  11.276  17.306  0.00  0.00    +0.000 Cl
ATOM     12  C   UNL     1      -3.184   9.985  17.606  0.00  0.00    +0.000 A 
ATOM     13  C   UNL     1      -1.831   9.930  17.950  0.00  0.00    +0.000 A 
ENDBRANCH   5   7
BRANCH   1  17
ATOM     14  C   UNL     1      -2.525  13.247  23.360  0.00  0.00    +0.000 A 
ATOM     15  C   UNL     1      -2.662  12.029  22.681  0.00  0.00    +0.000 A 
ATOM     16  C   UNL     1      -1.599  11.494  21.934  0.00  0.00    +0.000 A 
ATOM     17  C   UNL     1      -0.361  12.148  21.852  0.00  0.00    +0.000 A 
ATOM     18  C   UNL     1      -0.267  13.402  22.455  0.00  0.00    +0.000 A 
ATOM     19  C   UNL     1      -1.319  13.937  23.195  0.00  0.00    +0.000 A 
BRANCH  14  21
ATOM     20  C   UNL     1      -4.635  14.710  23.565  0.00  0.00    +0.000 C 
ATOM     21  C   UNL     1      -3.597  13.830  24.290  0.00  0.00    +0.000 C 
ATOM     22  C   UNL     1      -2.935  14.693  25.386  0.00  0.00    +0.000 C 
ATOM     23  C   UNL     1      -4.361  12.665  24.962  0.00  0.00    +0.000 C 
ENDBRANCH  14  21
ENDBRANCH   1  17
BRANCH   6  24
ATOM     24  S   UNL     1       1.291  13.529  19.331  0.00  0.00    +0.000 S 
ATOM     25  C   UNL     1       2.280  13.422  17.860  0.00  0.00    +0.000 C 
ATOM     26  O   UNL     1       0.086  14.244  18.987  0.00  0.00    +0.000 OA
ATOM     27  O   UNL     1       2.189  14.032  20.352  0.00  0.00    +0.000 OA
ENDBRANCH   6  24
BRANCH   2  28
ATOM     28  C   UNL     1       0.931   9.504  22.672  0.00  0.00    +0.000 C 
ATOM     29  O   UNL     1      -0.069   9.196  23.296  0.00  0.00    +0.000 OA
BRANCH  28  30
ATOM     30  O   UNL     1       2.171   9.390  23.191  0.00  0.00    +0.000 OA
ATOM     31  H   UNL     1       2.904   9.615  22.593  0.00  0.00    +0.000 HD
ENDBRANCH  28  30
ENDBRANCH   2  28
TORSDOF 6
ENDMDL
MODEL 4
REMARK VINA RESULT:      -6.4      0.522      1.134
REMARK  Name = 
REMARK  10 active torsions:
REMARK  status: ('A' for Active; 'I' for Inactive)
REMARK    1  A    between atoms: C_1  and  C_2
REMARK    2  A    between atoms: C_2  and  C_3
REMARK    3  A    between atoms: C_2  and  C_4
REMARK    4  A    between atoms: C_2  and  C_5
REMARK    5  A    between atoms: C_8  and  C_9
REMARK    6  A    between atoms: C_10  and  C_11
REMARK    7  A    between atoms: C_11  and  O_13
REMARK    8  A    between atoms: C_16  and  C_17
REMARK    9  A    between atoms: N_24  and  S_25
REMARK   10  A    between atoms: S_25  and  C_26
REMARK                            x       y       z     vdW  Elec       q    Type
REMARK                         _______ _______ _______ _____ _____    ______ ____
ROOT
ATOM      1  C   UNL     1       0.597  11.317  21.536  0.00  0.00    +0.000 C 
ATOM      2  C   UNL     1       0.506   9.796  21.692  0.00  0.00    +0.000 C 
ATOM      3  C   UNL     1       0.874   8.910  20.745  0.00  0.00    +0.000 C 
ATOM      4  C   UNL     1       1.342   9.358  19.389  0.00  0.00    +0.000 C 
ATOM      5  C   UNL     1       0.905  10.795  19.015  0.00  0.00    +0.000 C 
ATOM      6  N   UNL     1       1.189  11.677  20.190  0.00  0.00    +0.000 NA
ENDROOT
BRANCH   5   7
ATOM      7  C   UNL     1      -0.498  10.920  18.424  0.00  0.00    +0.000 A 
ATOM      8  C   UNL     1      -1.027  12.118  17.918  0.00  0.00    +0.000 A 
ATOM      9  C   UNL     1      -2.212  12.125  17.172  0.00  0.00    +0.000 A 
ATOM     10  C   UNL     1      -2.912  10.941  16.970  0.00  0.00    +0.000 A 
ATOM     11 CL   UNL     1      -4.281  10.921  15.932  0.00  0.00    +0.000 Cl
ATOM     12  C   UNL     1      -2.490   9.774  17.589  0.00  0.00    +0.000 A 
ATOM     13  C   UNL     1      -1.304   9.773  18.328  0.00  0.00    +0.000 A 
ENDBRANCH   5   7
BRANCH   1  17
ATOM     14  C   UNL     1      -3.115  13.519  22.314  0.00  0.00    +0.000 A 
ATOM     15  C   UNL     1      -1.957  13.769  23.062  0.00  0.00    +0.000 A 
ATOM     16  C   UNL     1      -0.779  13.037  22.837  0.00  0.00    +0.000 A 
ATOM     17  C   UNL     1      -0.712  12.044  21.849  0.00  0.00    +0.000 A 
ATOM     18  C   UNL     1      -1.895  11.742  21.176  0.00  0.00    +0.000 A 
ATOM     19  C   UNL     1      -3.067  12.463  21.397  0.00  0.00    +0.000 A 
BRANCH  14  21
ATOM     20  C   UNL     1      -4.644  14.937  23.827  0.00  0.00    +0.000 C 
ATOM     21  C   UNL     1      -4.396  14.356  22.420  0.00  0.00    +0.000 C 
ATOM     22  C   UNL     1      -5.623  13.498  22.044  0.00  0.00    +0.000 C 
ATOM     23  C   UNL     1      -4.296  15.546  21.435  0.00  0.00    +0.000 C 
ENDBRANCH  14  21
ENDBRANCH   1  17
BRANCH   6  24
ATOM     24  S   UNL     1       1.752  13.251  19.989  0.00  0.00    +0.000 S 
ATOM     25  C   UNL     1       2.671  13.157  18.472  0.00  0.00    +0.000 C 
ATOM     26  O   UNL     1       0.646  14.150  19.765  0.00  0.00    +0.000 OA
ATOM     27  O   UNL     1       2.742  13.529  21.011  0.00  0.00    +0.000 OA
ENDBRANCH   6  24
BRANCH   2  28
ATOM     28  C   UNL     1       0.054   9.335  23.034  0.00  0.00    +0.000 C 
ATOM     29  O   UNL     1       0.601   9.663  24.072  0.00  0.00    +0.000 OA
BRANCH  28  30
ATOM     30  O   UNL     1      -1.041   8.548  23.010  0.00  0.00    +0.000 OA
ATOM     31  H   UNL     1      -1.846   8.952  22.646  0.00  0.00    +0.000 HD
ENDBRANCH  28  30
ENDBRANCH   2  28
TORSDOF 6
ENDMDL
MODEL 5
REMARK VINA RESULT:      -6.4      0.552      1.021
REMARK  Name = 
REMARK  10 active torsions:
REMARK  status: ('A' for Active; 'I' for Inactive)
REMARK    1  A    between atoms: C_1  and  C_2
REMARK    2  A    between atoms: C_2  and  C_3
REMARK    3  A    between atoms: C_2  and  C_4
REMARK    4  A    between atoms: C_2  and  C_5
REMARK    5  A    between atoms: C_8  and  C_9
REMARK    6  A    between atoms: C_10  and  C_11
REMARK    7  A    between atoms: C_11  and  O_13
REMARK    8  A    between atoms: C_16  and  C_17
REMARK    9  A    between atoms: N_24  and  S_25
REMARK   10  A    between atoms: S_25  and  C_26
REMARK                            x       y       z     vdW  Elec       q    Type
REMARK                         _______ _______ _______ _____ _____    ______ ____
ROOT
ATOM      1  C   UNL     1       0.690  11.328  21.475  0.00  0.00    +0.000 C 
ATOM      2  C   UNL     1       0.584   9.812  21.668  0.00  0.00    +0.000 C 
ATOM      3  C   UNL     1       0.891   8.901  20.724  0.00  0.00    +0.000 C 
ATOM      4  C   UNL     1       1.300   9.312  19.338  0.00  0.00    +0.000 C 
ATOM      5  C   UNL     1       0.867  10.748  18.954  0.00  0.00    +0.000 C 
ATOM      6  N   UNL     1       1.222  11.650  20.094  0.00  0.00    +0.000 NA
ENDROOT
BRANCH   5   7
ATOM      7  C   UNL     1      -0.561  10.883  18.428  0.00  0.00    +0.000 A 
ATOM      8  C   UNL     1      -1.193  12.115  18.198  0.00  0.00    +0.000 A 
ATOM      9  C   UNL     1      -2.400  12.185  17.493  0.00  0.00    +0.000 A 
ATOM     10  C   UNL     1      -3.018  11.019  17.056  0.00  0.00    +0.000 A 
ATOM     11 CL   UNL     1      -4.417  11.109  16.062  0.00  0.00    +0.000 Cl
ATOM     12  C   UNL     1      -2.490   9.785  17.405  0.00  0.00    +0.000 A 
ATOM     13  C   UNL     1      -1.283   9.722  18.105  0.00  0.00    +0.000 A 
ENDBRANCH   5   7
BRANCH   1  17
ATOM     14  C   UNL     1      -3.003  13.384  22.643  0.00  0.00    +0.000 A 
ATOM     15  C   UNL     1      -3.023  12.340  21.709  0.00  0.00    +0.000 A 
ATOM     16  C   UNL     1      -1.836  11.706  21.308  0.00  0.00    +0.000 A 
ATOM     17  C   UNL     1      -0.591  12.082  21.835  0.00  0.00    +0.000 A 
ATOM     18  C   UNL     1      -0.575  13.183  22.692  0.00  0.00    +0.000 A 
ATOM     19  C   UNL     1      -1.750  13.816  23.091  0.00  0.00    +0.000 A 
BRANCH  14  21
ATOM     20  C   UNL     1      -5.217  13.047  23.917  0.00  0.00    +0.000 C 
ATOM     21  C   UNL     1      -4.266  14.040  23.217  0.00  0.00    +0.000 C 
ATOM     22  C   UNL     1      -5.061  14.736  22.092  0.00  0.00    +0.000 C 
ATOM     23  C   UNL     1      -3.846  15.099  24.264  0.00  0.00    +0.000 C 
ENDBRANCH  14  21
ENDBRANCH   1  17
BRANCH   6  24
ATOM     24  S   UNL     1       1.798  13.210  19.832  0.00  0.00    +0.000 S 
ATOM     25  C   UNL     1       2.633  13.071  18.271  0.00  0.00    +0.000 C 
ATOM     26  O   UNL     1       0.696  14.123  19.650  0.00  0.00    +0.000 OA
ATOM     27  O   UNL     1       2.845  13.490  20.795  0.00  0.00    +0.000 OA
ENDBRANCH   6  24
BRANCH   2  28
ATOM     28  C   UNL     1       0.190   9.386  23.040  0.00  0.00    +0.000 C 
ATOM     29  O   UNL     1       0.838   9.658  24.035  0.00  0.00    +0.000 OA
BRANCH  28  30
ATOM     30  O   UNL     1      -0.971   8.703  23.097  0.00  0.00    +0.000 OA
ATOM     31  H   UNL     1      -0.993   7.861  22.610  0.00  0.00    +0.000 HD
ENDBRANCH  28  30
ENDBRANCH   2  28
TORSDOF 6
ENDMDL
MODEL 6
REMARK VINA RESULT:      -6.4      0.827      1.653
REMARK  Name = 
REMARK  10 active torsions:
REMARK  status: ('A' for Active; 'I' for Inactive)
REMARK    1  A    between atoms: C_1  and  C_2
REMARK    2  A    between atoms: C_2  and  C_3
REMARK    3  A    between atoms: C_2  and  C_4
REMARK    4  A    between atoms: C_2  and  C_5
REMARK    5  A    between atoms: C_8  and  C_9
REMARK    6  A    between atoms: C_10  and  C_11
REMARK    7  A    between atoms: C_11  and  O_13
REMARK    8  A    between atoms: C_16  and  C_17
REMARK    9  A    between atoms: N_24  and  S_25
REMARK   10  A    between atoms: S_25  and  C_26
REMARK                            x       y       z     vdW  Elec       q    Type
REMARK                         _______ _______ _______ _____ _____    ______ ____
ROOT
ATOM      1  C   UNL     1       0.666  11.312  21.351  0.00  0.00    +0.000 C 
ATOM      2  C   UNL     1       0.556   9.800  21.565  0.00  0.00    +0.000 C 
ATOM      3  C   UNL     1       0.833   8.875  20.625  0.00  0.00    +0.000 C 
ATOM      4  C   UNL     1       1.205   9.266  19.223  0.00  0.00    +0.000 C 
ATOM      5  C   UNL     1       0.771  10.701  18.833  0.00  0.00    +0.000 C 
ATOM      6  N   UNL     1       1.162  11.614  19.952  0.00  0.00    +0.000 NA
ENDROOT
BRANCH   5   7
ATOM      7  C   UNL     1      -0.670  10.839  18.345  0.00  0.00    +0.000 A 
ATOM      8  C   UNL     1      -1.486   9.748  18.007  0.00  0.00    +0.000 A 
ATOM      9  C   UNL     1      -2.861   9.913  17.802  0.00  0.00    +0.000 A 
ATOM     10  C   UNL     1      -3.427  11.180  17.878  0.00  0.00    +0.000 A 
ATOM     11 CL   UNL     1      -5.133  11.365  17.777  0.00  0.00    +0.000 Cl
ATOM     12  C   UNL     1      -2.616  12.290  18.059  0.00  0.00    +0.000 A 
ATOM     13  C   UNL     1      -1.246  12.118  18.268  0.00  0.00    +0.000 A 
ENDBRANCH   5   7
BRANCH   1  17
ATOM     14  C   UNL     1      -2.958  13.591  22.302  0.00  0.00    +0.000 A 
ATOM     15  C   UNL     1      -1.691  14.060  22.675  0.00  0.00    +0.000 A 
ATOM     16  C   UNL     1      -0.534  13.312  22.403  0.00  0.00    +0.000 A 
ATOM     17  C   UNL     1      -0.600  12.079  21.736  0.00  0.00    +0.000 A 
ATOM     18  C   UNL     1      -1.871  11.581  21.453  0.00  0.00    +0.000 A 
ATOM     19  C   UNL     1      -3.022  12.318  21.724  0.00  0.00    +0.000 A 
BRANCH  14  21
ATOM     20  C   UNL     1      -5.238  13.810  23.480  0.00  0.00    +0.000 C 
ATOM     21  C   UNL     1      -4.249  14.405  22.457  0.00  0.00    +0.000 C 
ATOM     22  C   UNL     1      -4.980  14.503  21.101  0.00  0.00    +0.000 C 
ATOM     23  C   UNL     1      -3.885  15.830  22.935  0.00  0.00    +0.000 C 
ENDBRANCH  14  21
ENDBRANCH   1  17
BRANCH   6  24
ATOM     24  S   UNL     1       1.741  13.167  19.656  0.00  0.00    +0.000 S 
ATOM     25  C   UNL     1       2.685  12.964  18.165  0.00  0.00    +0.000 C 
ATOM     26  O   UNL     1       0.646  14.055  19.352  0.00  0.00    +0.000 OA
ATOM     27  O   UNL     1       2.714  13.506  20.674  0.00  0.00    +0.000 OA
ENDBRANCH   6  24
BRANCH   2  28
ATOM     28  C   UNL     1       0.198   9.393  22.952  0.00  0.00    +0.000 C 
ATOM     29  O   UNL     1       0.837   9.730  23.934  0.00  0.00    +0.000 OA
BRANCH  28  30
ATOM     30  O   UNL     1      -0.922   8.646  23.040  0.00  0.00    +0.000 OA
ATOM     31  H   UNL     1      -1.133   8.301  23.924  0.00  0.00    +0.000 HD
ENDBRANCH  28  30
ENDBRANCH   2  28
TORSDOF 6
ENDMDL
MODEL 7
REMARK VINA RESULT:      -6.3      1.244      1.575
REMARK  Name = 
REMARK  10 active torsions:
REMARK  status: ('A' for Active; 'I' for Inactive)
REMARK    1  A    between atoms: C_1  and  C_2
REMARK    2  A    between atoms: C_2  and  C_3
REMARK    3  A    between atoms: C_2  and  C_4
REMARK    4  A    between atoms: C_2  and  C_5
REMARK    5  A    between atoms: C_8  and  C_9
REMARK    6  A    between atoms: C_10  and  C_11
REMARK    7  A    between atoms: C_11  and  O_13
REMARK    8  A    between atoms: C_16  and  C_17
REMARK    9  A    between atoms: N_24  and  S_25
REMARK   10  A    between atoms: S_25  and  C_26
REMARK                            x       y       z     vdW  Elec       q    Type
REMARK                         _______ _______ _______ _____ _____    ______ ____
ROOT
ATOM      1  C   UNL     1       0.874  11.471  21.096  0.00  0.00    +0.000 C 
ATOM      2  C   UNL     1       0.960   9.945  21.184  0.00  0.00    +0.000 C 
ATOM      3  C   UNL     1       1.016   9.123  20.117  0.00  0.00    +0.000 C 
ATOM      4  C   UNL     1       0.915   9.649  18.713  0.00  0.00    +0.000 C 
ATOM      5  C   UNL     1       0.266  11.051  18.611  0.00  0.00    +0.000 C 
ATOM      6  N   UNL     1       0.899  11.922  19.651  0.00  0.00    +0.000 NA
ENDROOT
BRANCH   5   7
ATOM      7  C   UNL     1      -1.261  11.066  18.583  0.00  0.00    +0.000 A 
ATOM      8  C   UNL     1      -2.041  12.106  19.111  0.00  0.00    +0.000 A 
ATOM      9  C   UNL     1      -3.413  12.186  18.844  0.00  0.00    +0.000 A 
ATOM     10  C   UNL     1      -4.032  11.196  18.091  0.00  0.00    +0.000 A 
ATOM     11 CL   UNL     1      -5.681  11.368  17.635  0.00  0.00    +0.000 Cl
ATOM     12  C   UNL     1      -3.313  10.080  17.689  0.00  0.00    +0.000 A 
ATOM     13  C   UNL     1      -1.943  10.009  17.955  0.00  0.00    +0.000 A 
ENDBRANCH   5   7
BRANCH   1  17
ATOM     14  C   UNL     1      -2.498  13.231  23.280  0.00  0.00    +0.000 A 
ATOM     15  C   UNL     1      -1.330  13.967  23.038  0.00  0.00    +0.000 A 
ATOM     16  C   UNL     1      -0.237  13.391  22.372  0.00  0.00    +0.000 A 
ATOM     17  C   UNL     1      -0.276  12.067  21.910  0.00  0.00    +0.000 A 
ATOM     18  C   UNL     1      -1.406  11.318  22.237  0.00  0.00    +0.000 A 
ATOM     19  C   UNL     1      -2.492  11.884  22.900  0.00  0.00    +0.000 A 
BRANCH  14  21
ATOM     20  C   UNL     1      -3.503  14.961  24.902  0.00  0.00    +0.000 C 
ATOM     21  C   UNL     1      -3.772  13.828  23.892  0.00  0.00    +0.000 C 
ATOM     22  C   UNL     1      -4.574  12.729  24.622  0.00  0.00    +0.000 C 
ATOM     23  C   UNL     1      -4.643  14.413  22.755  0.00  0.00    +0.000 C 
ENDBRANCH  14  21
ENDBRANCH   1  17
BRANCH   6  24
ATOM     24  S   UNL     1       1.230  13.545  19.353  0.00  0.00    +0.000 S 
ATOM     25  C   UNL     1       2.214  13.488  17.876  0.00  0.00    +0.000 C 
ATOM     26  O   UNL     1       0.013  14.249  19.030  0.00  0.00    +0.000 OA
ATOM     27  O   UNL     1       2.124  14.037  20.382  0.00  0.00    +0.000 OA
ENDBRANCH   6  24
BRANCH   2  28
ATOM     28  C   UNL     1       1.071   9.406  22.568  0.00  0.00    +0.000 C 
ATOM     29  O   UNL     1       0.122   8.961  23.190  0.00  0.00    +0.000 OA
BRANCH  28  30
ATOM     30  O   UNL     1       2.323   9.416  23.068  0.00  0.00    +0.000 OA
ATOM     31  H   UNL     1       2.393   9.412  24.038  0.00  0.00    +0.000 HD
ENDBRANCH  28  30
ENDBRANCH   2  28
TORSDOF 6
ENDMDL
MODEL 8
REMARK VINA RESULT:      -6.3      7.701     11.440
REMARK  Name = 
REMARK  10 active torsions:
REMARK  status: ('A' for Active; 'I' for Inactive)
REMARK    1  A    between atoms: C_1  and  C_2
REMARK    2  A    between atoms: C_2  and  C_3
REMARK    3  A    between atoms: C_2  and  C_4
REMARK    4  A    between atoms: C_2  and  C_5
REMARK    5  A    between atoms: C_8  and  C_9
REMARK    6  A    between atoms: C_10  and  C_11
REMARK    7  A    between atoms: C_11  and  O_13
REMARK    8  A    between atoms: C_16  and  C_17
REMARK    9  A    between atoms: N_24  and  S_25
REMARK   10  A    between atoms: S_25  and  C_26
REMARK                            x       y       z     vdW  Elec       q    Type
REMARK                         _______ _______ _______ _____ _____    ______ ____
ROOT
ATOM      1  C   UNL     1       9.756  15.458  18.347  0.00  0.00    +0.000 C 
ATOM      2  C   UNL     1      10.292  16.835  18.750  0.00  0.00    +0.000 C 
ATOM      3  C   UNL     1      11.351  17.032  19.559  0.00  0.00    +0.000 C 
ATOM      4  C   UNL     1      12.065  15.883  20.215  0.00  0.00    +0.000 C 
ATOM      5  C   UNL     1      11.225  14.585  20.295  0.00  0.00    +0.000 C 
ATOM      6  N   UNL     1      10.604  14.360  18.953  0.00  0.00    +0.000 NA
ENDROOT
BRANCH   5   7
ATOM      7  C   UNL     1      10.271  14.495  21.485  0.00  0.00    +0.000 A 
ATOM      8  C   UNL     1      10.000  15.567  22.350  0.00  0.00    +0.000 A 
ATOM      9  C   UNL     1       8.944  15.505  23.266  0.00  0.00    +0.000 A 
ATOM     10  C   UNL     1       8.180  14.348  23.368  0.00  0.00    +0.000 A 
ATOM     11 CL   UNL     1       6.793  14.322  24.382  0.00  0.00    +0.000 Cl
ATOM     12  C   UNL     1       8.526  13.224  22.633  0.00  0.00    +0.000 A 
ATOM     13  C   UNL     1       9.578  13.294  21.716  0.00  0.00    +0.000 A 
ENDBRANCH   5   7
BRANCH   1  17
ATOM     14  C   UNL     1       5.432  15.134  19.001  0.00  0.00    +0.000 A 
ATOM     15  C   UNL     1       6.291  15.525  20.036  0.00  0.00    +0.000 A 
ATOM     16  C   UNL     1       7.680  15.593  19.836  0.00  0.00    +0.000 A 
ATOM     17  C   UNL     1       8.256  15.288  18.594  0.00  0.00    +0.000 A 
ATOM     18  C   UNL     1       7.401  14.811  17.601  0.00  0.00    +0.000 A 
ATOM     19  C   UNL     1       6.023  14.740  17.796  0.00  0.00    +0.000 A 
BRANCH  14  21
ATOM     20  C   UNL     1       3.382  15.162  20.562  0.00  0.00    +0.000 C 
ATOM     21  C   UNL     1       3.901  15.153  19.110  0.00  0.00    +0.000 C 
ATOM     22  C   UNL     1       3.305  13.915  18.406  0.00  0.00    +0.000 C 
ATOM     23  C   UNL     1       3.369  16.429  18.416  0.00  0.00    +0.000 C 
ENDBRANCH  14  21
ENDBRANCH   1  17
BRANCH   6  24
ATOM     24  S   UNL     1      10.443  12.813  18.308  0.00  0.00    +0.000 S 
ATOM     25  C   UNL     1      11.814  11.938  19.021  0.00  0.00    +0.000 C 
ATOM     26  O   UNL     1       9.237  12.193  18.800  0.00  0.00    +0.000 OA
ATOM     27  O   UNL     1      10.728  12.866  16.888  0.00  0.00    +0.000 OA
ENDBRANCH   6  24
BRANCH   2  28
ATOM     28  C   UNL     1       9.603  17.985  18.101  0.00  0.00    +0.000 C 
ATOM     29  O   UNL     1       8.656  18.565  18.602  0.00  0.00    +0.000 OA
BRANCH  28  30
ATOM     30  O   UNL     1      10.140  18.360  16.922  0.00  0.00    +0.000 OA
ATOM     31  H   UNL     1      11.046  18.051  16.751  0.00  0.00    +0.000 HD
ENDBRANCH  28  30
ENDBRANCH   2  28
TORSDOF 6
ENDMDL
MODEL 9
REMARK VINA RESULT:      -6.2      0.900      1.286
REMARK  Name = 
REMARK  10 active torsions:
REMARK  status: ('A' for Active; 'I' for Inactive)
REMARK    1  A    between atoms: C_1  and  C_2
REMARK    2  A    between atoms: C_2  and  C_3
REMARK    3  A    between atoms: C_2  and  C_4
REMARK    4  A    between atoms: C_2  and  C_5
REMARK    5  A    between atoms: C_8  and  C_9
REMARK    6  A    between atoms: C_10  and  C_11
REMARK    7  A    between atoms: C_11  and  O_13
REMARK    8  A    between atoms: C_16  and  C_17
REMARK    9  A    between atoms: N_24  and  S_25
REMARK   10  A    between atoms: S_25  and  C_26
REMARK                            x       y       z     vdW  Elec       q    Type
REMARK                         _______ _______ _______ _____ _____    ______ ____
ROOT
ATOM      1  C   UNL     1       0.613  11.350  21.446  0.00  0.00    +0.000 C 
ATOM      2  C   UNL     1       0.532   9.829  21.602  0.00  0.00    +0.000 C 
ATOM      3  C   UNL     1       0.683   8.950  20.592  0.00  0.00    +0.000 C 
ATOM      4  C   UNL     1       0.871   9.408  19.173  0.00  0.00    +0.000 C 
ATOM      5  C   UNL     1       0.390  10.856  18.911  0.00  0.00    +0.000 C 
ATOM      6  N   UNL     1       0.923  11.719  20.010  0.00  0.00    +0.000 NA
ENDROOT
BRANCH   5   7
ATOM      7  C   UNL     1      -1.102  11.008  18.620  0.00  0.00    +0.000 A 
ATOM      8  C   UNL     1      -1.834  12.175  18.891  0.00  0.00    +0.000 A 
ATOM      9  C   UNL     1      -3.128  12.347  18.387  0.00  0.00    +0.000 A 
ATOM     10  C   UNL     1      -3.728  11.332  17.651  0.00  0.00    +0.000 A 
ATOM     11 CL   UNL     1      -5.253  11.598  16.905  0.00  0.00    +0.000 Cl
ATOM     12  C   UNL     1      -3.083  10.113  17.502  0.00  0.00    +0.000 A 
ATOM     13  C   UNL     1      -1.790   9.949  18.004  0.00  0.00    +0.000 A 
ENDBRANCH   5   7
BRANCH   1  17
ATOM     14  C   UNL     1      -2.868  13.547  22.958  0.00  0.00    +0.000 A 
ATOM     15  C   UNL     1      -1.575  14.075  23.073  0.00  0.00    +0.000 A 
ATOM     16  C   UNL     1      -0.457  13.355  22.622  0.00  0.00    +0.000 A 
ATOM     17  C   UNL     1      -0.592  12.091  22.028  0.00  0.00    +0.000 A 
ATOM     18  C   UNL     1      -1.872  11.537  22.004  0.00  0.00    +0.000 A 
ATOM     19  C   UNL     1      -2.983  12.248  22.452  0.00  0.00    +0.000 A 
BRANCH  14  21
ATOM     20  C   UNL     1      -4.760  15.084  22.126  0.00  0.00    +0.000 C 
ATOM     21  C   UNL     1      -4.142  14.323  23.317  0.00  0.00    +0.000 C 
ATOM     22  C   UNL     1      -3.840  15.354  24.426  0.00  0.00    +0.000 C 
ATOM     23  C   UNL     1      -5.204  13.325  23.835  0.00  0.00    +0.000 C 
ENDBRANCH  14  21
ENDBRANCH   1  17
BRANCH   6  24
ATOM     24  S   UNL     1       1.459  13.287  19.714  0.00  0.00    +0.000 S 
ATOM     25  C   UNL     1       2.354  13.123  18.189  0.00  0.00    +0.000 C 
ATOM     26  O   UNL     1       0.336  14.156  19.460  0.00  0.00    +0.000 OA
ATOM     27  O   UNL     1       2.461  13.635  20.702  0.00  0.00    +0.000 OA
ENDBRANCH   6  24
BRANCH   2  28
ATOM     28  C   UNL     1       0.357   9.357  23.004  0.00  0.00    +0.000 C 
ATOM     29  O   UNL     1       1.145   9.609  23.898  0.00  0.00    +0.000 OA
BRANCH  28  30
ATOM     30  O   UNL     1      -0.774   8.652  23.215  0.00  0.00    +0.000 OA
ATOM     31  H   UNL     1      -1.384   9.017  23.878  0.00  0.00    +0.000 HD
ENDBRANCH  28  30
ENDBRANCH   2  28
TORSDOF 6
ENDMDL
