MODEL 1
REMARK VINA RESULT:      -7.6      0.000      0.000
REMARK  Name = 
REMARK  7 active torsions:
REMARK  status: ('A' for Active; 'I' for Inactive)
REMARK    1  A    between atoms: C_2  and  C_4
REMARK    2  A    between atoms: C_4  and  C_5
REMARK    3  A    between atoms: C_5  and  C_6
REMARK    4  A    between atoms: C_6  and  N_7
REMARK    5  A    between atoms: C_8  and  C_10
REMARK    6  A    between atoms: C_10  and  C_11
REMARK    7  A    between atoms: C_11  and  C_12
REMARK                            x       y       z     vdW  Elec       q    Type
REMARK                         _______ _______ _______ _____ _____    ______ ____
ROOT
ATOM      1  C   UNL     1       2.866   4.140  19.146  0.00  0.00    +0.000 C 
ATOM      2  C   UNL     1       1.338   4.063  19.359  0.00  0.00    +0.000 C 
ATOM      3  C   UNL     1       1.151   3.715  20.825  0.00  0.00    +0.000 C 
ATOM      4  C   UNL     1       2.335   2.824  21.172  0.00  0.00    +0.000 C 
ATOM      5  C   UNL     1       3.342   2.960  20.024  0.00  0.00    +0.000 C 
ENDROOT
BRANCH   1   7
ATOM      6  N   UNL     1       4.463   4.267  17.250  0.00  0.00    +0.000 N 
ATOM      7  C   UNL     1       3.202   3.885  17.660  0.00  0.00    +0.000 C 
ATOM      8  O   UNL     1       2.397   3.383  16.879  0.00  0.00    +0.000 OA
ATOM      9  H   UNL     1       5.089   4.730  17.895  0.00  0.00    +0.000 HD
BRANCH   6  10
ATOM     10  C   UNL     1       4.884   4.112  15.866  0.00  0.00    +0.000 C 
BRANCH  10  11
ATOM     11  C   UNL     1       5.673   5.324  15.369  0.00  0.00    +0.000 C 
BRANCH  11  12
ATOM     12  C   UNL     1       5.735   6.432  16.416  0.00  0.00    +0.000 C 
BRANCH  12  14
ATOM     13  N   UNL     1       7.642   7.722  17.207  0.00  0.00    +0.000 N 
ATOM     14  C   UNL     1       7.084   6.484  17.099  0.00  0.00    +0.000 C 
ATOM     15  O   UNL     1       7.661   5.487  17.511  0.00  0.00    +0.000 OA
ATOM     16  H   UNL     1       8.498   7.791  17.744  0.00  0.00    +0.000 HD
ATOM     17  H   UNL     1       7.109   8.571  17.075  0.00  0.00    +0.000 HD
ENDBRANCH  12  14
ENDBRANCH  11  12
ENDBRANCH  10  11
ENDBRANCH   6  10
ENDBRANCH   1   7
BRANCH   1  18
ATOM     18  C   UNL     1       3.495   5.469  19.652  0.00  0.00    +0.000 C 
BRANCH  18  19
ATOM     19  C   UNL     1       2.681   6.714  19.365  0.00  0.00    +0.000 A 
ATOM     20  C   UNL     1       2.667   7.279  18.083  0.00  0.00    +0.000 A 
ATOM     21  C   UNL     1       2.004   8.484  17.844  0.00  0.00    +0.000 A 
ATOM     22  C   UNL     1       1.332   9.130  18.879  0.00  0.00    +0.000 A 
ATOM     23  C   UNL     1       1.300   8.552  20.143  0.00  0.00    +0.000 A 
ATOM     24 CL   UNL     1       0.452   9.336  21.418  0.00  0.00    +0.000 Cl
ATOM     25  C   UNL     1       1.956   7.345  20.385  0.00  0.00    +0.000 A 
ENDBRANCH  18  19
ENDBRANCH   1  18
TORSDOF 7
ENDMDL
MODEL 2
REMARK VINA RESULT:      -7.2      1.519      1.690
REMARK  Name = 
REMARK  7 active torsions:
REMARK  status: ('A' for Active; 'I' for Inactive)
REMARK    1  A    between atoms: C_2  and  C_4
REMARK    2  A    between atoms: C_4  and  C_5
REMARK    3  A    between atoms: C_5  and  C_6
REMARK    4  A    between atoms: C_6  and  N_7
REMARK    5  A    between atoms: C_8  and  C_10
REMARK    6  A    between atoms: C_10  and  C_11
REMARK    7  A    between atoms: C_11  and  C_12
REMARK                            x       y       z     vdW  Elec       q    Type
REMARK                         _______ _______ _______ _____ _____    ______ ____
ROOT
ATOM      1  C   UNL     1       2.947   4.205  19.369  0.00  0.00    +0.000 C 
ATOM      2  C   UNL     1       1.489   4.062  18.878  0.00  0.00    +0.000 C 
ATOM      3  C   UNL     1       0.692   3.633  20.097  0.00  0.00    +0.000 C 
ATOM      4  C   UNL     1       1.647   2.769  20.907  0.00  0.00    +0.000 C 
ATOM      5  C   UNL     1       3.049   3.000  20.332  0.00  0.00    +0.000 C 
ENDROOT
BRANCH   1   7
ATOM      6  N   UNL     1       5.218   4.450  18.399  0.00  0.00    +0.000 N 
ATOM      7  C   UNL     1       3.919   4.039  18.181  0.00  0.00    +0.000 C 
ATOM      8  O   UNL     1       3.564   3.580  17.097  0.00  0.00    +0.000 OA
ATOM      9  H   UNL     1       5.475   4.877  19.278  0.00  0.00    +0.000 HD
BRANCH   6  10
ATOM     10  C   UNL     1       6.218   4.378  17.345  0.00  0.00    +0.000 C 
BRANCH  10  11
ATOM     11  C   UNL     1       6.312   5.684  16.555  0.00  0.00    +0.000 C 
BRANCH  11  12
ATOM     12  C   UNL     1       5.718   5.548  15.156  0.00  0.00    +0.000 C 
BRANCH  12  14
ATOM     13  N   UNL     1       7.821   5.413  13.935  0.00  0.00    +0.000 N 
ATOM     14  C   UNL     1       6.642   4.793  14.226  0.00  0.00    +0.000 C 
ATOM     15  O   UNL     1       6.356   3.708  13.738  0.00  0.00    +0.000 OA
ATOM     16  H   UNL     1       8.493   4.884  13.393  0.00  0.00    +0.000 HD
ATOM     17  H   UNL     1       8.174   6.190  14.478  0.00  0.00    +0.000 HD
ENDBRANCH  12  14
ENDBRANCH  11  12
ENDBRANCH  10  11
ENDBRANCH   6  10
ENDBRANCH   1   7
BRANCH   1  18
ATOM     18  C   UNL     1       3.213   5.529  20.141  0.00  0.00    +0.000 C 
BRANCH  18  19
ATOM     19  C   UNL     1       2.592   6.766  19.527  0.00  0.00    +0.000 A 
ATOM     20  C   UNL     1       2.906   7.146  18.214  0.00  0.00    +0.000 A 
ATOM     21  C   UNL     1       2.417   8.342  17.684  0.00  0.00    +0.000 A 
ATOM     22  C   UNL     1       1.597   9.164  18.453  0.00  0.00    +0.000 A 
ATOM     23  C   UNL     1       1.242   8.772  19.739  0.00  0.00    +0.000 A 
ATOM     24 CL   UNL     1       0.210   9.774  20.682  0.00  0.00    +0.000 Cl
ATOM     25  C   UNL     1       1.722   7.575  20.270  0.00  0.00    +0.000 A 
ENDBRANCH  18  19
ENDBRANCH   1  18
TORSDOF 7
ENDMDL
MODEL 3
REMARK VINA RESULT:      -7.1      1.259      1.280
REMARK  Name = 
REMARK  7 active torsions:
REMARK  status: ('A' for Active; 'I' for Inactive)
REMARK    1  A    between atoms: C_2  and  C_4
REMARK    2  A    between atoms: C_4  and  C_5
REMARK    3  A    between atoms: C_5  and  C_6
REMARK    4  A    between atoms: C_6  and  N_7
REMARK    5  A    between atoms: C_8  and  C_10
REMARK    6  A    between atoms: C_10  and  C_11
REMARK    7  A    between atoms: C_11  and  C_12
REMARK                            x       y       z     vdW  Elec       q    Type
REMARK                         _______ _______ _______ _____ _____    ______ ____
ROOT
ATOM      1  C   UNL     1       3.125   4.193  19.466  0.00  0.00    +0.000 C 
ATOM      2  C   UNL     1       1.799   4.052  18.686  0.00  0.00    +0.000 C 
ATOM      3  C   UNL     1       0.762   3.652  19.721  0.00  0.00    +0.000 C 
ATOM      4  C   UNL     1       1.519   2.796  20.726  0.00  0.00    +0.000 C 
ATOM      5  C   UNL     1       3.012   3.006  20.450  0.00  0.00    +0.000 C 
ENDROOT
BRANCH   1   7
ATOM      6  N   UNL     1       4.022   3.984  17.161  0.00  0.00    +0.000 N 
ATOM      7  C   UNL     1       4.320   3.997  18.508  0.00  0.00    +0.000 C 
ATOM      8  O   UNL     1       5.472   3.851  18.912  0.00  0.00    +0.000 OA
ATOM      9  H   UNL     1       3.062   4.050  16.852  0.00  0.00    +0.000 HD
BRANCH   6  10
ATOM     10  C   UNL     1       5.058   3.771  16.162  0.00  0.00    +0.000 C 
BRANCH  10  11
ATOM     11  C   UNL     1       5.617   5.090  15.628  0.00  0.00    +0.000 C 
BRANCH  11  12
ATOM     12  C   UNL     1       7.067   5.306  16.049  0.00  0.00    +0.000 C 
BRANCH  12  14
ATOM     13  N   UNL     1       7.609   5.893  18.349  0.00  0.00    +0.000 N 
ATOM     14  C   UNL     1       7.184   6.350  17.138  0.00  0.00    +0.000 C 
ATOM     15  O   UNL     1       6.898   7.527  16.966  0.00  0.00    +0.000 OA
ATOM     16  H   UNL     1       7.786   6.589  19.063  0.00  0.00    +0.000 HD
ATOM     17  H   UNL     1       8.050   4.991  18.464  0.00  0.00    +0.000 HD
ENDBRANCH  12  14
ENDBRANCH  11  12
ENDBRANCH  10  11
ENDBRANCH   6  10
ENDBRANCH   1   7
BRANCH   1  18
ATOM     18  C   UNL     1       3.240   5.529  20.254  0.00  0.00    +0.000 C 
BRANCH  18  19
ATOM     19  C   UNL     1       2.659   6.739  19.553  0.00  0.00    +0.000 A 
ATOM     20  C   UNL     1       3.062   7.074  18.253  0.00  0.00    +0.000 A 
ATOM     21  C   UNL     1       2.607   8.247  17.647  0.00  0.00    +0.000 A 
ATOM     22  C   UNL     1       1.731   9.091  18.327  0.00  0.00    +0.000 A 
ATOM     23  C   UNL     1       1.289   8.742  19.598  0.00  0.00    +0.000 A 
ATOM     24 CL   UNL     1       0.189   9.771  20.430  0.00  0.00    +0.000 Cl
ATOM     25  C   UNL     1       1.735   7.569  20.204  0.00  0.00    +0.000 A 
ENDBRANCH  18  19
ENDBRANCH   1  18
TORSDOF 7
ENDMDL
MODEL 4
REMARK VINA RESULT:      -7.1      3.315      5.432
REMARK  Name = 
REMARK  7 active torsions:
REMARK  status: ('A' for Active; 'I' for Inactive)
REMARK    1  A    between atoms: C_2  and  C_4
REMARK    2  A    between atoms: C_4  and  C_5
REMARK    3  A    between atoms: C_5  and  C_6
REMARK    4  A    between atoms: C_6  and  N_7
REMARK    5  A    between atoms: C_8  and  C_10
REMARK    6  A    between atoms: C_10  and  C_11
REMARK    7  A    between atoms: C_11  and  C_12
REMARK                            x       y       z     vdW  Elec       q    Type
REMARK                         _______ _______ _______ _____ _____    ______ ____
ROOT
ATOM      1  C   UNL     1       6.260   5.992  17.153  0.00  0.00    +0.000 C 
ATOM      2  C   UNL     1       7.047   4.811  17.762  0.00  0.00    +0.000 C 
ATOM      3  C   UNL     1       7.708   5.366  19.011  0.00  0.00    +0.000 C 
ATOM      4  C   UNL     1       8.026   6.816  18.677  0.00  0.00    +0.000 C 
ATOM      5  C   UNL     1       7.245   7.158  17.403  0.00  0.00    +0.000 C 
ENDROOT
BRANCH   1   7
ATOM      6  N   UNL     1       6.804   4.752  15.074  0.00  0.00    +0.000 N 
ATOM      7  C   UNL     1       6.057   5.764  15.640  0.00  0.00    +0.000 C 
ATOM      8  O   UNL     1       5.285   6.445  14.968  0.00  0.00    +0.000 OA
ATOM      9  H   UNL     1       7.474   4.241  15.633  0.00  0.00    +0.000 HD
BRANCH   6  10
ATOM     10  C   UNL     1       6.727   4.464  13.650  0.00  0.00    +0.000 C 
BRANCH  10  11
ATOM     11  C   UNL     1       5.598   3.485  13.324  0.00  0.00    +0.000 C 
BRANCH  11  12
ATOM     12  C   UNL     1       5.510   3.194  11.829  0.00  0.00    +0.000 C 
BRANCH  12  14
ATOM     13  N   UNL     1       7.565   2.023  11.253  0.00  0.00    +0.000 N 
ATOM     14  C   UNL     1       6.224   1.911  11.466  0.00  0.00    +0.000 C 
ATOM     15  O   UNL     1       5.648   0.839  11.342  0.00  0.00    +0.000 OA
ATOM     16  H   UNL     1       8.077   1.162  11.102  0.00  0.00    +0.000 HD
ATOM     17  H   UNL     1       8.096   2.831  11.550  0.00  0.00    +0.000 HD
ENDBRANCH  12  14
ENDBRANCH  11  12
ENDBRANCH  10  11
ENDBRANCH   6  10
ENDBRANCH   1   7
BRANCH   1  18
ATOM     18  C   UNL     1       4.910   6.272  17.873  0.00  0.00    +0.000 C 
BRANCH  18  19
ATOM     19  C   UNL     1       4.083   5.043  18.186  0.00  0.00    +0.000 A 
ATOM     20  C   UNL     1       3.585   4.235  17.154  0.00  0.00    +0.000 A 
ATOM     21  C   UNL     1       2.735   3.164  17.436  0.00  0.00    +0.000 A 
ATOM     22  C   UNL     1       2.386   2.876  18.754  0.00  0.00    +0.000 A 
ATOM     23  C   UNL     1       2.914   3.642  19.787  0.00  0.00    +0.000 A 
ATOM     24 CL   UNL     1       2.503   3.275  21.417  0.00  0.00    +0.000 Cl
ATOM     25  C   UNL     1       3.768   4.710  19.510  0.00  0.00    +0.000 A 
ENDBRANCH  18  19
ENDBRANCH   1  18
TORSDOF 7
ENDMDL
MODEL 5
REMARK VINA RESULT:      -7.1      2.426      4.552
REMARK  Name = 
REMARK  7 active torsions:
REMARK  status: ('A' for Active; 'I' for Inactive)
REMARK    1  A    between atoms: C_2  and  C_4
REMARK    2  A    between atoms: C_4  and  C_5
REMARK    3  A    between atoms: C_5  and  C_6
REMARK    4  A    between atoms: C_6  and  N_7
REMARK    5  A    between atoms: C_8  and  C_10
REMARK    6  A    between atoms: C_10  and  C_11
REMARK    7  A    between atoms: C_11  and  C_12
REMARK                            x       y       z     vdW  Elec       q    Type
REMARK                         _______ _______ _______ _____ _____    ______ ____
ROOT
ATOM      1  C   UNL     1       2.873   6.853  18.342  0.00  0.00    +0.000 C 
ATOM      2  C   UNL     1       2.498   7.429  19.725  0.00  0.00    +0.000 C 
ATOM      3  C   UNL     1       1.456   8.498  19.450  0.00  0.00    +0.000 C 
ATOM      4  C   UNL     1       1.848   9.092  18.104  0.00  0.00    +0.000 C 
ATOM      5  C   UNL     1       2.875   8.139  17.482  0.00  0.00    +0.000 C 
ENDROOT
BRANCH   1   7
ATOM      6  N   UNL     1       5.027   6.308  17.237  0.00  0.00    +0.000 N 
ATOM      7  C   UNL     1       4.285   6.231  18.397  0.00  0.00    +0.000 C 
ATOM      8  O   UNL     1       4.727   5.688  19.408  0.00  0.00    +0.000 OA
ATOM      9  H   UNL     1       4.625   6.708  16.401  0.00  0.00    +0.000 HD
BRANCH   6  10
ATOM     10  C   UNL     1       6.359   5.726  17.154  0.00  0.00    +0.000 C 
BRANCH  10  11
ATOM     11  C   UNL     1       6.342   4.355  16.478  0.00  0.00    +0.000 C 
BRANCH  11  12
ATOM     12  C   UNL     1       5.562   4.375  15.167  0.00  0.00    +0.000 C 
BRANCH  12  14
ATOM     13  N   UNL     1       6.325   3.296  13.122  0.00  0.00    +0.000 N 
ATOM     14  C   UNL     1       6.482   4.354  13.966  0.00  0.00    +0.000 C 
ATOM     15  O   UNL     1       7.333   5.209  13.764  0.00  0.00    +0.000 OA
ATOM     16  H   UNL     1       6.864   3.313  12.264  0.00  0.00    +0.000 HD
ATOM     17  H   UNL     1       5.507   2.702  13.142  0.00  0.00    +0.000 HD
ENDBRANCH  12  14
ENDBRANCH  11  12
ENDBRANCH  10  11
ENDBRANCH   6  10
ENDBRANCH   1   7
BRANCH   1  18
ATOM     18  C   UNL     1       1.828   5.843  17.788  0.00  0.00    +0.000 C 
BRANCH  18  19
ATOM     19  C   UNL     1       1.963   4.429  18.312  0.00  0.00    +0.000 A 
ATOM     20  C   UNL     1       2.353   3.385  17.460  0.00  0.00    +0.000 A 
ATOM     21  C   UNL     1       2.374   2.066  17.917  0.00  0.00    +0.000 A 
ATOM     22  C   UNL     1       2.024   1.775  19.233  0.00  0.00    +0.000 A 
ATOM     23  C   UNL     1       1.682   2.809  20.098  0.00  0.00    +0.000 A 
ATOM     24 CL   UNL     1       1.271   2.455  21.730  0.00  0.00    +0.000 Cl
ATOM     25  C   UNL     1       1.665   4.129  19.648  0.00  0.00    +0.000 A 
ENDBRANCH  18  19
ENDBRANCH   1  18
TORSDOF 7
ENDMDL
MODEL 6
REMARK VINA RESULT:      -7.0      3.570      6.781
REMARK  Name = 
REMARK  7 active torsions:
REMARK  status: ('A' for Active; 'I' for Inactive)
REMARK    1  A    between atoms: C_2  and  C_4
REMARK    2  A    between atoms: C_4  and  C_5
REMARK    3  A    between atoms: C_5  and  C_6
REMARK    4  A    between atoms: C_6  and  N_7
REMARK    5  A    between atoms: C_8  and  C_10
REMARK    6  A    between atoms: C_10  and  C_11
REMARK    7  A    between atoms: C_11  and  C_12
REMARK                            x       y       z     vdW  Elec       q    Type
REMARK                         _______ _______ _______ _____ _____    ______ ____
ROOT
ATOM      1  C   UNL     1       6.682   5.596  18.172  0.00  0.00    +0.000 C 
ATOM      2  C   UNL     1       6.368   6.930  17.458  0.00  0.00    +0.000 C 
ATOM      3  C   UNL     1       7.674   7.704  17.455  0.00  0.00    +0.000 C 
ATOM      4  C   UNL     1       8.367   7.312  18.753  0.00  0.00    +0.000 C 
ATOM      5  C   UNL     1       7.629   6.083  19.294  0.00  0.00    +0.000 C 
ENDROOT
BRANCH   1   7
ATOM      6  N   UNL     1       4.249   5.768  18.626  0.00  0.00    +0.000 N 
ATOM      7  C   UNL     1       5.388   5.003  18.768  0.00  0.00    +0.000 C 
ATOM      8  O   UNL     1       5.365   3.919  19.347  0.00  0.00    +0.000 OA
ATOM      9  H   UNL     1       4.300   6.681  18.197  0.00  0.00    +0.000 HD
BRANCH   6  10
ATOM     10  C   UNL     1       2.974   5.332  19.177  0.00  0.00    +0.000 C 
BRANCH  10  11
ATOM     11  C   UNL     1       2.063   4.731  18.107  0.00  0.00    +0.000 C 
BRANCH  11  12
ATOM     12  C   UNL     1       1.886   3.227  18.288  0.00  0.00    +0.000 C 
BRANCH  12  14
ATOM     13  N   UNL     1       0.484   3.167  20.278  0.00  0.00    +0.000 N 
ATOM     14  C   UNL     1       1.698   2.855  19.743  0.00  0.00    +0.000 C 
ATOM     15  O   UNL     1       2.575   2.332  20.416  0.00  0.00    +0.000 OA
ATOM     16  H   UNL     1       0.304   2.842  21.220  0.00  0.00    +0.000 HD
ATOM     17  H   UNL     1      -0.318   3.397  19.707  0.00  0.00    +0.000 HD
ENDBRANCH  12  14
ENDBRANCH  11  12
ENDBRANCH  10  11
ENDBRANCH   6  10
ENDBRANCH   1   7
BRANCH   1  18
ATOM     18  C   UNL     1       7.416   4.567  17.265  0.00  0.00    +0.000 C 
BRANCH  18  19
ATOM     19  C   UNL     1       6.869   4.447  15.858  0.00  0.00    +0.000 A 
ATOM     20  C   UNL     1       5.691   3.729  15.608  0.00  0.00    +0.000 A 
ATOM     21  C   UNL     1       5.245   3.529  14.300  0.00  0.00    +0.000 A 
ATOM     22  C   UNL     1       5.960   4.059  13.228  0.00  0.00    +0.000 A 
ATOM     23  C   UNL     1       7.102   4.813  13.470  0.00  0.00    +0.000 A 
ATOM     24 CL   UNL     1       7.975   5.488  12.150  0.00  0.00    +0.000 Cl
ATOM     25  C   UNL     1       7.549   5.021  14.775  0.00  0.00    +0.000 A 
ENDBRANCH  18  19
ENDBRANCH   1  18
TORSDOF 7
ENDMDL
MODEL 7
REMARK VINA RESULT:      -7.0      2.326      4.870
REMARK  Name = 
REMARK  7 active torsions:
REMARK  status: ('A' for Active; 'I' for Inactive)
REMARK    1  A    between atoms: C_2  and  C_4
REMARK    2  A    between atoms: C_4  and  C_5
REMARK    3  A    between atoms: C_5  and  C_6
REMARK    4  A    between atoms: C_6  and  N_7
REMARK    5  A    between atoms: C_8  and  C_10
REMARK    6  A    between atoms: C_10  and  C_11
REMARK    7  A    between atoms: C_11  and  C_12
REMARK                            x       y       z     vdW  Elec       q    Type
REMARK                         _______ _______ _______ _____ _____    ______ ____
ROOT
ATOM      1  C   UNL     1       5.021   4.759  17.838  0.00  0.00    +0.000 C 
ATOM      2  C   UNL     1       5.950   5.615  18.726  0.00  0.00    +0.000 C 
ATOM      3  C   UNL     1       6.884   6.329  17.764  0.00  0.00    +0.000 C 
ATOM      4  C   UNL     1       7.090   5.351  16.617  0.00  0.00    +0.000 C 
ATOM      5  C   UNL     1       6.019   4.264  16.765  0.00  0.00    +0.000 C 
ENDROOT
BRANCH   1   7
ATOM      6  N   UNL     1       3.316   2.984  18.161  0.00  0.00    +0.000 N 
ATOM      7  C   UNL     1       4.463   3.573  18.653  0.00  0.00    +0.000 C 
ATOM      8  O   UNL     1       4.995   3.175  19.688  0.00  0.00    +0.000 OA
ATOM      9  H   UNL     1       2.864   3.362  17.340  0.00  0.00    +0.000 HD
BRANCH   6  10
ATOM     10  C   UNL     1       2.675   1.882  18.860  0.00  0.00    +0.000 C 
BRANCH  10  11
ATOM     11  C   UNL     1       1.185   2.139  19.089  0.00  0.00    +0.000 C 
BRANCH  11  12
ATOM     12  C   UNL     1       0.948   3.302  20.047  0.00  0.00    +0.000 C 
BRANCH  12  14
ATOM     13  N   UNL     1       2.606   3.908  21.724  0.00  0.00    +0.000 N 
ATOM     14  C   UNL     1       1.592   3.059  21.394  0.00  0.00    +0.000 C 
ATOM     15  O   UNL     1       1.254   2.151  22.141  0.00  0.00    +0.000 OA
ATOM     16  H   UNL     1       2.986   3.823  22.659  0.00  0.00    +0.000 HD
ATOM     17  H   UNL     1       2.763   4.781  21.238  0.00  0.00    +0.000 HD
ENDBRANCH  12  14
ENDBRANCH  11  12
ENDBRANCH  10  11
ENDBRANCH   6  10
ENDBRANCH   1   7
BRANCH   1  18
ATOM     18  C   UNL     1       3.880   5.576  17.167  0.00  0.00    +0.000 C 
BRANCH  18  19
ATOM     19  C   UNL     1       3.200   6.586  18.067  0.00  0.00    +0.000 A 
ATOM     20  C   UNL     1       2.727   6.212  19.333  0.00  0.00    +0.000 A 
ATOM     21  C   UNL     1       2.008   7.114  20.119  0.00  0.00    +0.000 A 
ATOM     22  C   UNL     1       1.766   8.406  19.657  0.00  0.00    +0.000 A 
ATOM     23  C   UNL     1       2.273   8.800  18.424  0.00  0.00    +0.000 A 
ATOM     24 CL   UNL     1       1.995  10.402  17.861  0.00  0.00    +0.000 Cl
ATOM     25  C   UNL     1       2.997   7.905  17.638  0.00  0.00    +0.000 A 
ENDBRANCH  18  19
ENDBRANCH   1  18
TORSDOF 7
ENDMDL
MODEL 8
REMARK VINA RESULT:      -7.0      2.997      5.066
REMARK  Name = 
REMARK  7 active torsions:
REMARK  status: ('A' for Active; 'I' for Inactive)
REMARK    1  A    between atoms: C_2  and  C_4
REMARK    2  A    between atoms: C_4  and  C_5
REMARK    3  A    between atoms: C_5  and  C_6
REMARK    4  A    between atoms: C_6  and  N_7
REMARK    5  A    between atoms: C_8  and  C_10
REMARK    6  A    between atoms: C_10  and  C_11
REMARK    7  A    between atoms: C_11  and  C_12
REMARK                            x       y       z     vdW  Elec       q    Type
REMARK                         _______ _______ _______ _____ _____    ______ ____
ROOT
ATOM      1  C   UNL     1       6.119   6.042  17.369  0.00  0.00    +0.000 C 
ATOM      2  C   UNL     1       6.825   4.898  18.130  0.00  0.00    +0.000 C 
ATOM      3  C   UNL     1       7.614   5.574  19.236  0.00  0.00    +0.000 C 
ATOM      4  C   UNL     1       8.050   6.909  18.649  0.00  0.00    +0.000 C 
ATOM      5  C   UNL     1       7.226   7.121  17.374  0.00  0.00    +0.000 C 
ENDROOT
BRANCH   1   7
ATOM      6  N   UNL     1       6.166   4.307  15.596  0.00  0.00    +0.000 N 
ATOM      7  C   UNL     1       5.798   5.594  15.927  0.00  0.00    +0.000 C 
ATOM      8  O   UNL     1       5.257   6.337  15.111  0.00  0.00    +0.000 OA
ATOM      9  H   UNL     1       6.661   3.732  16.264  0.00  0.00    +0.000 HD
BRANCH   6  10
ATOM     10  C   UNL     1       5.950   3.782  14.256  0.00  0.00    +0.000 C 
BRANCH  10  11
ATOM     11  C   UNL     1       6.862   4.449  13.227  0.00  0.00    +0.000 C 
BRANCH  11  12
ATOM     12  C   UNL     1       6.936   3.650  11.929  0.00  0.00    +0.000 C 
BRANCH  12  14
ATOM     13  N   UNL     1       5.923   1.454  11.644  0.00  0.00    +0.000 N 
ATOM     14  C   UNL     1       5.704   2.796  11.724  0.00  0.00    +0.000 C 
ATOM     15  O   UNL     1       4.580   3.266  11.612  0.00  0.00    +0.000 OA
ATOM     16  H   UNL     1       5.104   0.859  11.603  0.00  0.00    +0.000 HD
ATOM     17  H   UNL     1       6.790   1.027  11.942  0.00  0.00    +0.000 HD
ENDBRANCH  12  14
ENDBRANCH  11  12
ENDBRANCH  10  11
ENDBRANCH   6  10
ENDBRANCH   1   7
BRANCH   1  18
ATOM     18  C   UNL     1       4.850   6.577  18.095  0.00  0.00    +0.000 C 
BRANCH  18  19
ATOM     19  C   UNL     1       3.812   5.527  18.428  0.00  0.00    +0.000 A 
ATOM     20  C   UNL     1       2.994   4.986  17.426  0.00  0.00    +0.000 A 
ATOM     21  C   UNL     1       1.967   4.098  17.749  0.00  0.00    +0.000 A 
ATOM     22  C   UNL     1       1.754   3.726  19.075  0.00  0.00    +0.000 A 
ATOM     23  C   UNL     1       2.591   4.221  20.069  0.00  0.00    +0.000 A 
ATOM     24 CL   UNL     1       2.345   3.746  21.704  0.00  0.00    +0.000 Cl
ATOM     25  C   UNL     1       3.622   5.103  19.751  0.00  0.00    +0.000 A 
ENDBRANCH  18  19
ENDBRANCH   1  18
TORSDOF 7
ENDMDL
MODEL 9
REMARK VINA RESULT:      -7.0      2.176      4.288
REMARK  Name = 
REMARK  7 active torsions:
REMARK  status: ('A' for Active; 'I' for Inactive)
REMARK    1  A    between atoms: C_2  and  C_4
REMARK    2  A    between atoms: C_4  and  C_5
REMARK    3  A    between atoms: C_5  and  C_6
REMARK    4  A    between atoms: C_6  and  N_7
REMARK    5  A    between atoms: C_8  and  C_10
REMARK    6  A    between atoms: C_10  and  C_11
REMARK    7  A    between atoms: C_11  and  C_12
REMARK                            x       y       z     vdW  Elec       q    Type
REMARK                         _______ _______ _______ _____ _____    ______ ____
ROOT
ATOM      1  C   UNL     1       2.540   7.107  18.330  0.00  0.00    +0.000 C 
ATOM      2  C   UNL     1       2.501   7.409  19.844  0.00  0.00    +0.000 C 
ATOM      3  C   UNL     1       1.315   8.337  20.041  0.00  0.00    +0.000 C 
ATOM      4  C   UNL     1       1.256   9.175  18.772  0.00  0.00    +0.000 C 
ATOM      5  C   UNL     1       2.168   8.490  17.747  0.00  0.00    +0.000 C 
ENDROOT
BRANCH   1   7
ATOM      6  N   UNL     1       4.306   6.940  16.594  0.00  0.00    +0.000 N 
ATOM      7  C   UNL     1       3.971   6.705  17.912  0.00  0.00    +0.000 C 
ATOM      8  O   UNL     1       4.769   6.196  18.696  0.00  0.00    +0.000 OA
ATOM      9  H   UNL     1       3.617   7.307  15.952  0.00  0.00    +0.000 HD
BRANCH   6  10
ATOM     10  C   UNL     1       5.613   6.570  16.071  0.00  0.00    +0.000 C 
BRANCH  10  11
ATOM     11  C   UNL     1       5.551   5.299  15.224  0.00  0.00    +0.000 C 
BRANCH  11  12
ATOM     12  C   UNL     1       5.762   4.043  16.064  0.00  0.00    +0.000 C 
BRANCH  12  14
ATOM     13  N   UNL     1       6.589   4.092  18.353  0.00  0.00    +0.000 N 
ATOM     14  C   UNL     1       6.911   4.204  17.034  0.00  0.00    +0.000 C 
ATOM     15  O   UNL     1       8.057   4.443  16.677  0.00  0.00    +0.000 OA
ATOM     16  H   UNL     1       7.357   4.101  19.013  0.00  0.00    +0.000 HD
ATOM     17  H   UNL     1       5.716   3.690  18.666  0.00  0.00    +0.000 HD
ENDBRANCH  12  14
ENDBRANCH  11  12
ENDBRANCH  10  11
ENDBRANCH   6  10
ENDBRANCH   1   7
BRANCH   1  18
ATOM     18  C   UNL     1       1.497   6.043  17.884  0.00  0.00    +0.000 C 
BRANCH  18  19
ATOM     19  C   UNL     1       1.784   4.630  18.348  0.00  0.00    +0.000 A 
ATOM     20  C   UNL     1       2.237   3.659  17.443  0.00  0.00    +0.000 A 
ATOM     21  C   UNL     1       2.400   2.332  17.847  0.00  0.00    +0.000 A 
ATOM     22  C   UNL     1       2.129   1.963  19.163  0.00  0.00    +0.000 A 
ATOM     23  C   UNL     1       1.726   2.929  20.078  0.00  0.00    +0.000 A 
ATOM     24 CL   UNL     1       1.412   2.479  21.709  0.00  0.00    +0.000 Cl
ATOM     25  C   UNL     1       1.567   4.256  19.681  0.00  0.00    +0.000 A 
ENDBRANCH  18  19
ENDBRANCH   1  18
TORSDOF 7
ENDMDL
