MODEL 1
REMARK VINA RESULT:      -7.2      0.000      0.000
REMARK  Name = 
REMARK  6 active torsions:
REMARK  status: ('A' for Active; 'I' for Inactive)
REMARK    1  A    between atoms: C_2  and  C_3
REMARK    2  A    between atoms: C_3  and  O_4
REMARK    3  A    between atoms: O_4  and  C_5
REMARK    4  A    between atoms: C_5  and  C_6
REMARK    5  A    between atoms: C_8  and  C_9
REMARK    6  A    between atoms: N_16  and  C_17
REMARK                            x       y       z     vdW  Elec       q    Type
REMARK                         _______ _______ _______ _____ _____    ______ ____
ROOT
ATOM      1  O   UNL     1       8.304   8.019  18.467  0.00  0.00    +0.000 OA
ENDROOT
BRANCH   1   2
ATOM      2  C   UNL     1       8.320   9.396  18.094  0.00  0.00    +0.000 C 
BRANCH   2   4
ATOM      3  O   UNL     1       9.247  10.201  20.174  0.00  0.00    +0.000 OA
ATOM      4  C   UNL     1       9.231  10.295  18.948  0.00  0.00    +0.000 C 
ATOM      5  N   UNL     1      10.007  11.178  18.241  0.00  0.00    +0.000 N 
ATOM      6  H   UNL     1       9.764  11.277  17.262  0.00  0.00    +0.000 HD
BRANCH   5   7
ATOM      7  C   UNL     1      10.855  12.175  18.889  0.00  0.00    +0.000 C 
ATOM      8  C   UNL     1      12.078  12.503  18.025  0.00  0.00    +0.000 C 
ATOM      9  C   UNL     1      11.686  13.206  16.726  0.00  0.00    +0.000 C 
ATOM     10  C   UNL     1      10.866  14.466  16.994  0.00  0.00    +0.000 C 
ATOM     11  C   UNL     1       9.681  14.217  17.926  0.00  0.00    +0.000 C 
ATOM     12  C   UNL     1      10.080  13.464  19.197  0.00  0.00    +0.000 C 
ENDBRANCH   5   7
ENDBRANCH   2   4
ENDBRANCH   1   2
BRANCH   1  13
ATOM     13  C   UNL     1       7.657   7.228  17.451  0.00  0.00    +0.000 C 
BRANCH  13  14
ATOM     14  C   UNL     1       6.768   6.185  18.039  0.00  0.00    +0.000 A 
ATOM     15  C   UNL     1       5.441   5.884  17.672  0.00  0.00    +0.000 A 
ATOM     16  C   UNL     1       5.064   4.826  18.472  0.00  0.00    +0.000 A 
ATOM     17  O   UNL     1       6.130   4.524  19.281  0.00  0.00    +0.000 OA
ATOM     18  N   UNL     1       7.195   5.367  19.007  0.00  0.00    +0.000 NA
BRANCH  16  19
ATOM     19  C   UNL     1       3.817   4.111  18.511  0.00  0.00    +0.000 A 
ATOM     20  C   UNL     1       2.617   4.491  17.945  0.00  0.00    +0.000 A 
ATOM     21  C   UNL     1       1.570   3.551  18.194  0.00  0.00    +0.000 A 
ATOM     22  C   UNL     1       2.007   2.481  18.941  0.00  0.00    +0.000 A 
ATOM     23  S   UNL     1       3.664   2.608  19.327  0.00  0.00    +0.000 S 
ENDBRANCH  16  19
ENDBRANCH  13  14
ENDBRANCH   1  13
TORSDOF 6
ENDMDL
MODEL 2
REMARK VINA RESULT:      -7.0      3.258      9.918
REMARK  Name = 
REMARK  6 active torsions:
REMARK  status: ('A' for Active; 'I' for Inactive)
REMARK    1  A    between atoms: C_2  and  C_3
REMARK    2  A    between atoms: C_3  and  O_4
REMARK    3  A    between atoms: O_4  and  C_5
REMARK    4  A    between atoms: C_5  and  C_6
REMARK    5  A    between atoms: C_8  and  C_9
REMARK    6  A    between atoms: N_16  and  C_17
REMARK                            x       y       z     vdW  Elec       q    Type
REMARK                         _______ _______ _______ _____ _____    ______ ____
ROOT
ATOM      1  O   UNL     1       8.283   7.813  18.464  0.00  0.00    +0.000 OA
ENDROOT
BRANCH   1   2
ATOM      2  C   UNL     1       7.483   6.825  17.816  0.00  0.00    +0.000 C 
BRANCH   2   4
ATOM      3  O   UNL     1       7.429   5.242  19.639  0.00  0.00    +0.000 OA
ATOM      4  C   UNL     1       6.797   5.818  18.755  0.00  0.00    +0.000 C 
ATOM      5  N   UNL     1       5.456   5.635  18.532  0.00  0.00    +0.000 N 
ATOM      6  H   UNL     1       5.105   6.028  17.667  0.00  0.00    +0.000 HD
BRANCH   5   7
ATOM      7  C   UNL     1       4.665   4.645  19.259  0.00  0.00    +0.000 C 
ATOM      8  C   UNL     1       3.346   5.249  19.755  0.00  0.00    +0.000 C 
ATOM      9  C   UNL     1       2.419   5.618  18.598  0.00  0.00    +0.000 C 
ATOM     10  C   UNL     1       2.151   4.421  17.689  0.00  0.00    +0.000 C 
ATOM     11  C   UNL     1       3.432   3.721  17.235  0.00  0.00    +0.000 C 
ATOM     12  C   UNL     1       4.375   3.407  18.398  0.00  0.00    +0.000 C 
ENDBRANCH   5   7
ENDBRANCH   2   4
ENDBRANCH   1   2
BRANCH   1  13
ATOM     13  C   UNL     1       8.114   9.096  17.831  0.00  0.00    +0.000 C 
BRANCH  13  14
ATOM     14  C   UNL     1       8.898  10.163  18.516  0.00  0.00    +0.000 A 
ATOM     15  C   UNL     1       9.174  11.462  18.043  0.00  0.00    +0.000 A 
ATOM     16  C   UNL     1       9.894  12.078  19.044  0.00  0.00    +0.000 A 
ATOM     17  O   UNL     1      10.038  11.171  20.063  0.00  0.00    +0.000 OA
ATOM     18  N   UNL     1       9.411   9.979  19.738  0.00  0.00    +0.000 NA
BRANCH  16  19
ATOM     19  C   UNL     1      10.422  13.414  19.098  0.00  0.00    +0.000 A 
ATOM     20  C   UNL     1      10.809  14.117  20.220  0.00  0.00    +0.000 A 
ATOM     21  C   UNL     1      11.271  15.434  19.912  0.00  0.00    +0.000 A 
ATOM     22  C   UNL     1      11.223  15.693  18.562  0.00  0.00    +0.000 A 
ATOM     23  S   UNL     1      10.638  14.356  17.677  0.00  0.00    +0.000 S 
ENDBRANCH  16  19
ENDBRANCH  13  14
ENDBRANCH   1  13
TORSDOF 6
ENDMDL
MODEL 3
REMARK VINA RESULT:      -6.9      5.967      9.075
REMARK  Name = 
REMARK  6 active torsions:
REMARK  status: ('A' for Active; 'I' for Inactive)
REMARK    1  A    between atoms: C_2  and  C_3
REMARK    2  A    between atoms: C_3  and  O_4
REMARK    3  A    between atoms: O_4  and  C_5
REMARK    4  A    between atoms: C_5  and  C_6
REMARK    5  A    between atoms: C_8  and  C_9
REMARK    6  A    between atoms: N_16  and  C_17
REMARK                            x       y       z     vdW  Elec       q    Type
REMARK                         _______ _______ _______ _____ _____    ______ ____
ROOT
ATOM      1  O   UNL     1       4.824   7.157  17.523  0.00  0.00    +0.000 OA
ENDROOT
BRANCH   1   2
ATOM      2  C   UNL     1       5.641   5.989  17.577  0.00  0.00    +0.000 C 
BRANCH   2   4
ATOM      3  O   UNL     1       6.001   5.048  19.773  0.00  0.00    +0.000 OA
ATOM      4  C   UNL     1       5.334   5.028  18.739  0.00  0.00    +0.000 C 
ATOM      5  N   UNL     1       4.275   4.182  18.530  0.00  0.00    +0.000 N 
ATOM      6  H   UNL     1       3.933   4.146  17.577  0.00  0.00    +0.000 HD
BRANCH   5   7
ATOM      7  C   UNL     1       3.904   3.136  19.481  0.00  0.00    +0.000 C 
ATOM      8  C   UNL     1       2.861   3.646  20.482  0.00  0.00    +0.000 C 
ATOM      9  C   UNL     1       1.527   3.958  19.805  0.00  0.00    +0.000 C 
ATOM     10  C   UNL     1       0.990   2.750  19.040  0.00  0.00    +0.000 C 
ATOM     11  C   UNL     1       2.020   2.142  18.090  0.00  0.00    +0.000 C 
ATOM     12  C   UNL     1       3.368   1.887  18.767  0.00  0.00    +0.000 C 
ENDBRANCH   5   7
ENDBRANCH   2   4
ENDBRANCH   1   2
BRANCH   1  13
ATOM     13  C   UNL     1       3.428   6.798  17.502  0.00  0.00    +0.000 C 
BRANCH  13  14
ATOM     14  C   UNL     1       2.581   7.813  18.190  0.00  0.00    +0.000 A 
ATOM     15  C   UNL     1       2.103   7.775  19.516  0.00  0.00    +0.000 A 
ATOM     16  C   UNL     1       1.402   8.949  19.694  0.00  0.00    +0.000 A 
ATOM     17  O   UNL     1       1.463   9.645  18.514  0.00  0.00    +0.000 OA
ATOM     18  N   UNL     1       2.204   8.941  17.578  0.00  0.00    +0.000 NA
BRANCH  16  19
ATOM     19  C   UNL     1       0.717   9.434  20.861  0.00  0.00    +0.000 A 
ATOM     20  C   UNL     1       0.785   8.925  22.142  0.00  0.00    +0.000 A 
ATOM     21  C   UNL     1      -0.044   9.640  23.062  0.00  0.00    +0.000 A 
ATOM     22  C   UNL     1      -0.716  10.673  22.451  0.00  0.00    +0.000 A 
ATOM     23  S   UNL     1      -0.342  10.784  20.790  0.00  0.00    +0.000 S 
ENDBRANCH  16  19
ENDBRANCH  13  14
ENDBRANCH   1  13
TORSDOF 6
ENDMDL
MODEL 4
REMARK VINA RESULT:      -6.9      1.233      1.237
REMARK  Name = 
REMARK  6 active torsions:
REMARK  status: ('A' for Active; 'I' for Inactive)
REMARK    1  A    between atoms: C_2  and  C_3
REMARK    2  A    between atoms: C_3  and  O_4
REMARK    3  A    between atoms: O_4  and  C_5
REMARK    4  A    between atoms: C_5  and  C_6
REMARK    5  A    between atoms: C_8  and  C_9
REMARK    6  A    between atoms: N_16  and  C_17
REMARK                            x       y       z     vdW  Elec       q    Type
REMARK                         _______ _______ _______ _____ _____    ______ ____
ROOT
ATOM      1  O   UNL     1       8.115   8.334  17.146  0.00  0.00    +0.000 OA
ENDROOT
BRANCH   1   2
ATOM      2  C   UNL     1       7.840   9.580  17.784  0.00  0.00    +0.000 C 
BRANCH   2   4
ATOM      3  O   UNL     1       9.283   9.723  19.716  0.00  0.00    +0.000 OA
ATOM      4  C   UNL     1       9.003  10.167  18.603  0.00  0.00    +0.000 C 
ATOM      5  N   UNL     1       9.684  11.191  17.997  0.00  0.00    +0.000 N 
ATOM      6  H   UNL     1       9.240  11.575  17.171  0.00  0.00    +0.000 HD
BRANCH   5   7
ATOM      7  C   UNL     1      10.750  11.933  18.666  0.00  0.00    +0.000 C 
ATOM      8  C   UNL     1      11.844  12.343  17.674  0.00  0.00    +0.000 C 
ATOM      9  C   UNL     1      11.334  13.358  16.652  0.00  0.00    +0.000 C 
ATOM     10  C   UNL     1      10.739  14.589  17.332  0.00  0.00    +0.000 C 
ATOM     11  C   UNL     1       9.704  14.237  18.399  0.00  0.00    +0.000 C 
ATOM     12  C   UNL     1      10.208  13.179  19.382  0.00  0.00    +0.000 C 
ENDBRANCH   5   7
ENDBRANCH   2   4
ENDBRANCH   1   2
BRANCH   1  13
ATOM     13  C   UNL     1       7.771   7.235  18.012  0.00  0.00    +0.000 C 
BRANCH  13  14
ATOM     14  C   UNL     1       6.553   6.515  17.543  0.00  0.00    +0.000 A 
ATOM     15  C   UNL     1       5.677   5.722  18.311  0.00  0.00    +0.000 A 
ATOM     16  C   UNL     1       4.689   5.308  17.442  0.00  0.00    +0.000 A 
ATOM     17  O   UNL     1       4.981   5.837  16.210  0.00  0.00    +0.000 OA
ATOM     18  N   UNL     1       6.139   6.595  16.274  0.00  0.00    +0.000 NA
BRANCH  16  19
ATOM     19  C   UNL     1       3.535   4.489  17.696  0.00  0.00    +0.000 A 
ATOM     20  C   UNL     1       2.238   4.913  17.902  0.00  0.00    +0.000 A 
ATOM     21  C   UNL     1       1.339   3.829  18.148  0.00  0.00    +0.000 A 
ATOM     22  C   UNL     1       1.980   2.613  18.120  0.00  0.00    +0.000 A 
ATOM     23  S   UNL     1       3.646   2.778  17.790  0.00  0.00    +0.000 S 
ENDBRANCH  16  19
ENDBRANCH  13  14
ENDBRANCH   1  13
TORSDOF 6
ENDMDL
MODEL 5
REMARK VINA RESULT:      -6.9      6.283      9.352
REMARK  Name = 
REMARK  6 active torsions:
REMARK  status: ('A' for Active; 'I' for Inactive)
REMARK    1  A    between atoms: C_2  and  C_3
REMARK    2  A    between atoms: C_3  and  O_4
REMARK    3  A    between atoms: O_4  and  C_5
REMARK    4  A    between atoms: C_5  and  C_6
REMARK    5  A    between atoms: C_8  and  C_9
REMARK    6  A    between atoms: N_16  and  C_17
REMARK                            x       y       z     vdW  Elec       q    Type
REMARK                         _______ _______ _______ _____ _____    ______ ____
ROOT
ATOM      1  O   UNL     1       5.023   6.640  17.762  0.00  0.00    +0.000 OA
ENDROOT
BRANCH   1   2
ATOM      2  C   UNL     1       5.323   5.287  17.424  0.00  0.00    +0.000 C 
BRANCH   2   4
ATOM      3  O   UNL     1       5.902   3.967  19.362  0.00  0.00    +0.000 OA
ATOM      4  C   UNL     1       5.042   4.257  18.532  0.00  0.00    +0.000 C 
ATOM      5  N   UNL     1       3.782   3.716  18.518  0.00  0.00    +0.000 N 
ATOM      6  H   UNL     1       3.242   3.904  17.681  0.00  0.00    +0.000 HD
BRANCH   5   7
ATOM      7  C   UNL     1       3.372   2.651  19.430  0.00  0.00    +0.000 C 
ATOM      8  C   UNL     1       2.967   3.220  20.794  0.00  0.00    +0.000 C 
ATOM      9  C   UNL     1       1.702   4.073  20.703  0.00  0.00    +0.000 C 
ATOM     10  C   UNL     1       0.544   3.295  20.081  0.00  0.00    +0.000 C 
ATOM     11  C   UNL     1       0.919   2.628  18.758  0.00  0.00    +0.000 C 
ATOM     12  C   UNL     1       2.216   1.823  18.851  0.00  0.00    +0.000 C 
ENDBRANCH   5   7
ENDBRANCH   2   4
ENDBRANCH   1   2
BRANCH   1  13
ATOM     13  C   UNL     1       3.824   7.075  17.093  0.00  0.00    +0.000 C 
BRANCH  13  14
ATOM     14  C   UNL     1       2.892   7.780  18.020  0.00  0.00    +0.000 A 
ATOM     15  C   UNL     1       2.198   8.983  17.785  0.00  0.00    +0.000 A 
ATOM     16  C   UNL     1       1.441   9.204  18.917  0.00  0.00    +0.000 A 
ATOM     17  O   UNL     1       1.688   8.169  19.783  0.00  0.00    +0.000 OA
ATOM     18  N   UNL     1       2.588   7.278  19.221  0.00  0.00    +0.000 NA
BRANCH  16  19
ATOM     19  C   UNL     1       0.533  10.279  19.211  0.00  0.00    +0.000 A 
ATOM     20  C   UNL     1      -0.841  10.207  19.319  0.00  0.00    +0.000 A 
ATOM     21  C   UNL     1      -1.437  11.475  19.602  0.00  0.00    +0.000 A 
ATOM     22  C   UNL     1      -0.496  12.474  19.704  0.00  0.00    +0.000 A 
ATOM     23  S   UNL     1       1.088  11.883  19.470  0.00  0.00    +0.000 S 
ENDBRANCH  16  19
ENDBRANCH  13  14
ENDBRANCH   1  13
TORSDOF 6
ENDMDL
MODEL 6
REMARK VINA RESULT:      -6.8      2.939      9.866
REMARK  Name = 
REMARK  6 active torsions:
REMARK  status: ('A' for Active; 'I' for Inactive)
REMARK    1  A    between atoms: C_2  and  C_3
REMARK    2  A    between atoms: C_3  and  O_4
REMARK    3  A    between atoms: O_4  and  C_5
REMARK    4  A    between atoms: C_5  and  C_6
REMARK    5  A    between atoms: C_8  and  C_9
REMARK    6  A    between atoms: N_16  and  C_17
REMARK                            x       y       z     vdW  Elec       q    Type
REMARK                         _______ _______ _______ _____ _____    ______ ____
ROOT
ATOM      1  O   UNL     1       6.234   5.920  17.273  0.00  0.00    +0.000 OA
ENDROOT
BRANCH   1   2
ATOM      2  C   UNL     1       5.174   5.948  18.229  0.00  0.00    +0.000 C 
BRANCH   2   4
ATOM      3  O   UNL     1       5.907   3.875  19.227  0.00  0.00    +0.000 OA
ATOM      4  C   UNL     1       4.970   4.644  19.019  0.00  0.00    +0.000 C 
ATOM      5  N   UNL     1       3.692   4.428  19.467  0.00  0.00    +0.000 N 
ATOM      6  H   UNL     1       2.988   5.043  19.074  0.00  0.00    +0.000 HD
BRANCH   5   7
ATOM      7  C   UNL     1       3.293   3.198  20.146  0.00  0.00    +0.000 C 
ATOM      8  C   UNL     1       2.067   3.433  21.037  0.00  0.00    +0.000 C 
ATOM      9  C   UNL     1       0.823   3.769  20.216  0.00  0.00    +0.000 C 
ATOM     10  C   UNL     1       0.530   2.691  19.174  0.00  0.00    +0.000 C 
ATOM     11  C   UNL     1       1.745   2.350  18.314  0.00  0.00    +0.000 C 
ATOM     12  C   UNL     1       2.997   2.070  19.147  0.00  0.00    +0.000 C 
ENDBRANCH   5   7
ENDBRANCH   2   4
ENDBRANCH   1   2
BRANCH   1  13
ATOM     13  C   UNL     1       7.502   6.147  17.918  0.00  0.00    +0.000 C 
BRANCH  13  14
ATOM     14  C   UNL     1       7.833   7.599  18.002  0.00  0.00    +0.000 A 
ATOM     15  C   UNL     1       8.756   8.219  18.867  0.00  0.00    +0.000 A 
ATOM     16  C   UNL     1       8.733   9.558  18.539  0.00  0.00    +0.000 A 
ATOM     17  O   UNL     1       7.825   9.716  17.523  0.00  0.00    +0.000 OA
ATOM     18  N   UNL     1       7.268   8.493  17.183  0.00  0.00    +0.000 NA
BRANCH  16  19
ATOM     19  C   UNL     1       9.490  10.647  19.097  0.00  0.00    +0.000 A 
ATOM     20  C   UNL     1      10.418  11.436  18.451  0.00  0.00    +0.000 A 
ATOM     21  C   UNL     1      11.000  12.417  19.313  0.00  0.00    +0.000 A 
ATOM     22  C   UNL     1      10.493  12.344  20.590  0.00  0.00    +0.000 A 
ATOM     23  S   UNL     1       9.321  11.113  20.741  0.00  0.00    +0.000 S 
ENDBRANCH  16  19
ENDBRANCH  13  14
ENDBRANCH   1  13
TORSDOF 6
ENDMDL
MODEL 7
REMARK VINA RESULT:      -6.8      3.013      9.699
REMARK  Name = 
REMARK  6 active torsions:
REMARK  status: ('A' for Active; 'I' for Inactive)
REMARK    1  A    between atoms: C_2  and  C_3
REMARK    2  A    between atoms: C_3  and  O_4
REMARK    3  A    between atoms: O_4  and  C_5
REMARK    4  A    between atoms: C_5  and  C_6
REMARK    5  A    between atoms: C_8  and  C_9
REMARK    6  A    between atoms: N_16  and  C_17
REMARK                            x       y       z     vdW  Elec       q    Type
REMARK                         _______ _______ _______ _____ _____    ______ ____
ROOT
ATOM      1  O   UNL     1       7.161   5.636  17.759  0.00  0.00    +0.000 OA
ENDROOT
BRANCH   1   2
ATOM      2  C   UNL     1       6.163   4.874  18.435  0.00  0.00    +0.000 C 
BRANCH   2   4
ATOM      3  O   UNL     1       4.509   6.525  17.822  0.00  0.00    +0.000 OA
ATOM      4  C   UNL     1       4.729   5.419  18.314  0.00  0.00    +0.000 C 
ATOM      5  N   UNL     1       3.747   4.583  18.781  0.00  0.00    +0.000 N 
ATOM      6  H   UNL     1       4.075   3.791  19.321  0.00  0.00    +0.000 HD
BRANCH   5   7
ATOM      7  C   UNL     1       2.340   4.975  18.838  0.00  0.00    +0.000 C 
ATOM      8  C   UNL     1       1.446   3.916  18.185  0.00  0.00    +0.000 C 
ATOM      9  C   UNL     1       1.449   2.605  18.971  0.00  0.00    +0.000 C 
ATOM     10  C   UNL     1       1.046   2.823  20.429  0.00  0.00    +0.000 C 
ATOM     11  C   UNL     1       1.846   3.935  21.106  0.00  0.00    +0.000 C 
ATOM     12  C   UNL     1       1.880   5.223  20.282  0.00  0.00    +0.000 C 
ENDBRANCH   5   7
ENDBRANCH   2   4
ENDBRANCH   1   2
BRANCH   1  13
ATOM     13  C   UNL     1       7.963   6.371  18.704  0.00  0.00    +0.000 C 
BRANCH  13  14
ATOM     14  C   UNL     1       8.065   7.814  18.345  0.00  0.00    +0.000 A 
ATOM     15  C   UNL     1       8.895   8.788  18.936  0.00  0.00    +0.000 A 
ATOM     16  C   UNL     1       8.658   9.954  18.237  0.00  0.00    +0.000 A 
ATOM     17  O   UNL     1       7.721   9.672  17.276  0.00  0.00    +0.000 OA
ATOM     18  N   UNL     1       7.356   8.337  17.338  0.00  0.00    +0.000 NA
BRANCH  16  19
ATOM     19  C   UNL     1       9.245  11.255  18.410  0.00  0.00    +0.000 A 
ATOM     20  C   UNL     1       8.934  12.410  17.723  0.00  0.00    +0.000 A 
ATOM     21  C   UNL     1       9.728  13.525  18.134  0.00  0.00    +0.000 A 
ATOM     22  C   UNL     1      10.620  13.183  19.124  0.00  0.00    +0.000 A 
ATOM     23  S   UNL     1      10.490  11.538  19.559  0.00  0.00    +0.000 S 
ENDBRANCH  16  19
ENDBRANCH  13  14
ENDBRANCH   1  13
TORSDOF 6
ENDMDL
MODEL 8
REMARK VINA RESULT:      -6.8      5.087      8.928
REMARK  Name = 
REMARK  6 active torsions:
REMARK  status: ('A' for Active; 'I' for Inactive)
REMARK    1  A    between atoms: C_2  and  C_3
REMARK    2  A    between atoms: C_3  and  O_4
REMARK    3  A    between atoms: O_4  and  C_5
REMARK    4  A    between atoms: C_5  and  C_6
REMARK    5  A    between atoms: C_8  and  C_9
REMARK    6  A    between atoms: N_16  and  C_17
REMARK                            x       y       z     vdW  Elec       q    Type
REMARK                         _______ _______ _______ _____ _____    ______ ____
ROOT
ATOM      1  O   UNL     1       6.909   5.469  19.761  0.00  0.00    +0.000 OA
ENDROOT
BRANCH   1   2
ATOM      2  C   UNL     1       5.565   5.356  19.297  0.00  0.00    +0.000 C 
BRANCH   2   4
ATOM      3  O   UNL     1       5.490   3.035  18.634  0.00  0.00    +0.000 OA
ATOM      4  C   UNL     1       4.985   3.931  19.308  0.00  0.00    +0.000 C 
ATOM      5  N   UNL     1       3.895   3.752  20.121  0.00  0.00    +0.000 N 
ATOM      6  H   UNL     1       3.476   4.604  20.475  0.00  0.00    +0.000 HD
BRANCH   5   7
ATOM      7  C   UNL     1       3.155   2.494  20.180  0.00  0.00    +0.000 C 
ATOM      8  C   UNL     1       1.938   2.613  21.104  0.00  0.00    +0.000 C 
ATOM      9  C   UNL     1       0.893   3.578  20.547  0.00  0.00    +0.000 C 
ATOM     10  C   UNL     1       0.459   3.183  19.136  0.00  0.00    +0.000 C 
ATOM     11  C   UNL     1       1.639   2.961  18.192  0.00  0.00    +0.000 C 
ATOM     12  C   UNL     1       2.703   2.037  18.786  0.00  0.00    +0.000 C 
ENDBRANCH   5   7
ENDBRANCH   2   4
ENDBRANCH   1   2
BRANCH   1  13
ATOM     13  C   UNL     1       7.711   6.204  18.816  0.00  0.00    +0.000 C 
BRANCH  13  14
ATOM     14  C   UNL     1       7.180   6.090  17.428  0.00  0.00    +0.000 A 
ATOM     15  C   UNL     1       7.431   5.063  16.496  0.00  0.00    +0.000 A 
ATOM     16  C   UNL     1       6.691   5.386  15.378  0.00  0.00    +0.000 A 
ATOM     17  O   UNL     1       6.036   6.561  15.645  0.00  0.00    +0.000 OA
ATOM     18  N   UNL     1       6.336   6.997  16.925  0.00  0.00    +0.000 NA
BRANCH  16  19
ATOM     19  C   UNL     1       6.565   4.677  14.133  0.00  0.00    +0.000 A 
ATOM     20  C   UNL     1       5.569   3.793  13.771  0.00  0.00    +0.000 A 
ATOM     21  C   UNL     1       5.763   3.252  12.463  0.00  0.00    +0.000 A 
ATOM     22  C   UNL     1       6.902   3.743  11.867  0.00  0.00    +0.000 A 
ATOM     23  S   UNL     1       7.719   4.853  12.873  0.00  0.00    +0.000 S 
ENDBRANCH  16  19
ENDBRANCH  13  14
ENDBRANCH   1  13
TORSDOF 6
ENDMDL
MODEL 9
REMARK VINA RESULT:      -6.8      1.767      2.363
REMARK  Name = 
REMARK  6 active torsions:
REMARK  status: ('A' for Active; 'I' for Inactive)
REMARK    1  A    between atoms: C_2  and  C_3
REMARK    2  A    between atoms: C_3  and  O_4
REMARK    3  A    between atoms: O_4  and  C_5
REMARK    4  A    between atoms: C_5  and  C_6
REMARK    5  A    between atoms: C_8  and  C_9
REMARK    6  A    between atoms: N_16  and  C_17
REMARK                            x       y       z     vdW  Elec       q    Type
REMARK                         _______ _______ _______ _____ _____    ______ ____
ROOT
ATOM      1  O   UNL     1       7.670   7.158  17.106  0.00  0.00    +0.000 OA
ENDROOT
BRANCH   1   2
ATOM      2  C   UNL     1       8.200   7.907  18.198  0.00  0.00    +0.000 C 
BRANCH   2   4
ATOM      3  O   UNL     1       7.298   9.990  17.373  0.00  0.00    +0.000 OA
ATOM      4  C   UNL     1       8.190   9.434  18.011  0.00  0.00    +0.000 C 
ATOM      5  N   UNL     1       9.228  10.101  18.610  0.00  0.00    +0.000 N 
ATOM      6  H   UNL     1       9.983   9.512  18.945  0.00  0.00    +0.000 HD
BRANCH   5   7
ATOM      7  C   UNL     1       9.436  11.539  18.454  0.00  0.00    +0.000 C 
ATOM      8  C   UNL     1       9.363  12.256  19.807  0.00  0.00    +0.000 C 
ATOM      9  C   UNL     1      10.518  11.860  20.725  0.00  0.00    +0.000 C 
ATOM     10  C   UNL     1      11.872  12.104  20.061  0.00  0.00    +0.000 C 
ATOM     11  C   UNL     1      11.970  11.486  18.667  0.00  0.00    +0.000 C 
ATOM     12  C   UNL     1      10.779  11.847  17.777  0.00  0.00    +0.000 C 
ENDBRANCH   5   7
ENDBRANCH   2   4
ENDBRANCH   1   2
BRANCH   1  13
ATOM     13  C   UNL     1       7.377   5.807  17.514  0.00  0.00    +0.000 C 
BRANCH  13  14
ATOM     14  C   UNL     1       5.916   5.588  17.709  0.00  0.00    +0.000 A 
ATOM     15  C   UNL     1       5.286   4.463  18.279  0.00  0.00    +0.000 A 
ATOM     16  C   UNL     1       3.937   4.748  18.273  0.00  0.00    +0.000 A 
ATOM     17  O   UNL     1       3.783   5.992  17.716  0.00  0.00    +0.000 OA
ATOM     18  N   UNL     1       5.017   6.519  17.370  0.00  0.00    +0.000 NA
BRANCH  16  19
ATOM     19  C   UNL     1       2.835   3.956  18.749  0.00  0.00    +0.000 A 
ATOM     20  C   UNL     1       1.719   3.563  18.040  0.00  0.00    +0.000 A 
ATOM     21  C   UNL     1       0.807   2.797  18.830  0.00  0.00    +0.000 A 
ATOM     22  C   UNL     1       1.260   2.629  20.118  0.00  0.00    +0.000 A 
ATOM     23  S   UNL     1       2.772   3.378  20.366  0.00  0.00    +0.000 S 
ENDBRANCH  16  19
ENDBRANCH  13  14
ENDBRANCH   1  13
TORSDOF 6
ENDMDL
