MODEL 1
REMARK VINA RESULT:      -7.8      0.000      0.000
REMARK  Name = 
REMARK  4 active torsions:
REMARK  status: ('A' for Active; 'I' for Inactive)
REMARK    1  A    between atoms: C_1  and  C_2
REMARK    2  A    between atoms: C_5  and  S_6
REMARK    3  A    between atoms: S_6  and  N_9
REMARK    4  A    between atoms: C_15  and  C_16
REMARK                            x       y       z     vdW  Elec       q    Type
REMARK                         _______ _______ _______ _____ _____    ______ ____
ROOT
ATOM      1  N   UNL     1       3.759   5.621  17.904  0.00  0.00    +0.000 NA
ATOM      2  C   UNL     1       4.309   6.944  17.486  0.00  0.00    +0.000 C 
ATOM      3  C   UNL     1       3.208   7.858  16.965  0.00  0.00    +0.000 C 
ATOM      4  C   UNL     1       2.293   8.083  18.115  0.00  0.00    +0.000 C 
ATOM      5 BR   UNL     1       1.881   9.848  18.540  0.00  0.00    +0.000 Br
ATOM      6  C   UNL     1       1.929   7.036  18.859  0.00  0.00    +0.000 C 
ATOM      7  C   UNL     1       2.379   5.614  18.513  0.00  0.00    +0.000 C 
ENDROOT
BRANCH   7   8
ATOM      8  C   UNL     1       2.020   4.593  19.590  0.00  0.00    +0.000 A 
ATOM      9  C   UNL     1       1.152   3.534  19.259  0.00  0.00    +0.000 A 
ATOM     10  C   UNL     1       0.888   2.499  20.159  0.00  0.00    +0.000 A 
ATOM     11  C   UNL     1       1.443   2.529  21.433  0.00  0.00    +0.000 A 
ATOM     12  C   UNL     1       2.229   3.612  21.818  0.00  0.00    +0.000 A 
ATOM     13  C   UNL     1       2.511   4.639  20.908  0.00  0.00    +0.000 A 
ENDBRANCH   7   8
BRANCH   1  14
ATOM     14  S   UNL     1       4.937   4.411  18.078  0.00  0.00    +0.000 S 
ATOM     15  O   UNL     1       4.233   3.141  18.135  0.00  0.00    +0.000 OA
ATOM     16  O   UNL     1       5.885   4.727  19.117  0.00  0.00    +0.000 OA
BRANCH  14  21
ATOM     17  C   UNL     1       7.693   5.006  12.711  0.00  0.00    +0.000 C 
ATOM     18  C   UNL     1       7.043   4.773  14.041  0.00  0.00    +0.000 A 
ATOM     19  C   UNL     1       7.705   5.116  15.223  0.00  0.00    +0.000 A 
ATOM     20  C   UNL     1       7.089   4.913  16.455  0.00  0.00    +0.000 A 
ATOM     21  C   UNL     1       5.781   4.449  16.514  0.00  0.00    +0.000 A 
ATOM     22  C   UNL     1       5.132   4.036  15.349  0.00  0.00    +0.000 A 
ATOM     23  C   UNL     1       5.768   4.192  14.115  0.00  0.00    +0.000 A 
ENDBRANCH  14  21
ENDBRANCH   1  14
TORSDOF 3
ENDMDL
MODEL 2
REMARK VINA RESULT:      -7.7      2.504      5.006
REMARK  Name = 
REMARK  4 active torsions:
REMARK  status: ('A' for Active; 'I' for Inactive)
REMARK    1  A    between atoms: C_1  and  C_2
REMARK    2  A    between atoms: C_5  and  S_6
REMARK    3  A    between atoms: S_6  and  N_9
REMARK    4  A    between atoms: C_15  and  C_16
REMARK                            x       y       z     vdW  Elec       q    Type
REMARK                         _______ _______ _______ _____ _____    ______ ____
ROOT
ATOM      1  N   UNL     1       5.828   4.350  17.590  0.00  0.00    +0.000 NA
ATOM      2  C   UNL     1       6.770   5.061  16.676  0.00  0.00    +0.000 C 
ATOM      3  C   UNL     1       7.228   4.152  15.544  0.00  0.00    +0.000 C 
ATOM      4  C   UNL     1       6.002   3.821  14.772  0.00  0.00    +0.000 C 
ATOM      5 BR   UNL     1       6.051   4.108  12.933  0.00  0.00    +0.000 Br
ATOM      6  C   UNL     1       4.900   3.472  15.439  0.00  0.00    +0.000 C 
ATOM      7  C   UNL     1       4.894   3.343  16.964  0.00  0.00    +0.000 C 
ENDROOT
BRANCH   7   8
ATOM      8  C   UNL     1       3.498   3.127  17.543  0.00  0.00    +0.000 A 
ATOM      9  C   UNL     1       3.294   2.060  18.440  0.00  0.00    +0.000 A 
ATOM     10  C   UNL     1       2.076   1.887  19.101  0.00  0.00    +0.000 A 
ATOM     11  C   UNL     1       1.015   2.746  18.839  0.00  0.00    +0.000 A 
ATOM     12  C   UNL     1       1.161   3.752  17.888  0.00  0.00    +0.000 A 
ATOM     13  C   UNL     1       2.389   3.939  17.240  0.00  0.00    +0.000 A 
ENDBRANCH   7   8
BRANCH   1  14
ATOM     14  S   UNL     1       5.614   5.117  19.090  0.00  0.00    +0.000 S 
ATOM     15  O   UNL     1       6.774   5.966  19.299  0.00  0.00    +0.000 OA
ATOM     16  O   UNL     1       5.239   4.184  20.124  0.00  0.00    +0.000 OA
BRANCH  14  21
ATOM     17  C   UNL     1       1.200   9.186  18.245  0.00  0.00    +0.000 C 
ATOM     18  C   UNL     1       2.238   8.117  18.413  0.00  0.00    +0.000 A 
ATOM     19  C   UNL     1       3.249   7.957  17.462  0.00  0.00    +0.000 A 
ATOM     20  C   UNL     1       4.221   6.975  17.632  0.00  0.00    +0.000 A 
ATOM     21  C   UNL     1       4.241   6.205  18.788  0.00  0.00    +0.000 A 
ATOM     22  C   UNL     1       3.200   6.304  19.713  0.00  0.00    +0.000 A 
ATOM     23  C   UNL     1       2.195   7.255  19.519  0.00  0.00    +0.000 A 
ENDBRANCH  14  21
ENDBRANCH   1  14
TORSDOF 3
ENDMDL
MODEL 3
REMARK VINA RESULT:      -7.7      0.135      1.012
REMARK  Name = 
REMARK  4 active torsions:
REMARK  status: ('A' for Active; 'I' for Inactive)
REMARK    1  A    between atoms: C_1  and  C_2
REMARK    2  A    between atoms: C_5  and  S_6
REMARK    3  A    between atoms: S_6  and  N_9
REMARK    4  A    between atoms: C_15  and  C_16
REMARK                            x       y       z     vdW  Elec       q    Type
REMARK                         _______ _______ _______ _____ _____    ______ ____
ROOT
ATOM      1  N   UNL     1       3.814   5.577  17.835  0.00  0.00    +0.000 NA
ATOM      2  C   UNL     1       4.341   6.929  17.481  0.00  0.00    +0.000 C 
ATOM      3  C   UNL     1       3.230   7.835  16.971  0.00  0.00    +0.000 C 
ATOM      4  C   UNL     1       2.285   7.995  18.107  0.00  0.00    +0.000 C 
ATOM      5 BR   UNL     1       1.821   9.732  18.590  0.00  0.00    +0.000 Br
ATOM      6  C   UNL     1       1.931   6.912  18.802  0.00  0.00    +0.000 C 
ATOM      7  C   UNL     1       2.421   5.515  18.412  0.00  0.00    +0.000 C 
ENDROOT
BRANCH   7   8
ATOM      8  C   UNL     1       2.064   4.445  19.441  0.00  0.00    +0.000 A 
ATOM      9  C   UNL     1       2.601   4.546  20.739  0.00  0.00    +0.000 A 
ATOM     10  C   UNL     1       2.212   3.674  21.759  0.00  0.00    +0.000 A 
ATOM     11  C   UNL     1       1.317   2.646  21.489  0.00  0.00    +0.000 A 
ATOM     12  C   UNL     1       0.843   2.466  20.193  0.00  0.00    +0.000 A 
ATOM     13  C   UNL     1       1.217   3.353  19.175  0.00  0.00    +0.000 A 
ENDBRANCH   7   8
BRANCH   1  14
ATOM     14  S   UNL     1       5.017   4.389  17.989  0.00  0.00    +0.000 S 
ATOM     15  O   UNL     1       4.338   3.107  18.060  0.00  0.00    +0.000 OA
ATOM     16  O   UNL     1       5.978   4.724  19.011  0.00  0.00    +0.000 OA
BRANCH  14  21
ATOM     17  C   UNL     1       7.666   5.027  12.573  0.00  0.00    +0.000 C 
ATOM     18  C   UNL     1       7.043   4.783  13.915  0.00  0.00    +0.000 A 
ATOM     19  C   UNL     1       7.722   5.136  15.085  0.00  0.00    +0.000 A 
ATOM     20  C   UNL     1       7.132   4.924  16.328  0.00  0.00    +0.000 A 
ATOM     21  C   UNL     1       5.832   4.440  16.410  0.00  0.00    +0.000 A 
ATOM     22  C   UNL     1       5.168   4.018  15.257  0.00  0.00    +0.000 A 
ATOM     23  C   UNL     1       5.779   4.184  14.012  0.00  0.00    +0.000 A 
ENDBRANCH  14  21
ENDBRANCH   1  14
TORSDOF 3
ENDMDL
MODEL 4
REMARK VINA RESULT:      -7.5      2.501      4.999
REMARK  Name = 
REMARK  4 active torsions:
REMARK  status: ('A' for Active; 'I' for Inactive)
REMARK    1  A    between atoms: C_1  and  C_2
REMARK    2  A    between atoms: C_5  and  S_6
REMARK    3  A    between atoms: S_6  and  N_9
REMARK    4  A    between atoms: C_15  and  C_16
REMARK                            x       y       z     vdW  Elec       q    Type
REMARK                         _______ _______ _______ _____ _____    ______ ____
ROOT
ATOM      1  N   UNL     1       6.038   4.544  17.240  0.00  0.00    +0.000 NA
ATOM      2  C   UNL     1       6.824   5.224  16.169  0.00  0.00    +0.000 C 
ATOM      3  C   UNL     1       7.179   4.256  15.048  0.00  0.00    +0.000 C 
ATOM      4  C   UNL     1       5.883   3.825  14.463  0.00  0.00    +0.000 C 
ATOM      5 BR   UNL     1       5.688   3.984  12.618  0.00  0.00    +0.000 Br
ATOM      6  C   UNL     1       4.890   3.482  15.286  0.00  0.00    +0.000 C 
ATOM      7  C   UNL     1       5.082   3.461  16.805  0.00  0.00    +0.000 C 
ENDROOT
BRANCH   7   8
ATOM      8  C   UNL     1       3.781   3.233  17.571  0.00  0.00    +0.000 A 
ATOM      9  C   UNL     1       2.627   3.935  17.172  0.00  0.00    +0.000 A 
ATOM     10  C   UNL     1       1.380   3.676  17.746  0.00  0.00    +0.000 A 
ATOM     11  C   UNL     1       1.269   2.745  18.773  0.00  0.00    +0.000 A 
ATOM     12  C   UNL     1       2.410   2.106  19.251  0.00  0.00    +0.000 A 
ATOM     13  C   UNL     1       3.656   2.350  18.660  0.00  0.00    +0.000 A 
ENDBRANCH   7   8
BRANCH   1  14
ATOM     14  S   UNL     1       5.978   5.405  18.702  0.00  0.00    +0.000 S 
ATOM     15  O   UNL     1       7.067   6.366  18.671  0.00  0.00    +0.000 OA
ATOM     16  O   UNL     1       5.857   4.528  19.840  0.00  0.00    +0.000 OA
BRANCH  14  21
ATOM     17  C   UNL     1       1.090   8.977  18.375  0.00  0.00    +0.000 C 
ATOM     18  C   UNL     1       2.250   8.028  18.414  0.00  0.00    +0.000 A 
ATOM     19  C   UNL     1       3.211   8.043  17.399  0.00  0.00    +0.000 A 
ATOM     20  C   UNL     1       4.296   7.172  17.449  0.00  0.00    +0.000 A 
ATOM     21  C   UNL     1       4.476   6.343  18.550  0.00  0.00    +0.000 A 
ATOM     22  C   UNL     1       3.491   6.266  19.536  0.00  0.00    +0.000 A 
ATOM     23  C   UNL     1       2.375   7.104  19.461  0.00  0.00    +0.000 A 
ENDBRANCH  14  21
ENDBRANCH   1  14
TORSDOF 3
ENDMDL
MODEL 5
REMARK VINA RESULT:      -7.4      2.523      4.974
REMARK  Name = 
REMARK  4 active torsions:
REMARK  status: ('A' for Active; 'I' for Inactive)
REMARK    1  A    between atoms: C_1  and  C_2
REMARK    2  A    between atoms: C_5  and  S_6
REMARK    3  A    between atoms: S_6  and  N_9
REMARK    4  A    between atoms: C_15  and  C_16
REMARK                            x       y       z     vdW  Elec       q    Type
REMARK                         _______ _______ _______ _____ _____    ______ ____
ROOT
ATOM      1  N   UNL     1       5.829   4.294  17.736  0.00  0.00    +0.000 NA
ATOM      2  C   UNL     1       6.826   5.024  16.898  0.00  0.00    +0.000 C 
ATOM      3  C   UNL     1       7.315   4.158  15.746  0.00  0.00    +0.000 C 
ATOM      4  C   UNL     1       6.118   3.891  14.906  0.00  0.00    +0.000 C 
ATOM      5 BR   UNL     1       6.256   4.261  13.087  0.00  0.00    +0.000 Br
ATOM      6  C   UNL     1       4.980   3.537  15.507  0.00  0.00    +0.000 C 
ATOM      7  C   UNL     1       4.904   3.339  17.023  0.00  0.00    +0.000 C 
ENDROOT
BRANCH   7   8
ATOM      8  C   UNL     1       3.479   3.129  17.529  0.00  0.00    +0.000 A 
ATOM      9  C   UNL     1       3.199   1.995  18.317  0.00  0.00    +0.000 A 
ATOM     10  C   UNL     1       1.951   1.813  18.916  0.00  0.00    +0.000 A 
ATOM     11  C   UNL     1       0.934   2.735  18.696  0.00  0.00    +0.000 A 
ATOM     12  C   UNL     1       1.155   3.815  17.845  0.00  0.00    +0.000 A 
ATOM     13  C   UNL     1       2.414   4.009  17.261  0.00  0.00    +0.000 A 
ENDBRANCH   7   8
BRANCH   1  14
ATOM     14  S   UNL     1       5.564   4.996  19.259  0.00  0.00    +0.000 S 
ATOM     15  O   UNL     1       6.778   5.711  19.612  0.00  0.00    +0.000 OA
ATOM     16  O   UNL     1       5.015   4.051  20.200  0.00  0.00    +0.000 OA
BRANCH  14  21
ATOM     17  C   UNL     1       1.101   8.866  17.893  0.00  0.00    +0.000 C 
ATOM     18  C   UNL     1       2.248   7.978  18.273  0.00  0.00    +0.000 A 
ATOM     19  C   UNL     1       2.193   7.214  19.443  0.00  0.00    +0.000 A 
ATOM     20  C   UNL     1       3.254   6.377  19.782  0.00  0.00    +0.000 A 
ATOM     21  C   UNL     1       4.333   6.232  18.919  0.00  0.00    +0.000 A 
ATOM     22  C   UNL     1       4.435   7.039  17.784  0.00  0.00    +0.000 A 
ATOM     23  C   UNL     1       3.395   7.917  17.468  0.00  0.00    +0.000 A 
ENDBRANCH  14  21
ENDBRANCH   1  14
TORSDOF 3
ENDMDL
MODEL 6
REMARK VINA RESULT:      -7.4      0.327      1.056
REMARK  Name = 
REMARK  4 active torsions:
REMARK  status: ('A' for Active; 'I' for Inactive)
REMARK    1  A    between atoms: C_1  and  C_2
REMARK    2  A    between atoms: C_5  and  S_6
REMARK    3  A    between atoms: S_6  and  N_9
REMARK    4  A    between atoms: C_15  and  C_16
REMARK                            x       y       z     vdW  Elec       q    Type
REMARK                         _______ _______ _______ _____ _____    ______ ____
ROOT
ATOM      1  N   UNL     1       3.649   5.846  18.046  0.00  0.00    +0.000 NA
ATOM      2  C   UNL     1       4.133   7.214  17.693  0.00  0.00    +0.000 C 
ATOM      3  C   UNL     1       2.984   8.103  17.240  0.00  0.00    +0.000 C 
ATOM      4  C   UNL     1       2.080   8.225  18.413  0.00  0.00    +0.000 C 
ATOM      5 BR   UNL     1       1.597   9.944  18.941  0.00  0.00    +0.000 Br
ATOM      6  C   UNL     1       1.776   7.124  19.104  0.00  0.00    +0.000 C 
ATOM      7  C   UNL     1       2.281   5.744  18.674  0.00  0.00    +0.000 C 
ENDROOT
BRANCH   7   8
ATOM      8  C   UNL     1       1.987   4.652  19.699  0.00  0.00    +0.000 A 
ATOM      9  C   UNL     1       1.161   3.574  19.323  0.00  0.00    +0.000 A 
ATOM     10  C   UNL     1       0.958   2.481  20.169  0.00  0.00    +0.000 A 
ATOM     11  C   UNL     1       1.534   2.466  21.434  0.00  0.00    +0.000 A 
ATOM     12  C   UNL     1       2.278   3.561  21.866  0.00  0.00    +0.000 A 
ATOM     13  C   UNL     1       2.499   4.647  21.010  0.00  0.00    +0.000 A 
ENDBRANCH   7   8
BRANCH   1  14
ATOM     14  S   UNL     1       4.882   4.683  18.135  0.00  0.00    +0.000 S 
ATOM     15  O   UNL     1       4.234   3.389  18.261  0.00  0.00    +0.000 OA
ATOM     16  O   UNL     1       5.898   5.047  19.092  0.00  0.00    +0.000 OA
BRANCH  14  21
ATOM     17  C   UNL     1       7.421   4.384  12.638  0.00  0.00    +0.000 C 
ATOM     18  C   UNL     1       6.771   4.545  13.979  0.00  0.00    +0.000 A 
ATOM     19  C   UNL     1       5.434   4.185  14.165  0.00  0.00    +0.000 A 
ATOM     20  C   UNL     1       4.840   4.320  15.417  0.00  0.00    +0.000 A 
ATOM     21  C   UNL     1       5.596   4.732  16.508  0.00  0.00    +0.000 A 
ATOM     22  C   UNL     1       6.912   5.162  16.325  0.00  0.00    +0.000 A 
ATOM     23  C   UNL     1       7.494   5.075  15.058  0.00  0.00    +0.000 A 
ENDBRANCH  14  21
ENDBRANCH   1  14
TORSDOF 3
ENDMDL
MODEL 7
REMARK VINA RESULT:      -7.3      0.373      1.466
REMARK  Name = 
REMARK  4 active torsions:
REMARK  status: ('A' for Active; 'I' for Inactive)
REMARK    1  A    between atoms: C_1  and  C_2
REMARK    2  A    between atoms: C_5  and  S_6
REMARK    3  A    between atoms: S_6  and  N_9
REMARK    4  A    between atoms: C_15  and  C_16
REMARK                            x       y       z     vdW  Elec       q    Type
REMARK                         _______ _______ _______ _____ _____    ______ ____
ROOT
ATOM      1  N   UNL     1       3.724   5.730  17.791  0.00  0.00    +0.000 NA
ATOM      2  C   UNL     1       4.219   7.102  17.473  0.00  0.00    +0.000 C 
ATOM      3  C   UNL     1       3.076   8.015  17.053  0.00  0.00    +0.000 C 
ATOM      4  C   UNL     1       2.182   8.113  18.236  0.00  0.00    +0.000 C 
ATOM      5 BR   UNL     1       1.721   9.821  18.814  0.00  0.00    +0.000 Br
ATOM      6  C   UNL     1       1.872   6.996  18.898  0.00  0.00    +0.000 C 
ATOM      7  C   UNL     1       2.360   5.624  18.426  0.00  0.00    +0.000 C 
ENDROOT
BRANCH   7   8
ATOM      8  C   UNL     1       2.062   4.507  19.423  0.00  0.00    +0.000 A 
ATOM      9  C   UNL     1       2.585   4.603  20.727  0.00  0.00    +0.000 A 
ATOM     10  C   UNL     1       2.244   3.681  21.720  0.00  0.00    +0.000 A 
ATOM     11  C   UNL     1       1.412   2.610  21.415  0.00  0.00    +0.000 A 
ATOM     12  C   UNL     1       0.957   2.438  20.111  0.00  0.00    +0.000 A 
ATOM     13  C   UNL     1       1.282   3.374  19.121  0.00  0.00    +0.000 A 
ENDBRANCH   7   8
BRANCH   1  14
ATOM     14  S   UNL     1       4.946   4.552  17.839  0.00  0.00    +0.000 S 
ATOM     15  O   UNL     1       4.287   3.265  17.976  0.00  0.00    +0.000 OA
ATOM     16  O   UNL     1       5.993   4.900  18.768  0.00  0.00    +0.000 OA
BRANCH  14  21
ATOM     17  C   UNL     1       7.327   4.256  12.271  0.00  0.00    +0.000 C 
ATOM     18  C   UNL     1       6.716   4.417  13.631  0.00  0.00    +0.000 A 
ATOM     19  C   UNL     1       5.383   4.060  13.854  0.00  0.00    +0.000 A 
ATOM     20  C   UNL     1       4.826   4.195  15.123  0.00  0.00    +0.000 A 
ATOM     21  C   UNL     1       5.613   4.603  16.193  0.00  0.00    +0.000 A 
ATOM     22  C   UNL     1       6.925   5.029  15.973  0.00  0.00    +0.000 A 
ATOM     23  C   UNL     1       7.471   4.943  14.690  0.00  0.00    +0.000 A 
ENDBRANCH  14  21
ENDBRANCH   1  14
TORSDOF 3
ENDMDL
MODEL 8
REMARK VINA RESULT:      -7.2      2.516      4.950
REMARK  Name = 
REMARK  4 active torsions:
REMARK  status: ('A' for Active; 'I' for Inactive)
REMARK    1  A    between atoms: C_1  and  C_2
REMARK    2  A    between atoms: C_5  and  S_6
REMARK    3  A    between atoms: S_6  and  N_9
REMARK    4  A    between atoms: C_15  and  C_16
REMARK                            x       y       z     vdW  Elec       q    Type
REMARK                         _______ _______ _______ _____ _____    ______ ____
ROOT
ATOM      1  N   UNL     1       5.978   4.389  17.449  0.00  0.00    +0.000 NA
ATOM      2  C   UNL     1       6.853   5.086  16.460  0.00  0.00    +0.000 C 
ATOM      3  C   UNL     1       7.222   4.163  15.307  0.00  0.00    +0.000 C 
ATOM      4  C   UNL     1       5.942   3.829  14.631  0.00  0.00    +0.000 C 
ATOM      5 BR   UNL     1       5.856   4.096  12.791  0.00  0.00    +0.000 Br
ATOM      6  C   UNL     1       4.890   3.492  15.382  0.00  0.00    +0.000 C 
ATOM      7  C   UNL     1       4.997   3.380  16.904  0.00  0.00    +0.000 C 
ENDROOT
BRANCH   7   8
ATOM      8  C   UNL     1       3.647   3.176  17.587  0.00  0.00    +0.000 A 
ATOM      9  C   UNL     1       2.577   4.024  17.240  0.00  0.00    +0.000 A 
ATOM     10  C   UNL     1       1.287   3.809  17.732  0.00  0.00    +0.000 A 
ATOM     11  C   UNL     1       1.049   2.771  18.625  0.00  0.00    +0.000 A 
ATOM     12  C   UNL     1       2.107   1.976  19.058  0.00  0.00    +0.000 A 
ATOM     13  C   UNL     1       3.396   2.179  18.549  0.00  0.00    +0.000 A 
ENDBRANCH   7   8
BRANCH   1  14
ATOM     14  S   UNL     1       5.878   5.172  18.952  0.00  0.00    +0.000 S 
ATOM     15  O   UNL     1       7.079   5.977  19.089  0.00  0.00    +0.000 OA
ATOM     16  O   UNL     1       5.527   4.261  20.013  0.00  0.00    +0.000 OA
BRANCH  14  21
ATOM     17  C   UNL     1       1.047   8.695  17.948  0.00  0.00    +0.000 C 
ATOM     18  C   UNL     1       2.280   7.895  18.240  0.00  0.00    +0.000 A 
ATOM     19  C   UNL     1       2.346   7.084  19.376  0.00  0.00    +0.000 A 
ATOM     20  C   UNL     1       3.487   6.329  19.633  0.00  0.00    +0.000 A 
ATOM     21  C   UNL     1       4.533   6.311  18.719  0.00  0.00    +0.000 A 
ATOM     22  C   UNL     1       4.513   7.167  17.616  0.00  0.00    +0.000 A 
ATOM     23  C   UNL     1       3.389   7.964  17.383  0.00  0.00    +0.000 A 
ENDBRANCH  14  21
ENDBRANCH   1  14
TORSDOF 3
ENDMDL
MODEL 9
REMARK VINA RESULT:      -7.0      5.408      7.672
REMARK  Name = 
REMARK  4 active torsions:
REMARK  status: ('A' for Active; 'I' for Inactive)
REMARK    1  A    between atoms: C_1  and  C_2
REMARK    2  A    between atoms: C_5  and  S_6
REMARK    3  A    between atoms: S_6  and  N_9
REMARK    4  A    between atoms: C_15  and  C_16
REMARK                            x       y       z     vdW  Elec       q    Type
REMARK                         _______ _______ _______ _____ _____    ______ ____
ROOT
ATOM      1  N   UNL     1       0.807  11.682  19.808  0.00  0.00    +0.000 NA
ATOM      2  C   UNL     1       1.628  12.726  20.487  0.00  0.00    +0.000 C 
ATOM      3  C   UNL     1       2.147  13.753  19.490  0.00  0.00    +0.000 C 
ATOM      4  C   UNL     1       0.940  14.413  18.926  0.00  0.00    +0.000 C 
ATOM      5 BR   UNL     1       0.891  16.274  18.967  0.00  0.00    +0.000 Br
ATOM      6  C   UNL     1      -0.091  13.652  18.553  0.00  0.00    +0.000 C 
ATOM      7  C   UNL     1      -0.027  12.124  18.631  0.00  0.00    +0.000 C 
ENDROOT
BRANCH   7   8
ATOM      8  C   UNL     1      -1.368  11.453  18.344  0.00  0.00    +0.000 A 
ATOM      9  C   UNL     1      -2.541  12.031  18.865  0.00  0.00    +0.000 A 
ATOM     10  C   UNL     1      -3.806  11.540  18.533  0.00  0.00    +0.000 A 
ATOM     11  C   UNL     1      -3.924  10.424  17.714  0.00  0.00    +0.000 A 
ATOM     12  C   UNL     1      -2.778   9.776  17.261  0.00  0.00    +0.000 A 
ATOM     13  C   UNL     1      -1.510  10.281  17.577  0.00  0.00    +0.000 A 
ENDBRANCH   7   8
BRANCH   1  14
ATOM     14  S   UNL     1       0.560  10.285  20.741  0.00  0.00    +0.000 S 
ATOM     15  O   UNL     1      -0.863   9.999  20.706  0.00  0.00    +0.000 OA
ATOM     16  O   UNL     1       1.222  10.369  22.020  0.00  0.00    +0.000 OA
BRANCH  14  21
ATOM     17  C   UNL     1       3.680   6.105  17.651  0.00  0.00    +0.000 C 
ATOM     18  C   UNL     1       2.831   7.103  18.379  0.00  0.00    +0.000 A 
ATOM     19  C   UNL     1       2.411   6.853  19.689  0.00  0.00    +0.000 A 
ATOM     20  C   UNL     1       1.638   7.791  20.367  0.00  0.00    +0.000 A 
ATOM     21  C   UNL     1       1.352   9.018  19.779  0.00  0.00    +0.000 A 
ATOM     22  C   UNL     1       1.704   9.255  18.449  0.00  0.00    +0.000 A 
ATOM     23  C   UNL     1       2.437   8.293  17.749  0.00  0.00    +0.000 A 
ENDBRANCH  14  21
ENDBRANCH   1  14
TORSDOF 3
ENDMDL
