MODEL 1
REMARK VINA RESULT:      -8.4      0.000      0.000
REMARK  Name = 
REMARK  5 active torsions:
REMARK  status: ('A' for Active; 'I' for Inactive)
REMARK    1  A    between atoms: C_2  and  C_3
REMARK    2  A    between atoms: C_7  and  C_8
REMARK    3  A    between atoms: C_13  and  C_14
REMARK    4  A    between atoms: N_16  and  C_17
REMARK    5  A    between atoms: N_20  and  C_21
REMARK                            x       y       z     vdW  Elec       q    Type
REMARK                         _______ _______ _______ _____ _____    ______ ____
ROOT
ATOM      1  C   UNL     1       2.693   7.229  18.221  0.00  0.00    +0.000 A 
ATOM      2  C   UNL     1       2.431   8.415  17.398  0.00  0.00    +0.000 A 
ATOM      3  C   UNL     1       1.771   9.493  17.871  0.00  0.00    +0.000 A 
ATOM      4  C   UNL     1       1.299   9.509  19.216  0.00  0.00    +0.000 A 
ATOM      5  N   UNL     1       0.647  10.425  19.917  0.00  0.00    +0.000 NA
ATOM      6  C   UNL     1       0.479   9.870  21.186  0.00  0.00    +0.000 A 
ATOM      7  C   UNL     1       1.033   8.607  21.210  0.00  0.00    +0.000 A 
ATOM      8  F   UNL     1       1.067   7.785  22.224  0.00  0.00    +0.000 F 
ATOM      9  N   UNL     1       1.560   8.369  19.972  0.00  0.00    +0.000 N 
ATOM     10  C   UNL     1       2.242   7.246  19.493  0.00  0.00    +0.000 A 
ENDROOT
BRANCH   1  15
ATOM     11  C   UNL     1       5.316   5.111  16.494  0.00  0.00    +0.000 A 
ATOM     12  C   UNL     1       4.793   3.825  16.671  0.00  0.00    +0.000 A 
ATOM     13  C   UNL     1       3.591   3.653  17.357  0.00  0.00    +0.000 A 
ATOM     14  C   UNL     1       2.911   4.761  17.871  0.00  0.00    +0.000 A 
ATOM     15  C   UNL     1       3.430   6.054  17.714  0.00  0.00    +0.000 A 
ATOM     16  C   UNL     1       4.637   6.220  17.019  0.00  0.00    +0.000 A 
BRANCH  11  18
ATOM     17  N   UNL     1       7.516   5.436  15.157  0.00  0.00    +0.000 NA
ATOM     18  C   UNL     1       6.535   5.291  15.758  0.00  0.00    +0.000 C 
ENDBRANCH  11  18
ENDBRANCH   1  15
BRANCH   6  19
ATOM     19  C   UNL     1      -0.171  10.537  22.320  0.00  0.00    +0.000 C 
ATOM     20  O   UNL     1       0.018  10.200  23.486  0.00  0.00    +0.000 OA
ATOM     21  N   UNL     1      -1.013  11.587  21.994  0.00  0.00    +0.000 N 
ATOM     22  H   UNL     1      -1.211  11.717  21.006  0.00  0.00    +0.000 HD
BRANCH  21  23
ATOM     23  C   UNL     1      -1.787  12.280  23.022  0.00  0.00    +0.000 C 
ATOM     24  C   UNL     1      -3.241  12.539  22.621  0.00  0.00    +0.000 C 
ATOM     25  C   UNL     1      -3.651  13.850  23.290  0.00  0.00    +0.000 C 
ATOM     26  N   UNL     1      -2.443  14.369  23.960  0.00  0.00    +0.000 N 
ATOM     27  C   UNL     1      -1.263  13.680  23.384  0.00  0.00    +0.000 C 
BRANCH  26  28
ATOM     28  C   UNL     1      -2.415  15.322  24.894  0.00  0.00    +0.000 C 
ATOM     29  N   UNL     1      -2.401  16.139  25.719  0.00  0.00    +0.000 NA
ENDBRANCH  26  28
ENDBRANCH  21  23
ENDBRANCH   6  19
TORSDOF 5
ENDMDL
MODEL 2
REMARK VINA RESULT:      -8.2      2.247     10.741
REMARK  Name = 
REMARK  5 active torsions:
REMARK  status: ('A' for Active; 'I' for Inactive)
REMARK    1  A    between atoms: C_2  and  C_3
REMARK    2  A    between atoms: C_7  and  C_8
REMARK    3  A    between atoms: C_13  and  C_14
REMARK    4  A    between atoms: N_16  and  C_17
REMARK    5  A    between atoms: N_20  and  C_21
REMARK                            x       y       z     vdW  Elec       q    Type
REMARK                         _______ _______ _______ _____ _____    ______ ____
ROOT
ATOM      1  C   UNL     1      -0.953  11.230  22.494  0.00  0.00    +0.000 A 
ATOM      2  C   UNL     1      -0.514  10.102  23.323  0.00  0.00    +0.000 A 
ATOM      3  C   UNL     1       0.249   9.100  22.838  0.00  0.00    +0.000 A 
ATOM      4  C   UNL     1       0.660   9.112  21.473  0.00  0.00    +0.000 A 
ATOM      5  N   UNL     1       1.402   8.275  20.763  0.00  0.00    +0.000 NA
ATOM      6  C   UNL     1       1.468   8.832  19.485  0.00  0.00    +0.000 A 
ATOM      7  C   UNL     1       0.738  10.002  19.457  0.00  0.00    +0.000 A 
ATOM      8  F   UNL     1       0.568  10.797  18.436  0.00  0.00    +0.000 F 
ATOM      9  N   UNL     1       0.227  10.193  20.710  0.00  0.00    +0.000 N 
ATOM     10  C   UNL     1      -0.565  11.236  21.201  0.00  0.00    +0.000 A 
ENDROOT
BRANCH   1  15
ATOM     11  C   UNL     1      -3.938  13.218  23.715  0.00  0.00    +0.000 A 
ATOM     12  C   UNL     1      -3.358  14.469  23.952  0.00  0.00    +0.000 A 
ATOM     13  C   UNL     1      -1.996  14.658  23.720  0.00  0.00    +0.000 A 
ATOM     14  C   UNL     1      -1.209  13.600  23.254  0.00  0.00    +0.000 A 
ATOM     15  C   UNL     1      -1.774  12.337  23.025  0.00  0.00    +0.000 A 
ATOM     16  C   UNL     1      -3.145  12.155  23.257  0.00  0.00    +0.000 A 
BRANCH  11  18
ATOM     17  N   UNL     1      -6.484  12.878  24.082  0.00  0.00    +0.000 NA
ATOM     18  C   UNL     1      -5.346  13.033  23.922  0.00  0.00    +0.000 C 
ENDBRANCH  11  18
ENDBRANCH   1  15
BRANCH   6  19
ATOM     19  C   UNL     1       2.213   8.266  18.355  0.00  0.00    +0.000 C 
ATOM     20  O   UNL     1       2.337   8.850  17.282  0.00  0.00    +0.000 OA
ATOM     21  N   UNL     1       2.781   7.022  18.575  0.00  0.00    +0.000 N 
ATOM     22  H   UNL     1       2.525   6.556  19.441  0.00  0.00    +0.000 HD
BRANCH  21  23
ATOM     23  C   UNL     1       3.477   6.310  17.505  0.00  0.00    +0.000 C 
ATOM     24  C   UNL     1       3.372   4.788  17.617  0.00  0.00    +0.000 C 
ATOM     25  C   UNL     1       4.674   4.219  17.052  0.00  0.00    +0.000 C 
ATOM     26  N   UNL     1       5.527   5.378  16.730  0.00  0.00    +0.000 N 
ATOM     27  C   UNL     1       4.994   6.560  17.449  0.00  0.00    +0.000 C 
BRANCH  26  28
ATOM     28  C   UNL     1       6.615   5.358  15.956  0.00  0.00    +0.000 C 
ATOM     29  N   UNL     1       7.549   5.343  15.266  0.00  0.00    +0.000 NA
ENDBRANCH  26  28
ENDBRANCH  21  23
ENDBRANCH   6  19
TORSDOF 5
ENDMDL
MODEL 3
REMARK VINA RESULT:      -8.1      1.288      1.782
REMARK  Name = 
REMARK  5 active torsions:
REMARK  status: ('A' for Active; 'I' for Inactive)
REMARK    1  A    between atoms: C_2  and  C_3
REMARK    2  A    between atoms: C_7  and  C_8
REMARK    3  A    between atoms: C_13  and  C_14
REMARK    4  A    between atoms: N_16  and  C_17
REMARK    5  A    between atoms: N_20  and  C_21
REMARK                            x       y       z     vdW  Elec       q    Type
REMARK                         _______ _______ _______ _____ _____    ______ ____
ROOT
ATOM      1  C   UNL     1       2.715   7.394  18.231  0.00  0.00    +0.000 A 
ATOM      2  C   UNL     1       2.358   8.544  17.393  0.00  0.00    +0.000 A 
ATOM      3  C   UNL     1       1.638   9.585  17.860  0.00  0.00    +0.000 A 
ATOM      4  C   UNL     1       1.195   9.597  19.215  0.00  0.00    +0.000 A 
ATOM      5  N   UNL     1       0.498  10.481  19.913  0.00  0.00    +0.000 NA
ATOM      6  C   UNL     1       0.393   9.942  21.197  0.00  0.00    +0.000 A 
ATOM      7  C   UNL     1       1.030   8.719  21.231  0.00  0.00    +0.000 A 
ATOM      8  F   UNL     1       1.139   7.920  22.259  0.00  0.00    +0.000 F 
ATOM      9  N   UNL     1       1.546   8.492  19.987  0.00  0.00    +0.000 N 
ATOM     10  C   UNL     1       2.291   7.407  19.513  0.00  0.00    +0.000 A 
ENDROOT
BRANCH   1  15
ATOM     11  C   UNL     1       3.976   3.869  17.655  0.00  0.00    +0.000 A 
ATOM     12  C   UNL     1       5.094   4.104  16.848  0.00  0.00    +0.000 A 
ATOM     13  C   UNL     1       5.429   5.410  16.489  0.00  0.00    +0.000 A 
ATOM     14  C   UNL     1       4.648   6.482  16.932  0.00  0.00    +0.000 A 
ATOM     15  C   UNL     1       3.517   6.260  17.730  0.00  0.00    +0.000 A 
ATOM     16  C   UNL     1       3.188   4.945  18.090  0.00  0.00    +0.000 A 
BRANCH  11  18
ATOM     17  N   UNL     1       3.396   1.444  18.375  0.00  0.00    +0.000 NA
ATOM     18  C   UNL     1       3.650   2.528  18.052  0.00  0.00    +0.000 C 
ENDBRANCH  11  18
ENDBRANCH   1  15
BRANCH   6  19
ATOM     19  C   UNL     1      -0.275  10.587  22.332  0.00  0.00    +0.000 C 
ATOM     20  O   UNL     1      -0.067  10.261  23.497  0.00  0.00    +0.000 OA
ATOM     21  N   UNL     1      -1.160  11.602  22.008  0.00  0.00    +0.000 N 
ATOM     22  H   UNL     1      -1.368  11.722  21.020  0.00  0.00    +0.000 HD
BRANCH  21  23
ATOM     23  C   UNL     1      -1.954  12.269  23.038  0.00  0.00    +0.000 C 
ATOM     24  C   UNL     1      -3.400  12.533  22.616  0.00  0.00    +0.000 C 
ATOM     25  C   UNL     1      -3.827  13.827  23.310  0.00  0.00    +0.000 C 
ATOM     26  N   UNL     1      -2.633  14.332  24.014  0.00  0.00    +0.000 N 
ATOM     27  C   UNL     1      -1.440  13.661  23.443  0.00  0.00    +0.000 C 
BRANCH  26  28
ATOM     28  C   UNL     1      -2.624  15.263  24.971  0.00  0.00    +0.000 C 
ATOM     29  N   UNL     1      -2.631  16.081  25.794  0.00  0.00    +0.000 NA
ENDBRANCH  26  28
ENDBRANCH  21  23
ENDBRANCH   6  19
TORSDOF 5
ENDMDL
MODEL 4
REMARK VINA RESULT:      -7.8      1.980     10.584
REMARK  Name = 
REMARK  5 active torsions:
REMARK  status: ('A' for Active; 'I' for Inactive)
REMARK    1  A    between atoms: C_2  and  C_3
REMARK    2  A    between atoms: C_7  and  C_8
REMARK    3  A    between atoms: C_13  and  C_14
REMARK    4  A    between atoms: N_16  and  C_17
REMARK    5  A    between atoms: N_20  and  C_21
REMARK                            x       y       z     vdW  Elec       q    Type
REMARK                         _______ _______ _______ _____ _____    ______ ____
ROOT
ATOM      1  C   UNL     1      -0.968  11.248  22.492  0.00  0.00    +0.000 A 
ATOM      2  C   UNL     1      -0.642  10.074  23.307  0.00  0.00    +0.000 A 
ATOM      3  C   UNL     1       0.076   9.036  22.829  0.00  0.00    +0.000 A 
ATOM      4  C   UNL     1       0.550   9.056  21.484  0.00  0.00    +0.000 A 
ATOM      5  N   UNL     1       1.270   8.190  20.784  0.00  0.00    +0.000 NA
ATOM      6  C   UNL     1       1.431   8.773  19.527  0.00  0.00    +0.000 A 
ATOM      7  C   UNL     1       0.780   9.989  19.500  0.00  0.00    +0.000 A 
ATOM      8  F   UNL     1       0.709  10.819  18.495  0.00  0.00    +0.000 F 
ATOM      9  N   UNL     1       0.224  10.182  20.733  0.00  0.00    +0.000 N 
ATOM     10  C   UNL     1      -0.520  11.262  21.218  0.00  0.00    +0.000 A 
ENDROOT
BRANCH   1  15
ATOM     11  C   UNL     1      -1.852  14.734  23.684  0.00  0.00    +0.000 A 
ATOM     12  C   UNL     1      -3.177  14.557  24.095  0.00  0.00    +0.000 A 
ATOM     13  C   UNL     1      -3.780  13.305  23.977  0.00  0.00    +0.000 A 
ATOM     14  C   UNL     1      -3.064  12.228  23.445  0.00  0.00    +0.000 A 
ATOM     15  C   UNL     1      -1.739  12.394  23.016  0.00  0.00    +0.000 A 
ATOM     16  C   UNL     1      -1.138  13.654  23.142  0.00  0.00    +0.000 A 
BRANCH  11  18
ATOM     17  N   UNL     1      -0.712  17.049  23.953  0.00  0.00    +0.000 NA
ATOM     18  C   UNL     1      -1.220  16.014  23.837  0.00  0.00    +0.000 C 
ENDBRANCH  11  18
ENDBRANCH   1  15
BRANCH   6  19
ATOM     19  C   UNL     1       2.189   8.188  18.415  0.00  0.00    +0.000 C 
ATOM     20  O   UNL     1       2.346   8.765  17.343  0.00  0.00    +0.000 OA
ATOM     21  N   UNL     1       2.731   6.937  18.654  0.00  0.00    +0.000 N 
ATOM     22  H   UNL     1       2.449   6.479  19.517  0.00  0.00    +0.000 HD
BRANCH  21  23
ATOM     23  C   UNL     1       3.437   6.207  17.603  0.00  0.00    +0.000 C 
ATOM     24  C   UNL     1       3.179   4.699  17.628  0.00  0.00    +0.000 C 
ATOM     25  C   UNL     1       4.461   4.029  17.132  0.00  0.00    +0.000 C 
ATOM     26  N   UNL     1       5.443   5.112  16.932  0.00  0.00    +0.000 N 
ATOM     27  C   UNL     1       4.971   6.308  17.671  0.00  0.00    +0.000 C 
BRANCH  26  28
ATOM     28  C   UNL     1       6.580   5.018  16.240  0.00  0.00    +0.000 C 
ATOM     29  N   UNL     1       7.573   4.919  15.646  0.00  0.00    +0.000 NA
ENDBRANCH  26  28
ENDBRANCH  21  23
ENDBRANCH   6  19
TORSDOF 5
ENDMDL
MODEL 5
REMARK VINA RESULT:      -7.8      1.207      1.234
REMARK  Name = 
REMARK  5 active torsions:
REMARK  status: ('A' for Active; 'I' for Inactive)
REMARK    1  A    between atoms: C_2  and  C_3
REMARK    2  A    between atoms: C_7  and  C_8
REMARK    3  A    between atoms: C_13  and  C_14
REMARK    4  A    between atoms: N_16  and  C_17
REMARK    5  A    between atoms: N_20  and  C_21
REMARK                            x       y       z     vdW  Elec       q    Type
REMARK                         _______ _______ _______ _____ _____    ______ ____
ROOT
ATOM      1  C   UNL     1       2.429   7.303  18.595  0.00  0.00    +0.000 A 
ATOM      2  C   UNL     1       2.280   8.398  17.630  0.00  0.00    +0.000 A 
ATOM      3  C   UNL     1       1.689   9.569  17.949  0.00  0.00    +0.000 A 
ATOM      4  C   UNL     1       1.181   9.778  19.264  0.00  0.00    +0.000 A 
ATOM      5  N   UNL     1       0.578  10.814  19.829  0.00  0.00    +0.000 NA
ATOM      6  C   UNL     1       0.333  10.428  21.147  0.00  0.00    +0.000 A 
ATOM      7  C   UNL     1       0.790   9.141  21.339  0.00  0.00    +0.000 A 
ATOM      8  F   UNL     1       0.734   8.444  22.442  0.00  0.00    +0.000 F 
ATOM      9  N   UNL     1       1.334   8.721  20.158  0.00  0.00    +0.000 N 
ATOM     10  C   UNL     1       1.944   7.503  19.839  0.00  0.00    +0.000 A 
ENDROOT
BRANCH   1  15
ATOM     11  C   UNL     1       5.124   4.722  17.941  0.00  0.00    +0.000 A 
ATOM     12  C   UNL     1       4.361   3.625  17.528  0.00  0.00    +0.000 A 
ATOM     13  C   UNL     1       2.971   3.727  17.470  0.00  0.00    +0.000 A 
ATOM     14  C   UNL     1       2.339   4.923  17.827  0.00  0.00    +0.000 A 
ATOM     15  C   UNL     1       3.091   6.027  18.256  0.00  0.00    +0.000 A 
ATOM     16  C   UNL     1       4.488   5.918  18.308  0.00  0.00    +0.000 A 
BRANCH  11  18
ATOM     17  N   UNL     1       7.712   4.548  17.998  0.00  0.00    +0.000 NA
ATOM     18  C   UNL     1       6.556   4.627  17.968  0.00  0.00    +0.000 C 
ENDBRANCH  11  18
ENDBRANCH   1  15
BRANCH   6  19
ATOM     19  C   UNL     1      -0.298  11.269  22.170  0.00  0.00    +0.000 C 
ATOM     20  O   UNL     1      -0.457  10.897  23.330  0.00  0.00    +0.000 OA
ATOM     21  N   UNL     1      -0.701  12.525  21.748  0.00  0.00    +0.000 N 
ATOM     22  H   UNL     1      -0.648  12.703  20.749  0.00  0.00    +0.000 HD
BRANCH  21  23
ATOM     23  C   UNL     1      -1.418  13.429  22.645  0.00  0.00    +0.000 C 
ATOM     24  C   UNL     1      -2.730  13.954  22.060  0.00  0.00    +0.000 C 
ATOM     25  C   UNL     1      -2.924  15.363  22.620  0.00  0.00    +0.000 C 
ATOM     26  N   UNL     1      -1.715  15.665  23.409  0.00  0.00    +0.000 N 
ATOM     27  C   UNL     1      -0.651  14.712  23.010  0.00  0.00    +0.000 C 
BRANCH  26  28
ATOM     28  C   UNL     1      -1.588  16.651  24.300  0.00  0.00    +0.000 C 
ATOM     29  N   UNL     1      -1.477  17.522  25.059  0.00  0.00    +0.000 NA
ENDBRANCH  26  28
ENDBRANCH  21  23
ENDBRANCH   6  19
TORSDOF 5
ENDMDL
MODEL 6
REMARK VINA RESULT:      -7.7      1.729      2.077
REMARK  Name = 
REMARK  5 active torsions:
REMARK  status: ('A' for Active; 'I' for Inactive)
REMARK    1  A    between atoms: C_2  and  C_3
REMARK    2  A    between atoms: C_7  and  C_8
REMARK    3  A    between atoms: C_13  and  C_14
REMARK    4  A    between atoms: N_16  and  C_17
REMARK    5  A    between atoms: N_20  and  C_21
REMARK                            x       y       z     vdW  Elec       q    Type
REMARK                         _______ _______ _______ _____ _____    ______ ____
ROOT
ATOM      1  C   UNL     1       2.390   7.414  18.942  0.00  0.00    +0.000 A 
ATOM      2  C   UNL     1       2.354   8.335  17.801  0.00  0.00    +0.000 A 
ATOM      3  C   UNL     1       1.766   9.548  17.868  0.00  0.00    +0.000 A 
ATOM      4  C   UNL     1       1.151   9.978  19.080  0.00  0.00    +0.000 A 
ATOM      5  N   UNL     1       0.528  11.100  19.410  0.00  0.00    +0.000 NA
ATOM      6  C   UNL     1       0.159  10.941  20.746  0.00  0.00    +0.000 A 
ATOM      7  C   UNL     1       0.565   9.699  21.187  0.00  0.00    +0.000 A 
ATOM      8  F   UNL     1       0.395   9.196  22.380  0.00  0.00    +0.000 F 
ATOM      9  N   UNL     1       1.199   9.083  20.146  0.00  0.00    +0.000 N 
ATOM     10  C   UNL     1       1.804   7.823  20.088  0.00  0.00    +0.000 A 
ENDROOT
BRANCH   1  15
ATOM     11  C   UNL     1       4.408   4.467  17.680  0.00  0.00    +0.000 A 
ATOM     12  C   UNL     1       4.227   3.544  18.716  0.00  0.00    +0.000 A 
ATOM     13  C   UNL     1       3.454   3.888  19.825  0.00  0.00    +0.000 A 
ATOM     14  C   UNL     1       2.863   5.153  19.904  0.00  0.00    +0.000 A 
ATOM     15  C   UNL     1       3.046   6.092  18.880  0.00  0.00    +0.000 A 
ATOM     16  C   UNL     1       3.821   5.738  17.766  0.00  0.00    +0.000 A 
BRANCH  11  18
ATOM     17  N   UNL     1       5.794   3.813  15.586  0.00  0.00    +0.000 NA
ATOM     18  C   UNL     1       5.175   4.101  16.523  0.00  0.00    +0.000 C 
ENDBRANCH  11  18
ENDBRANCH   1  15
BRANCH   6  19
ATOM     19  C   UNL     1      -0.538  11.947  21.556  0.00  0.00    +0.000 C 
ATOM     20  O   UNL     1       0.056  12.781  22.233  0.00  0.00    +0.000 OA
ATOM     21  N   UNL     1      -1.921  11.904  21.503  0.00  0.00    +0.000 N 
ATOM     22  H   UNL     1      -2.330  11.108  21.022  0.00  0.00    +0.000 HD
BRANCH  21  23
ATOM     23  C   UNL     1      -2.735  12.795  22.327  0.00  0.00    +0.000 C 
ATOM     24  C   UNL     1      -3.107  12.199  23.686  0.00  0.00    +0.000 C 
ATOM     25  C   UNL     1      -4.483  12.758  24.046  0.00  0.00    +0.000 C 
ATOM     26  N   UNL     1      -4.921  13.558  22.886  0.00  0.00    +0.000 N 
ATOM     27  C   UNL     1      -4.097  13.168  21.716  0.00  0.00    +0.000 C 
BRANCH  26  28
ATOM     28  C   UNL     1      -5.914  14.451  22.881  0.00  0.00    +0.000 C 
ATOM     29  N   UNL     1      -6.788  15.214  22.866  0.00  0.00    +0.000 NA
ENDBRANCH  26  28
ENDBRANCH  21  23
ENDBRANCH   6  19
TORSDOF 5
ENDMDL
MODEL 7
REMARK VINA RESULT:      -7.6      2.443      3.037
REMARK  Name = 
REMARK  5 active torsions:
REMARK  status: ('A' for Active; 'I' for Inactive)
REMARK    1  A    between atoms: C_2  and  C_3
REMARK    2  A    between atoms: C_7  and  C_8
REMARK    3  A    between atoms: C_13  and  C_14
REMARK    4  A    between atoms: N_16  and  C_17
REMARK    5  A    between atoms: N_20  and  C_21
REMARK                            x       y       z     vdW  Elec       q    Type
REMARK                         _______ _______ _______ _____ _____    ______ ____
ROOT
ATOM      1  C   UNL     1       2.223   7.453  19.105  0.00  0.00    +0.000 A 
ATOM      2  C   UNL     1       2.264   8.357  17.950  0.00  0.00    +0.000 A 
ATOM      3  C   UNL     1       1.750   9.604  17.988  0.00  0.00    +0.000 A 
ATOM      4  C   UNL     1       1.140  10.089  19.181  0.00  0.00    +0.000 A 
ATOM      5  N   UNL     1       0.580  11.252  19.482  0.00  0.00    +0.000 NA
ATOM      6  C   UNL     1       0.178  11.137  20.813  0.00  0.00    +0.000 A 
ATOM      7  C   UNL     1       0.500   9.879  21.281  0.00  0.00    +0.000 A 
ATOM      8  F   UNL     1       0.278   9.406  22.477  0.00  0.00    +0.000 F 
ATOM      9  N   UNL     1       1.114   9.210  20.260  0.00  0.00    +0.000 N 
ATOM     10  C   UNL     1       1.642   7.915  20.233  0.00  0.00    +0.000 A 
ENDROOT
BRANCH   1  15
ATOM     11  C   UNL     1       3.094   3.903  20.097  0.00  0.00    +0.000 A 
ATOM     12  C   UNL     1       3.964   3.533  19.065  0.00  0.00    +0.000 A 
ATOM     13  C   UNL     1       4.258   4.439  18.046  0.00  0.00    +0.000 A 
ATOM     14  C   UNL     1       3.683   5.714  18.053  0.00  0.00    +0.000 A 
ATOM     15  C   UNL     1       2.800   6.094  19.074  0.00  0.00    +0.000 A 
ATOM     16  C   UNL     1       2.512   5.179  20.097  0.00  0.00    +0.000 A 
BRANCH  11  18
ATOM     17  N   UNL     1       2.591   2.244  22.029  0.00  0.00    +0.000 NA
ATOM     18  C   UNL     1       2.819   2.982  21.163  0.00  0.00    +0.000 C 
ENDBRANCH  11  18
ENDBRANCH   1  15
BRANCH   6  19
ATOM     19  C   UNL     1      -0.471  12.195  21.595  0.00  0.00    +0.000 C 
ATOM     20  O   UNL     1       0.152  13.129  22.093  0.00  0.00    +0.000 OA
ATOM     21  N   UNL     1      -1.844  12.082  21.732  0.00  0.00    +0.000 N 
ATOM     22  H   UNL     1      -2.262  11.217  21.398  0.00  0.00    +0.000 HD
BRANCH  21  23
ATOM     23  C   UNL     1      -2.601  13.023  22.555  0.00  0.00    +0.000 C 
ATOM     24  C   UNL     1      -3.279  12.369  23.761  0.00  0.00    +0.000 C 
ATOM     25  C   UNL     1      -4.570  13.149  24.010  0.00  0.00    +0.000 C 
ATOM     26  N   UNL     1      -4.672  14.140  22.922  0.00  0.00    +0.000 N 
ATOM     27  C   UNL     1      -3.762  13.722  21.828  0.00  0.00    +0.000 C 
BRANCH  26  28
ATOM     28  C   UNL     1      -5.474  15.207  22.908  0.00  0.00    +0.000 C 
ATOM     29  N   UNL     1      -6.187  16.123  22.900  0.00  0.00    +0.000 NA
ENDBRANCH  26  28
ENDBRANCH  21  23
ENDBRANCH   6  19
TORSDOF 5
ENDMDL
MODEL 8
REMARK VINA RESULT:      -7.5      2.363      2.753
REMARK  Name = 
REMARK  5 active torsions:
REMARK  status: ('A' for Active; 'I' for Inactive)
REMARK    1  A    between atoms: C_2  and  C_3
REMARK    2  A    between atoms: C_7  and  C_8
REMARK    3  A    between atoms: C_13  and  C_14
REMARK    4  A    between atoms: N_16  and  C_17
REMARK    5  A    between atoms: N_20  and  C_21
REMARK                            x       y       z     vdW  Elec       q    Type
REMARK                         _______ _______ _______ _____ _____    ______ ____
ROOT
ATOM      1  C   UNL     1       2.543   5.893  18.683  0.00  0.00    +0.000 A 
ATOM      2  C   UNL     1       2.952   6.790  17.597  0.00  0.00    +0.000 A 
ATOM      3  C   UNL     1       2.727   8.121  17.633  0.00  0.00    +0.000 A 
ATOM      4  C   UNL     1       2.070   8.704  18.756  0.00  0.00    +0.000 A 
ATOM      5  N   UNL     1       1.743   9.956  19.042  0.00  0.00    +0.000 NA
ATOM      6  C   UNL     1       1.133   9.904  20.296  0.00  0.00    +0.000 A 
ATOM      7  C   UNL     1       1.097   8.595  20.732  0.00  0.00    +0.000 A 
ATOM      8  F   UNL     1       0.602   8.157  21.858  0.00  0.00    +0.000 F 
ATOM      9  N   UNL     1       1.691   7.828  19.770  0.00  0.00    +0.000 N 
ATOM     10  C   UNL     1       1.918   6.448  19.743  0.00  0.00    +0.000 A 
ENDROOT
BRANCH   1  15
ATOM     11  C   UNL     1       3.900   2.474  19.586  0.00  0.00    +0.000 A 
ATOM     12  C   UNL     1       3.370   1.686  18.558  0.00  0.00    +0.000 A 
ATOM     13  C   UNL     1       2.567   2.270  17.579  0.00  0.00    +0.000 A 
ATOM     14  C   UNL     1       2.289   3.640  17.624  0.00  0.00    +0.000 A 
ATOM     15  C   UNL     1       2.802   4.439  18.656  0.00  0.00    +0.000 A 
ATOM     16  C   UNL     1       3.611   3.846  19.635  0.00  0.00    +0.000 A 
BRANCH  11  18
ATOM     17  N   UNL     1       5.439   1.403  21.380  0.00  0.00    +0.000 NA
ATOM     18  C   UNL     1       4.753   1.878  20.575  0.00  0.00    +0.000 C 
ENDBRANCH  11  18
ENDBRANCH   1  15
BRANCH   6  19
ATOM     19  C   UNL     1       0.627  11.063  21.038  0.00  0.00    +0.000 C 
ATOM     20  O   UNL     1       1.339  12.013  21.351  0.00  0.00    +0.000 OA
ATOM     21  N   UNL     1      -0.719  11.025  21.362  0.00  0.00    +0.000 N 
ATOM     22  H   UNL     1      -1.203  10.151  21.178  0.00  0.00    +0.000 HD
BRANCH  21  23
ATOM     23  C   UNL     1      -1.330  12.077  22.172  0.00  0.00    +0.000 C 
ATOM     24  C   UNL     1      -2.206  11.541  23.306  0.00  0.00    +0.000 C 
ATOM     25  C   UNL     1      -3.332  12.556  23.504  0.00  0.00    +0.000 C 
ATOM     26  N   UNL     1      -3.160  13.575  22.451  0.00  0.00    +0.000 N 
ATOM     27  C   UNL     1      -2.278  13.012  21.401  0.00  0.00    +0.000 C 
BRANCH  26  28
ATOM     28  C   UNL     1      -3.733  14.780  22.428  0.00  0.00    +0.000 C 
ATOM     29  N   UNL     1      -4.216  15.836  22.419  0.00  0.00    +0.000 NA
ENDBRANCH  26  28
ENDBRANCH  21  23
ENDBRANCH   6  19
TORSDOF 5
ENDMDL
MODEL 9
REMARK VINA RESULT:      -7.5      1.968      2.275
REMARK  Name = 
REMARK  5 active torsions:
REMARK  status: ('A' for Active; 'I' for Inactive)
REMARK    1  A    between atoms: C_2  and  C_3
REMARK    2  A    between atoms: C_7  and  C_8
REMARK    3  A    between atoms: C_13  and  C_14
REMARK    4  A    between atoms: N_16  and  C_17
REMARK    5  A    between atoms: N_20  and  C_21
REMARK                            x       y       z     vdW  Elec       q    Type
REMARK                         _______ _______ _______ _____ _____    ______ ____
ROOT
ATOM      1  C   UNL     1       2.109   7.468  19.615  0.00  0.00    +0.000 A 
ATOM      2  C   UNL     1       2.017   8.288  18.403  0.00  0.00    +0.000 A 
ATOM      3  C   UNL     1       1.431   9.504  18.393  0.00  0.00    +0.000 A 
ATOM      4  C   UNL     1       0.872  10.037  19.591  0.00  0.00    +0.000 A 
ATOM      5  N   UNL     1       0.261  11.184  19.852  0.00  0.00    +0.000 NA
ATOM      6  C   UNL     1      -0.044  11.141  21.213  0.00  0.00    +0.000 A 
ATOM      7  C   UNL     1       0.385   9.940  21.739  0.00  0.00    +0.000 A 
ATOM      8  F   UNL     1       0.273   9.542  22.977  0.00  0.00    +0.000 F 
ATOM      9  N   UNL     1       0.971   9.236  20.726  0.00  0.00    +0.000 N 
ATOM     10  C   UNL     1       1.576   7.975  20.748  0.00  0.00    +0.000 A 
ENDROOT
BRANCH   1  15
ATOM     11  C   UNL     1       4.677   4.730  19.112  0.00  0.00    +0.000 A 
ATOM     12  C   UNL     1       3.986   3.612  19.591  0.00  0.00    +0.000 A 
ATOM     13  C   UNL     1       2.689   3.755  20.083  0.00  0.00    +0.000 A 
ATOM     14  C   UNL     1       2.080   5.014  20.100  0.00  0.00    +0.000 A 
ATOM     15  C   UNL     1       2.765   6.145  19.635  0.00  0.00    +0.000 A 
ATOM     16  C   UNL     1       4.068   5.993  19.139  0.00  0.00    +0.000 A 
BRANCH  11  18
ATOM     17  N   UNL     1       7.067   4.460  18.138  0.00  0.00    +0.000 NA
ATOM     18  C   UNL     1       5.999   4.576  18.575  0.00  0.00    +0.000 C 
ENDBRANCH  11  18
ENDBRANCH   1  15
BRANCH   6  19
ATOM     19  C   UNL     1      -0.704  12.213  21.965  0.00  0.00    +0.000 C 
ATOM     20  O   UNL     1      -0.097  13.183  22.410  0.00  0.00    +0.000 OA
ATOM     21  N   UNL     1      -2.071  12.069  22.139  0.00  0.00    +0.000 N 
ATOM     22  H   UNL     1      -2.471  11.180  21.851  0.00  0.00    +0.000 HD
BRANCH  21  23
ATOM     23  C   UNL     1      -2.834  13.022  22.941  0.00  0.00    +0.000 C 
ATOM     24  C   UNL     1      -3.755  12.358  23.966  0.00  0.00    +0.000 C 
ATOM     25  C   UNL     1      -4.975  13.267  24.111  0.00  0.00    +0.000 C 
ATOM     26  N   UNL     1      -4.801  14.353  23.127  0.00  0.00    +0.000 N 
ATOM     27  C   UNL     1      -3.788  13.920  22.134  0.00  0.00    +0.000 C 
BRANCH  26  28
ATOM     28  C   UNL     1      -5.469  15.509  23.111  0.00  0.00    +0.000 C 
ATOM     29  N   UNL     1      -6.054  16.511  23.077  0.00  0.00    +0.000 NA
ENDBRANCH  26  28
ENDBRANCH  21  23
ENDBRANCH   6  19
TORSDOF 5
ENDMDL
