MODEL 1
REMARK VINA RESULT:      -7.1      0.000      0.000
REMARK  Name = 
REMARK  8 active torsions:
REMARK  status: ('A' for Active; 'I' for Inactive)
REMARK    1  A    between atoms: C_1  and  N_2
REMARK    2  A    between atoms: N_2  and  C_3
REMARK    3  A    between atoms: N_2  and  C_16
REMARK    4  A    between atoms: C_3  and  C_4
REMARK    5  A    between atoms: C_4  and  C_5
REMARK    6  A    between atoms: C_5  and  C_6
REMARK    7  A    between atoms: C_6  and  N_7
REMARK    8  A    between atoms: C_16  and  C_17
REMARK                            x       y       z     vdW  Elec       q    Type
REMARK                         _______ _______ _______ _____ _____    ______ ____
ROOT
ATOM      1  C   UNL     1       7.575   6.066  18.375  0.00  0.00    +0.000 C 
ENDROOT
BRANCH   1   2
ATOM      2  C   UNL     1       6.865   7.122  17.515  0.00  0.00    +0.000 C 
BRANCH   2   4
ATOM      3  C   UNL     1       5.054   6.541  16.001  0.00  0.00    +0.000 C 
ATOM      4  N   UNL     1       6.511   6.624  16.170  0.00  0.00    +0.000 NA
BRANCH   4   5
ATOM      5  C   UNL     1       7.083   5.281  15.927  0.00  0.00    +0.000 C 
BRANCH   5   6
ATOM      6  C   UNL     1       6.958   4.767  14.508  0.00  0.00    +0.000 A 
ATOM      7  C   UNL     1       6.009   3.782  14.195  0.00  0.00    +0.000 A 
ATOM      8  C   UNL     1       5.839   3.352  12.877  0.00  0.00    +0.000 A 
ATOM      9  C   UNL     1       6.614   3.904  11.858  0.00  0.00    +0.000 A 
ATOM     10  C   UNL     1       7.564   4.878  12.158  0.00  0.00    +0.000 A 
ATOM     11  C   UNL     1       7.737   5.308  13.475  0.00  0.00    +0.000 A 
ENDBRANCH   5   6
ENDBRANCH   4   5
ENDBRANCH   2   4
ENDBRANCH   1   2
BRANCH   1  12
ATOM     12  C   UNL     1       6.653   5.524  19.464  0.00  0.00    +0.000 C 
BRANCH  12  13
ATOM     13  C   UNL     1       5.784   4.394  18.923  0.00  0.00    +0.000 C 
BRANCH  13  14
ATOM     14  N   UNL     1       4.374   4.657  19.153  0.00  0.00    +0.000 N 
ATOM     15  C   UNL     1       3.868   5.884  19.501  0.00  0.00    +0.000 A 
ATOM     16  C   UNL     1       2.501   5.759  19.602  0.00  0.00    +0.000 A 
ATOM     17  C   UNL     1       2.165   4.410  19.305  0.00  0.00    +0.000 A 
ATOM     18  C   UNL     1       0.949   3.701  19.245  0.00  0.00    +0.000 A 
ATOM     19  C   UNL     1       0.960   2.345  18.902  0.00  0.00    +0.000 A 
ATOM     20  C   UNL     1       2.156   1.694  18.620  0.00  0.00    +0.000 A 
ATOM     21  C   UNL     1       3.376   2.376  18.674  0.00  0.00    +0.000 A 
ATOM     22  C   UNL     1       3.356   3.735  19.024  0.00  0.00    +0.000 A 
ENDBRANCH  13  14
ENDBRANCH  12  13
ENDBRANCH   1  12
TORSDOF 7
ENDMDL
MODEL 2
REMARK VINA RESULT:      -7.1      3.610      6.685
REMARK  Name = 
REMARK  8 active torsions:
REMARK  status: ('A' for Active; 'I' for Inactive)
REMARK    1  A    between atoms: C_1  and  N_2
REMARK    2  A    between atoms: N_2  and  C_3
REMARK    3  A    between atoms: N_2  and  C_16
REMARK    4  A    between atoms: C_3  and  C_4
REMARK    5  A    between atoms: C_4  and  C_5
REMARK    6  A    between atoms: C_5  and  C_6
REMARK    7  A    between atoms: C_6  and  N_7
REMARK    8  A    between atoms: C_16  and  C_17
REMARK                            x       y       z     vdW  Elec       q    Type
REMARK                         _______ _______ _______ _____ _____    ______ ____
ROOT
ATOM      1  C   UNL     1       3.981   6.949  18.022  0.00  0.00    +0.000 C 
ENDROOT
BRANCH   1   2
ATOM      2  C   UNL     1       4.282   5.925  16.917  0.00  0.00    +0.000 C 
BRANCH   2   4
ATOM      3  C   UNL     1       6.043   4.261  16.716  0.00  0.00    +0.000 C 
ATOM      4  N   UNL     1       4.829   4.658  17.443  0.00  0.00    +0.000 NA
BRANCH   4   5
ATOM      5  C   UNL     1       3.843   3.559  17.331  0.00  0.00    +0.000 C 
BRANCH   5   6
ATOM      6  C   UNL     1       2.901   3.407  18.507  0.00  0.00    +0.000 A 
ATOM      7  C   UNL     1       3.311   3.786  19.794  0.00  0.00    +0.000 A 
ATOM      8  C   UNL     1       2.426   3.714  20.872  0.00  0.00    +0.000 A 
ATOM      9  C   UNL     1       1.122   3.266  20.675  0.00  0.00    +0.000 A 
ATOM     10  C   UNL     1       0.704   2.880  19.402  0.00  0.00    +0.000 A 
ATOM     11  C   UNL     1       1.588   2.949  18.323  0.00  0.00    +0.000 A 
ENDBRANCH   5   6
ENDBRANCH   4   5
ENDBRANCH   2   4
ENDBRANCH   1   2
BRANCH   1  12
ATOM     12  C   UNL     1       2.479   7.173  18.178  0.00  0.00    +0.000 C 
BRANCH  12  13
ATOM     13  C   UNL     1       2.137   7.561  19.613  0.00  0.00    +0.000 C 
BRANCH  13  14
ATOM     14  N   UNL     1       1.340   8.775  19.656  0.00  0.00    +0.000 N 
ATOM     15  C   UNL     1       1.071   9.555  18.561  0.00  0.00    +0.000 A 
ATOM     16  C   UNL     1       0.269  10.594  18.975  0.00  0.00    +0.000 A 
ATOM     17  C   UNL     1       0.044  10.438  20.370  0.00  0.00    +0.000 A 
ATOM     18  C   UNL     1      -0.686  11.174  21.326  0.00  0.00    +0.000 A 
ATOM     19  C   UNL     1      -0.717  10.735  22.653  0.00  0.00    +0.000 A 
ATOM     20  C   UNL     1      -0.036   9.584  23.037  0.00  0.00    +0.000 A 
ATOM     21  C   UNL     1       0.695   8.838  22.107  0.00  0.00    +0.000 A 
ATOM     22  C   UNL     1       0.724   9.289  20.778  0.00  0.00    +0.000 A 
ENDBRANCH  13  14
ENDBRANCH  12  13
ENDBRANCH   1  12
TORSDOF 7
ENDMDL
MODEL 3
REMARK VINA RESULT:      -7.0      5.136      7.772
REMARK  Name = 
REMARK  8 active torsions:
REMARK  status: ('A' for Active; 'I' for Inactive)
REMARK    1  A    between atoms: C_1  and  N_2
REMARK    2  A    between atoms: N_2  and  C_3
REMARK    3  A    between atoms: N_2  and  C_16
REMARK    4  A    between atoms: C_3  and  C_4
REMARK    5  A    between atoms: C_4  and  C_5
REMARK    6  A    between atoms: C_5  and  C_6
REMARK    7  A    between atoms: C_6  and  N_7
REMARK    8  A    between atoms: C_16  and  C_17
REMARK                            x       y       z     vdW  Elec       q    Type
REMARK                         _______ _______ _______ _____ _____    ______ ____
ROOT
ATOM      1  C   UNL     1       1.881   9.083  17.610  0.00  0.00    +0.000 C 
ENDROOT
BRANCH   1   2
ATOM      2  C   UNL     1       1.268   9.668  18.891  0.00  0.00    +0.000 C 
BRANCH   2   4
ATOM      3  C   UNL     1       0.606  11.967  19.324  0.00  0.00    +0.000 C 
ATOM      4  N   UNL     1       0.270  10.722  18.620  0.00  0.00    +0.000 NA
BRANCH   4   5
ATOM      5  C   UNL     1      -1.084  10.302  19.046  0.00  0.00    +0.000 C 
BRANCH   5   6
ATOM      6  C   UNL     1      -2.175  10.469  18.008  0.00  0.00    +0.000 A 
ATOM      7  C   UNL     1      -3.257  11.326  18.254  0.00  0.00    +0.000 A 
ATOM      8  C   UNL     1      -4.231  11.540  17.275  0.00  0.00    +0.000 A 
ATOM      9  C   UNL     1      -4.131  10.901  16.041  0.00  0.00    +0.000 A 
ATOM     10  C   UNL     1      -3.064  10.041  15.788  0.00  0.00    +0.000 A 
ATOM     11  C   UNL     1      -2.090   9.825  16.765  0.00  0.00    +0.000 A 
ENDBRANCH   5   6
ENDBRANCH   4   5
ENDBRANCH   2   4
ENDBRANCH   1   2
BRANCH   1  12
ATOM     12  C   UNL     1       2.994   8.088  17.930  0.00  0.00    +0.000 C 
BRANCH  12  13
ATOM     13  C   UNL     1       2.531   7.078  18.975  0.00  0.00    +0.000 C 
BRANCH  13  14
ATOM     14  N   UNL     1       2.727   5.714  18.514  0.00  0.00    +0.000 N 
ATOM     15  C   UNL     1       3.505   5.373  17.437  0.00  0.00    +0.000 A 
ATOM     16  C   UNL     1       3.479   4.002  17.322  0.00  0.00    +0.000 A 
ATOM     17  C   UNL     1       2.657   3.494  18.364  0.00  0.00    +0.000 A 
ATOM     18  C   UNL     1       2.266   2.195  18.750  0.00  0.00    +0.000 A 
ATOM     19  C   UNL     1       1.434   2.031  19.862  0.00  0.00    +0.000 A 
ATOM     20  C   UNL     1       0.991   3.132  20.587  0.00  0.00    +0.000 A 
ATOM     21  C   UNL     1       1.364   4.430  20.223  0.00  0.00    +0.000 A 
ATOM     22  C   UNL     1       2.196   4.586  19.103  0.00  0.00    +0.000 A 
ENDBRANCH  13  14
ENDBRANCH  12  13
ENDBRANCH   1  12
TORSDOF 7
ENDMDL
MODEL 4
REMARK VINA RESULT:      -6.9      3.394      6.586
REMARK  Name = 
REMARK  8 active torsions:
REMARK  status: ('A' for Active; 'I' for Inactive)
REMARK    1  A    between atoms: C_1  and  N_2
REMARK    2  A    between atoms: N_2  and  C_3
REMARK    3  A    between atoms: N_2  and  C_16
REMARK    4  A    between atoms: C_3  and  C_4
REMARK    5  A    between atoms: C_4  and  C_5
REMARK    6  A    between atoms: C_5  and  C_6
REMARK    7  A    between atoms: C_6  and  N_7
REMARK    8  A    between atoms: C_16  and  C_17
REMARK                            x       y       z     vdW  Elec       q    Type
REMARK                         _______ _______ _______ _____ _____    ______ ____
ROOT
ATOM      1  C   UNL     1       4.152   6.633  17.183  0.00  0.00    +0.000 C 
ENDROOT
BRANCH   1   2
ATOM      2  C   UNL     1       4.920   6.095  18.400  0.00  0.00    +0.000 C 
BRANCH   2   4
ATOM      3  C   UNL     1       6.208   4.332  17.331  0.00  0.00    +0.000 C 
ATOM      4  N   UNL     1       5.170   4.642  18.324  0.00  0.00    +0.000 NA
BRANCH   4   5
ATOM      5  C   UNL     1       3.942   3.903  17.954  0.00  0.00    +0.000 C 
BRANCH   5   6
ATOM      6  C   UNL     1       3.003   3.585  19.099  0.00  0.00    +0.000 A 
ATOM      7  C   UNL     1       1.637   3.888  18.997  0.00  0.00    +0.000 A 
ATOM      8  C   UNL     1       0.752   3.536  20.018  0.00  0.00    +0.000 A 
ATOM      9  C   UNL     1       1.222   2.875  21.151  0.00  0.00    +0.000 A 
ATOM     10  C   UNL     1       2.579   2.574  21.267  0.00  0.00    +0.000 A 
ATOM     11  C   UNL     1       3.465   2.928  20.248  0.00  0.00    +0.000 A 
ENDBRANCH   5   6
ENDBRANCH   4   5
ENDBRANCH   2   4
ENDBRANCH   1   2
BRANCH   1  12
ATOM     12  C   UNL     1       3.334   7.869  17.545  0.00  0.00    +0.000 C 
BRANCH  12  13
ATOM     13  C   UNL     1       2.507   7.621  18.802  0.00  0.00    +0.000 C 
BRANCH  13  14
ATOM     14  N   UNL     1       1.557   8.696  19.030  0.00  0.00    +0.000 N 
ATOM     15  C   UNL     1       1.012   9.463  18.032  0.00  0.00    +0.000 A 
ATOM     16  C   UNL     1       0.139  10.352  18.617  0.00  0.00    +0.000 A 
ATOM     17  C   UNL     1       0.155  10.116  20.019  0.00  0.00    +0.000 A 
ATOM     18  C   UNL     1      -0.520  10.698  21.111  0.00  0.00    +0.000 A 
ATOM     19  C   UNL     1      -0.283  10.214  22.402  0.00  0.00    +0.000 A 
ATOM     20  C   UNL     1       0.610   9.168  22.616  0.00  0.00    +0.000 A 
ATOM     21  C   UNL     1       1.292   8.576  21.549  0.00  0.00    +0.000 A 
ATOM     22  C   UNL     1       1.051   9.071  20.257  0.00  0.00    +0.000 A 
ENDBRANCH  13  14
ENDBRANCH  12  13
ENDBRANCH   1  12
TORSDOF 7
ENDMDL
MODEL 5
REMARK VINA RESULT:      -6.9      1.184      1.889
REMARK  Name = 
REMARK  8 active torsions:
REMARK  status: ('A' for Active; 'I' for Inactive)
REMARK    1  A    between atoms: C_1  and  N_2
REMARK    2  A    between atoms: N_2  and  C_3
REMARK    3  A    between atoms: N_2  and  C_16
REMARK    4  A    between atoms: C_3  and  C_4
REMARK    5  A    between atoms: C_4  and  C_5
REMARK    6  A    between atoms: C_5  and  C_6
REMARK    7  A    between atoms: C_6  and  N_7
REMARK    8  A    between atoms: C_16  and  C_17
REMARK                            x       y       z     vdW  Elec       q    Type
REMARK                         _______ _______ _______ _____ _____    ______ ____
ROOT
ATOM      1  C   UNL     1       6.880   5.097  18.239  0.00  0.00    +0.000 C 
ENDROOT
BRANCH   1   2
ATOM      2  C   UNL     1       6.853   6.411  17.443  0.00  0.00    +0.000 C 
BRANCH   2   4
ATOM      3  C   UNL     1       5.241   6.768  15.658  0.00  0.00    +0.000 C 
ATOM      4  N   UNL     1       6.553   6.208  16.011  0.00  0.00    +0.000 NA
BRANCH   4   5
ATOM      5  C   UNL     1       6.551   4.770  15.661  0.00  0.00    +0.000 C 
BRANCH   5   6
ATOM      6  C   UNL     1       6.597   4.460  14.179  0.00  0.00    +0.000 A 
ATOM      7  C   UNL     1       7.529   5.104  13.352  0.00  0.00    +0.000 A 
ATOM      8  C   UNL     1       7.626   4.775  11.998  0.00  0.00    +0.000 A 
ATOM      9  C   UNL     1       6.793   3.797  11.457  0.00  0.00    +0.000 A 
ATOM     10  C   UNL     1       5.858   3.154  12.268  0.00  0.00    +0.000 A 
ATOM     11  C   UNL     1       5.760   3.484  13.621  0.00  0.00    +0.000 A 
ENDBRANCH   5   6
ENDBRANCH   4   5
ENDBRANCH   2   4
ENDBRANCH   1   2
BRANCH   1  12
ATOM     12  C   UNL     1       5.909   5.141  19.416  0.00  0.00    +0.000 C 
BRANCH  12  13
ATOM     13  C   UNL     1       4.620   5.858  19.027  0.00  0.00    +0.000 C 
BRANCH  13  14
ATOM     14  N   UNL     1       3.560   4.912  18.726  0.00  0.00    +0.000 N 
ATOM     15  C   UNL     1       3.198   4.545  17.455  0.00  0.00    +0.000 A 
ATOM     16  C   UNL     1       2.188   3.616  17.560  0.00  0.00    +0.000 A 
ATOM     17  C   UNL     1       1.929   3.412  18.943  0.00  0.00    +0.000 A 
ATOM     18  C   UNL     1       1.027   2.593  19.653  0.00  0.00    +0.000 A 
ATOM     19  C   UNL     1       1.033   2.619  21.052  0.00  0.00    +0.000 A 
ATOM     20  C   UNL     1       1.915   3.441  21.744  0.00  0.00    +0.000 A 
ATOM     21  C   UNL     1       2.817   4.263  21.061  0.00  0.00    +0.000 A 
ATOM     22  C   UNL     1       2.802   4.234  19.658  0.00  0.00    +0.000 A 
ENDBRANCH  13  14
ENDBRANCH  12  13
ENDBRANCH   1  12
TORSDOF 7
ENDMDL
MODEL 6
REMARK VINA RESULT:      -6.8      3.643      6.828
REMARK  Name = 
REMARK  8 active torsions:
REMARK  status: ('A' for Active; 'I' for Inactive)
REMARK    1  A    between atoms: C_1  and  N_2
REMARK    2  A    between atoms: N_2  and  C_3
REMARK    3  A    between atoms: N_2  and  C_16
REMARK    4  A    between atoms: C_3  and  C_4
REMARK    5  A    between atoms: C_4  and  C_5
REMARK    6  A    between atoms: C_5  and  C_6
REMARK    7  A    between atoms: C_6  and  N_7
REMARK    8  A    between atoms: C_16  and  C_17
REMARK                            x       y       z     vdW  Elec       q    Type
REMARK                         _______ _______ _______ _____ _____    ______ ____
ROOT
ATOM      1  C   UNL     1       4.077   6.178  18.578  0.00  0.00    +0.000 C 
ENDROOT
BRANCH   1   2
ATOM      2  C   UNL     1       3.943   5.269  17.347  0.00  0.00    +0.000 C 
BRANCH   2   4
ATOM      3  C   UNL     1       5.552   3.796  16.273  0.00  0.00    +0.000 C 
ATOM      4  N   UNL     1       4.725   4.022  17.466  0.00  0.00    +0.000 NA
BRANCH   4   5
ATOM      5  C   UNL     1       3.840   2.849  17.644  0.00  0.00    +0.000 C 
BRANCH   5   6
ATOM      6  C   UNL     1       2.946   2.886  18.865  0.00  0.00    +0.000 A 
ATOM      7  C   UNL     1       1.553   2.974  18.719  0.00  0.00    +0.000 A 
ATOM      8  C   UNL     1       0.717   2.939  19.836  0.00  0.00    +0.000 A 
ATOM      9  C   UNL     1       1.262   2.813  21.112  0.00  0.00    +0.000 A 
ATOM     10  C   UNL     1       2.645   2.731  21.271  0.00  0.00    +0.000 A 
ATOM     11  C   UNL     1       3.483   2.768  20.155  0.00  0.00    +0.000 A 
ENDBRANCH   5   6
ENDBRANCH   4   5
ENDBRANCH   2   4
ENDBRANCH   1   2
BRANCH   1  12
ATOM     12  C   UNL     1       2.712   6.512  19.173  0.00  0.00    +0.000 C 
BRANCH  12  13
ATOM     13  C   UNL     1       2.278   7.918  18.773  0.00  0.00    +0.000 C 
BRANCH  13  14
ATOM     14  N   UNL     1       1.479   8.541  19.814  0.00  0.00    +0.000 N 
ATOM     15  C   UNL     1       1.419   8.090  21.108  0.00  0.00    +0.000 A 
ATOM     16  C   UNL     1       0.594   8.940  21.809  0.00  0.00    +0.000 A 
ATOM     17  C   UNL     1       0.138   9.941  20.909  0.00  0.00    +0.000 A 
ATOM     18  C   UNL     1      -0.709  11.060  21.047  0.00  0.00    +0.000 A 
ATOM     19  C   UNL     1      -0.954  11.876  19.938  0.00  0.00    +0.000 A 
ATOM     20  C   UNL     1      -0.373  11.594  18.706  0.00  0.00    +0.000 A 
ATOM     21  C   UNL     1       0.469  10.489  18.545  0.00  0.00    +0.000 A 
ATOM     22  C   UNL     1       0.706   9.673  19.662  0.00  0.00    +0.000 A 
ENDBRANCH  13  14
ENDBRANCH  12  13
ENDBRANCH   1  12
TORSDOF 7
ENDMDL
MODEL 7
REMARK VINA RESULT:      -6.8      2.013      4.533
REMARK  Name = 
REMARK  8 active torsions:
REMARK  status: ('A' for Active; 'I' for Inactive)
REMARK    1  A    between atoms: C_1  and  N_2
REMARK    2  A    between atoms: N_2  and  C_3
REMARK    3  A    between atoms: N_2  and  C_16
REMARK    4  A    between atoms: C_3  and  C_4
REMARK    5  A    between atoms: C_4  and  C_5
REMARK    6  A    between atoms: C_5  and  C_6
REMARK    7  A    between atoms: C_6  and  N_7
REMARK    8  A    between atoms: C_16  and  C_17
REMARK                            x       y       z     vdW  Elec       q    Type
REMARK                         _______ _______ _______ _____ _____    ______ ____
ROOT
ATOM      1  C   UNL     1       6.327   4.307  16.215  0.00  0.00    +0.000 C 
ENDROOT
BRANCH   1   2
ATOM      2  C   UNL     1       6.248   5.758  15.716  0.00  0.00    +0.000 C 
BRANCH   2   4
ATOM      3  C   UNL     1       7.434   7.171  17.299  0.00  0.00    +0.000 C 
ATOM      4  N   UNL     1       6.117   6.736  16.814  0.00  0.00    +0.000 NA
BRANCH   4   5
ATOM      5  C   UNL     1       5.369   6.165  17.957  0.00  0.00    +0.000 C 
BRANCH   5   6
ATOM      6  C   UNL     1       4.046   6.831  18.268  0.00  0.00    +0.000 A 
ATOM      7  C   UNL     1       3.376   6.545  19.467  0.00  0.00    +0.000 A 
ATOM      8  C   UNL     1       2.190   7.206  19.795  0.00  0.00    +0.000 A 
ATOM      9  C   UNL     1       1.662   8.161  18.928  0.00  0.00    +0.000 A 
ATOM     10  C   UNL     1       2.315   8.450  17.731  0.00  0.00    +0.000 A 
ATOM     11  C   UNL     1       3.500   7.789  17.401  0.00  0.00    +0.000 A 
ENDBRANCH   5   6
ENDBRANCH   4   5
ENDBRANCH   2   4
ENDBRANCH   1   2
BRANCH   1  12
ATOM     12  C   UNL     1       4.989   3.591  16.058  0.00  0.00    +0.000 C 
BRANCH  12  13
ATOM     13  C   UNL     1       4.624   2.842  17.336  0.00  0.00    +0.000 C 
BRANCH  13  14
ATOM     14  N   UNL     1       3.315   3.240  17.825  0.00  0.00    +0.000 N 
ATOM     15  C   UNL     1       2.334   3.785  17.037  0.00  0.00    +0.000 A 
ATOM     16  C   UNL     1       1.232   4.003  17.832  0.00  0.00    +0.000 A 
ATOM     17  C   UNL     1       1.556   3.576  19.149  0.00  0.00    +0.000 A 
ATOM     18  C   UNL     1       0.844   3.550  20.365  0.00  0.00    +0.000 A 
ATOM     19  C   UNL     1       1.464   3.041  21.512  0.00  0.00    +0.000 A 
ATOM     20  C   UNL     1       2.770   2.565  21.462  0.00  0.00    +0.000 A 
ATOM     21  C   UNL     1       3.496   2.584  20.268  0.00  0.00    +0.000 A 
ATOM     22  C   UNL     1       2.868   3.099  19.122  0.00  0.00    +0.000 A 
ENDBRANCH  13  14
ENDBRANCH  12  13
ENDBRANCH   1  12
TORSDOF 7
ENDMDL
MODEL 8
REMARK VINA RESULT:      -6.7      3.911      6.096
REMARK  Name = 
REMARK  8 active torsions:
REMARK  status: ('A' for Active; 'I' for Inactive)
REMARK    1  A    between atoms: C_1  and  N_2
REMARK    2  A    between atoms: N_2  and  C_3
REMARK    3  A    between atoms: N_2  and  C_16
REMARK    4  A    between atoms: C_3  and  C_4
REMARK    5  A    between atoms: C_4  and  C_5
REMARK    6  A    between atoms: C_5  and  C_6
REMARK    7  A    between atoms: C_6  and  N_7
REMARK    8  A    between atoms: C_16  and  C_17
REMARK                            x       y       z     vdW  Elec       q    Type
REMARK                         _______ _______ _______ _____ _____    ______ ____
ROOT
ATOM      1  C   UNL     1       2.241   6.269  18.065  0.00  0.00    +0.000 C 
ENDROOT
BRANCH   1   2
ATOM      2  C   UNL     1       2.380   5.311  19.258  0.00  0.00    +0.000 C 
BRANCH   2   4
ATOM      3  C   UNL     1       2.042   2.926  19.592  0.00  0.00    +0.000 C 
ATOM      4  N   UNL     1       2.796   3.952  18.857  0.00  0.00    +0.000 NA
BRANCH   4   5
ATOM      5  C   UNL     1       4.238   3.734  19.109  0.00  0.00    +0.000 C 
BRANCH   5   6
ATOM      6  C   UNL     1       5.165   4.133  17.980  0.00  0.00    +0.000 A 
ATOM      7  C   UNL     1       6.411   4.713  18.259  0.00  0.00    +0.000 A 
ATOM      8  C   UNL     1       7.300   5.020  17.228  0.00  0.00    +0.000 A 
ATOM      9  C   UNL     1       6.955   4.748  15.905  0.00  0.00    +0.000 A 
ATOM     10  C   UNL     1       5.716   4.178  15.614  0.00  0.00    +0.000 A 
ATOM     11  C   UNL     1       4.826   3.872  16.644  0.00  0.00    +0.000 A 
ENDBRANCH   5   6
ENDBRANCH   4   5
ENDBRANCH   2   4
ENDBRANCH   1   2
BRANCH   1  12
ATOM     12  C   UNL     1       2.474   7.718  18.486  0.00  0.00    +0.000 C 
BRANCH  12  13
ATOM     13  C   UNL     1       1.921   7.969  19.885  0.00  0.00    +0.000 C 
BRANCH  13  14
ATOM     14  N   UNL     1       1.063   9.140  19.911  0.00  0.00    +0.000 N 
ATOM     15  C   UNL     1       0.759   9.894  18.805  0.00  0.00    +0.000 A 
ATOM     16  C   UNL     1      -0.098  10.894  19.204  0.00  0.00    +0.000 A 
ATOM     17  C   UNL     1      -0.322  10.743  20.599  0.00  0.00    +0.000 A 
ATOM     18  C   UNL     1      -1.094  11.451  21.543  0.00  0.00    +0.000 A 
ATOM     19  C   UNL     1      -1.109  11.025  22.876  0.00  0.00    +0.000 A 
ATOM     20  C   UNL     1      -0.372   9.915  23.275  0.00  0.00    +0.000 A 
ATOM     21  C   UNL     1       0.402   9.198  22.358  0.00  0.00    +0.000 A 
ATOM     22  C   UNL     1       0.415   9.635  21.023  0.00  0.00    +0.000 A 
ENDBRANCH  13  14
ENDBRANCH  12  13
ENDBRANCH   1  12
TORSDOF 7
ENDMDL
MODEL 9
REMARK VINA RESULT:      -6.7      4.911      8.628
REMARK  Name = 
REMARK  8 active torsions:
REMARK  status: ('A' for Active; 'I' for Inactive)
REMARK    1  A    between atoms: C_1  and  N_2
REMARK    2  A    between atoms: N_2  and  C_3
REMARK    3  A    between atoms: N_2  and  C_16
REMARK    4  A    between atoms: C_3  and  C_4
REMARK    5  A    between atoms: C_4  and  C_5
REMARK    6  A    between atoms: C_5  and  C_6
REMARK    7  A    between atoms: C_6  and  N_7
REMARK    8  A    between atoms: C_16  and  C_17
REMARK                            x       y       z     vdW  Elec       q    Type
REMARK                         _______ _______ _______ _____ _____    ______ ____
ROOT
ATOM      1  C   UNL     1       8.157   7.810  18.127  0.00  0.00    +0.000 C 
ENDROOT
BRANCH   1   2
ATOM      2  C   UNL     1       6.818   7.410  17.488  0.00  0.00    +0.000 C 
BRANCH   2   4
ATOM      3  C   UNL     1       7.566   5.167  18.052  0.00  0.00    +0.000 C 
ATOM      4  N   UNL     1       6.402   6.038  17.840  0.00  0.00    +0.000 NA
BRANCH   4   5
ATOM      5  C   UNL     1       5.565   5.440  16.776  0.00  0.00    +0.000 C 
BRANCH   5   6
ATOM      6  C   UNL     1       4.200   4.954  17.216  0.00  0.00    +0.000 A 
ATOM      7  C   UNL     1       3.308   5.833  17.847  0.00  0.00    +0.000 A 
ATOM      8  C   UNL     1       2.022   5.413  18.193  0.00  0.00    +0.000 A 
ATOM      9  C   UNL     1       1.613   4.111  17.911  0.00  0.00    +0.000 A 
ATOM     10  C   UNL     1       2.494   3.226  17.289  0.00  0.00    +0.000 A 
ATOM     11  C   UNL     1       3.780   3.644  16.944  0.00  0.00    +0.000 A 
ENDBRANCH   5   6
ENDBRANCH   4   5
ENDBRANCH   2   4
ENDBRANCH   1   2
BRANCH   1  12
ATOM     12  C   UNL     1       8.402   9.312  18.009  0.00  0.00    +0.000 C 
BRANCH  12  13
ATOM     13  C   UNL     1       9.069   9.851  19.270  0.00  0.00    +0.000 C 
BRANCH  13  14
ATOM     14  N   UNL     1       9.698  11.138  19.026  0.00  0.00    +0.000 N 
ATOM     15  C   UNL     1      10.247  11.508  17.825  0.00  0.00    +0.000 A 
ATOM     16  C   UNL     1      10.717  12.794  17.959  0.00  0.00    +0.000 A 
ATOM     17  C   UNL     1      10.443  13.220  19.287  0.00  0.00    +0.000 A 
ATOM     18  C   UNL     1      10.681  14.417  19.994  0.00  0.00    +0.000 A 
ATOM     19  C   UNL     1      10.264  14.522  21.325  0.00  0.00    +0.000 A 
ATOM     20  C   UNL     1       9.622  13.461  21.955  0.00  0.00    +0.000 A 
ATOM     21  C   UNL     1       9.376  12.264  21.275  0.00  0.00    +0.000 A 
ATOM     22  C   UNL     1       9.801  12.166  19.940  0.00  0.00    +0.000 A 
ENDBRANCH  13  14
ENDBRANCH  12  13
ENDBRANCH   1  12
TORSDOF 7
ENDMDL
