MODEL 1
REMARK VINA RESULT:      -8.1      0.000      0.000
REMARK  Name = 
REMARK  8 active torsions:
REMARK  status: ('A' for Active; 'I' for Inactive)
REMARK    1  A    between atoms: C_1  and  C_2
REMARK    2  A    between atoms: C_2  and  C_3
REMARK    3  A    between atoms: C_2  and  N_15
REMARK    4  A    between atoms: N_5  and  C_6
REMARK    5  A    between atoms: C_9  and  C_10
REMARK    6  A    between atoms: C_10  and  O_12
REMARK    7  A    between atoms: C_18  and  C_19
REMARK    8  A    between atoms: C_25  and  C_26
REMARK                            x       y       z     vdW  Elec       q    Type
REMARK                         _______ _______ _______ _____ _____    ______ ____
ROOT
ATOM      1  C   UNL     1       1.512  11.988  18.817  0.00  0.00    +0.000 C 
ATOM      2  C   UNL     1       1.058  10.817  19.694  0.00  0.00    +0.000 C 
ENDROOT
BRANCH   2   3
ATOM      3  N   UNL     1       1.565   9.493  19.285  0.00  0.00    +0.000 N 
ATOM      4  C   UNL     1       1.835   9.198  17.961  0.00  0.00    +0.000 A 
ATOM      5  C   UNL     1       2.208   7.973  17.590  0.00  0.00    +0.000 A 
ATOM      6  C   UNL     1       2.306   6.904  18.558  0.00  0.00    +0.000 A 
ATOM      7  C   UNL     1       2.121   7.169  19.859  0.00  0.00    +0.000 A 
ATOM      8  C   UNL     1       1.732   8.539  20.298  0.00  0.00    +0.000 A 
ATOM      9  O   UNL     1       1.536   8.749  21.491  0.00  0.00    +0.000 OA
BRANCH   6  10
ATOM     10  C   UNL     1       2.548   5.525  18.099  0.00  0.00    +0.000 A 
ATOM     11  C   UNL     1       1.605   4.534  18.408  0.00  0.00    +0.000 A 
ATOM     12  C   UNL     1       1.906   3.195  18.165  0.00  0.00    +0.000 A 
ATOM     13 CL   UNL     1       0.777   1.977  18.608  0.00  0.00    +0.000 Cl
ATOM     14  C   UNL     1       3.130   2.832  17.606  0.00  0.00    +0.000 A 
ATOM     15  C   UNL     1       4.062   3.815  17.270  0.00  0.00    +0.000 A 
ATOM     16  C   UNL     1       3.781   5.164  17.513  0.00  0.00    +0.000 A 
BRANCH  16  17
ATOM     17  C   UNL     1       4.780   6.148  17.204  0.00  0.00    +0.000 C 
ATOM     18  N   UNL     1       5.594   6.931  16.940  0.00  0.00    +0.000 NA
ENDBRANCH  16  17
ENDBRANCH   6  10
ENDBRANCH   2   3
BRANCH   2  19
ATOM     19  C   UNL     1      -0.486  10.839  19.796  0.00  0.00    +0.000 C 
ATOM     20  O   UNL     1      -1.017  10.611  20.884  0.00  0.00    +0.000 OA
ATOM     21  N   UNL     1      -1.155  11.263  18.654  0.00  0.00    +0.000 N 
ATOM     22  H   UNL     1      -0.603  11.320  17.805  0.00  0.00    +0.000 HD
BRANCH  21  23
ATOM     23  C   UNL     1      -2.547  11.469  18.518  0.00  0.00    +0.000 A 
ATOM     24  C   UNL     1      -3.302  12.198  19.437  0.00  0.00    +0.000 A 
ATOM     25  C   UNL     1      -4.677  12.376  19.258  0.00  0.00    +0.000 A 
ATOM     26  C   UNL     1      -5.328  11.825  18.153  0.00  0.00    +0.000 A 
ATOM     27  C   UNL     1      -4.581  11.102  17.214  0.00  0.00    +0.000 A 
ATOM     28  C   UNL     1      -3.198  10.930  17.398  0.00  0.00    +0.000 A 
BRANCH  26  29
ATOM     29  C   UNL     1      -6.780  12.108  18.006  0.00  0.00    +0.000 C 
ATOM     30  O   UNL     1      -7.581  11.913  18.906  0.00  0.00    +0.000 OA
BRANCH  29  31
ATOM     31  O   UNL     1      -7.145  12.567  16.793  0.00  0.00    +0.000 OA
ATOM     32  H   UNL     1      -6.409  12.740  16.178  0.00  0.00    +0.000 HD
ENDBRANCH  29  31
ENDBRANCH  26  29
ENDBRANCH  21  23
ENDBRANCH   2  19
TORSDOF 7
ENDMDL
MODEL 2
REMARK VINA RESULT:      -8.0      4.064      5.658
REMARK  Name = 
REMARK  8 active torsions:
REMARK  status: ('A' for Active; 'I' for Inactive)
REMARK    1  A    between atoms: C_1  and  C_2
REMARK    2  A    between atoms: C_2  and  C_3
REMARK    3  A    between atoms: C_2  and  N_15
REMARK    4  A    between atoms: N_5  and  C_6
REMARK    5  A    between atoms: C_9  and  C_10
REMARK    6  A    between atoms: C_10  and  O_12
REMARK    7  A    between atoms: C_18  and  C_19
REMARK    8  A    between atoms: C_25  and  C_26
REMARK                            x       y       z     vdW  Elec       q    Type
REMARK                         _______ _______ _______ _____ _____    ______ ____
ROOT
ATOM      1  C   UNL     1      -0.334   9.537  21.849  0.00  0.00    +0.000 C 
ATOM      2  C   UNL     1       0.162   9.838  20.431  0.00  0.00    +0.000 C 
ENDROOT
BRANCH   2   3
ATOM      3  N   UNL     1       0.981   8.778  19.814  0.00  0.00    +0.000 N 
ATOM      4  C   UNL     1       1.609   7.810  20.578  0.00  0.00    +0.000 A 
ATOM      5  C   UNL     1       2.418   6.910  20.021  0.00  0.00    +0.000 A 
ATOM      6  C   UNL     1       2.694   6.939  18.601  0.00  0.00    +0.000 A 
ATOM      7  C   UNL     1       2.049   7.817  17.820  0.00  0.00    +0.000 A 
ATOM      8  C   UNL     1       1.117   8.814  18.420  0.00  0.00    +0.000 A 
ATOM      9  O   UNL     1       0.564   9.628  17.687  0.00  0.00    +0.000 OA
BRANCH   6  10
ATOM     10  C   UNL     1       3.723   6.047  18.041  0.00  0.00    +0.000 A 
ATOM     11  C   UNL     1       5.017   6.550  17.840  0.00  0.00    +0.000 A 
ATOM     12  C   UNL     1       5.948   5.797  17.128  0.00  0.00    +0.000 A 
ATOM     13 CL   UNL     1       7.511   6.444  16.824  0.00  0.00    +0.000 Cl
ATOM     14  C   UNL     1       5.610   4.542  16.622  0.00  0.00    +0.000 A 
ATOM     15  C   UNL     1       4.332   4.023  16.842  0.00  0.00    +0.000 A 
ATOM     16  C   UNL     1       3.382   4.769  17.549  0.00  0.00    +0.000 A 
BRANCH  16  17
ATOM     17  C   UNL     1       2.061   4.230  17.714  0.00  0.00    +0.000 C 
ATOM     18  N   UNL     1       1.000   3.778  17.840  0.00  0.00    +0.000 NA
ENDBRANCH  16  17
ENDBRANCH   6  10
ENDBRANCH   2   3
BRANCH   2  19
ATOM     19  C   UNL     1       0.890  11.203  20.437  0.00  0.00    +0.000 C 
ATOM     20  O   UNL     1       1.585  11.507  21.408  0.00  0.00    +0.000 OA
ATOM     21  N   UNL     1       0.808  11.930  19.255  0.00  0.00    +0.000 N 
ATOM     22  H   UNL     1       0.123  11.613  18.579  0.00  0.00    +0.000 HD
BRANCH  21  23
ATOM     23  C   UNL     1       1.462  13.150  18.967  0.00  0.00    +0.000 A 
ATOM     24  C   UNL     1       2.729  13.217  18.386  0.00  0.00    +0.000 A 
ATOM     25  C   UNL     1       3.333  14.448  18.119  0.00  0.00    +0.000 A 
ATOM     26  C   UNL     1       2.682  15.643  18.428  0.00  0.00    +0.000 A 
ATOM     27  C   UNL     1       1.404  15.593  18.999  0.00  0.00    +0.000 A 
ATOM     28  C   UNL     1       0.800  14.352  19.262  0.00  0.00    +0.000 A 
BRANCH  26  29
ATOM     29  C   UNL     1       3.369  16.909  18.060  0.00  0.00    +0.000 C 
ATOM     30  O   UNL     1       4.299  17.363  18.705  0.00  0.00    +0.000 OA
BRANCH  29  31
ATOM     31  O   UNL     1       2.863  17.531  16.976  0.00  0.00    +0.000 OA
ATOM     32  H   UNL     1       2.197  17.020  16.481  0.00  0.00    +0.000 HD
ENDBRANCH  29  31
ENDBRANCH  26  29
ENDBRANCH  21  23
ENDBRANCH   2  19
TORSDOF 7
ENDMDL
MODEL 3
REMARK VINA RESULT:      -8.0      4.064      5.532
REMARK  Name = 
REMARK  8 active torsions:
REMARK  status: ('A' for Active; 'I' for Inactive)
REMARK    1  A    between atoms: C_1  and  C_2
REMARK    2  A    between atoms: C_2  and  C_3
REMARK    3  A    between atoms: C_2  and  N_15
REMARK    4  A    between atoms: N_5  and  C_6
REMARK    5  A    between atoms: C_9  and  C_10
REMARK    6  A    between atoms: C_10  and  O_12
REMARK    7  A    between atoms: C_18  and  C_19
REMARK    8  A    between atoms: C_25  and  C_26
REMARK                            x       y       z     vdW  Elec       q    Type
REMARK                         _______ _______ _______ _____ _____    ______ ____
ROOT
ATOM      1  C   UNL     1      -0.345   9.474  21.895  0.00  0.00    +0.000 C 
ATOM      2  C   UNL     1       0.115   9.778  20.466  0.00  0.00    +0.000 C 
ENDROOT
BRANCH   2   3
ATOM      3  N   UNL     1       0.957   8.739  19.843  0.00  0.00    +0.000 N 
ATOM      4  C   UNL     1       1.582   7.764  20.598  0.00  0.00    +0.000 A 
ATOM      5  C   UNL     1       2.411   6.883  20.037  0.00  0.00    +0.000 A 
ATOM      6  C   UNL     1       2.709   6.943  18.624  0.00  0.00    +0.000 A 
ATOM      7  C   UNL     1       2.068   7.829  17.848  0.00  0.00    +0.000 A 
ATOM      8  C   UNL     1       1.115   8.803  18.452  0.00  0.00    +0.000 A 
ATOM      9  O   UNL     1       0.565   9.625  17.726  0.00  0.00    +0.000 OA
BRANCH   6  10
ATOM     10  C   UNL     1       3.758   6.073  18.063  0.00  0.00    +0.000 A 
ATOM     11  C   UNL     1       5.050   6.593  17.897  0.00  0.00    +0.000 A 
ATOM     12  C   UNL     1       6.002   5.864  17.186  0.00  0.00    +0.000 A 
ATOM     13 CL   UNL     1       7.564   6.533  16.925  0.00  0.00    +0.000 Cl
ATOM     14  C   UNL     1       5.685   4.617  16.648  0.00  0.00    +0.000 A 
ATOM     15  C   UNL     1       4.410   4.081  16.833  0.00  0.00    +0.000 A 
ATOM     16  C   UNL     1       3.439   4.802  17.539  0.00  0.00    +0.000 A 
BRANCH  16  17
ATOM     17  C   UNL     1       2.121   4.247  17.668  0.00  0.00    +0.000 C 
ATOM     18  N   UNL     1       1.056   3.805  17.792  0.00  0.00    +0.000 NA
ENDBRANCH  16  17
ENDBRANCH   6  10
ENDBRANCH   2   3
BRANCH   2  19
ATOM     19  C   UNL     1       0.801  11.166  20.447  0.00  0.00    +0.000 C 
ATOM     20  O   UNL     1       1.592  11.454  21.346  0.00  0.00    +0.000 OA
ATOM     21  N   UNL     1       0.563  11.934  19.313  0.00  0.00    +0.000 N 
ATOM     22  H   UNL     1      -0.184  11.620  18.706  0.00  0.00    +0.000 HD
BRANCH  21  23
ATOM     23  C   UNL     1       1.146  13.186  19.006  0.00  0.00    +0.000 A 
ATOM     24  C   UNL     1       0.527  14.404  19.288  0.00  0.00    +0.000 A 
ATOM     25  C   UNL     1       1.144  15.616  18.966  0.00  0.00    +0.000 A 
ATOM     26  C   UNL     1       2.397  15.635  18.352  0.00  0.00    +0.000 A 
ATOM     27  C   UNL     1       3.037  14.421  18.074  0.00  0.00    +0.000 A 
ATOM     28  C   UNL     1       2.413  13.205  18.404  0.00  0.00    +0.000 A 
BRANCH  26  29
ATOM     29  C   UNL     1       3.009  16.965  18.095  0.00  0.00    +0.000 C 
ATOM     30  O   UNL     1       2.809  17.593  17.068  0.00  0.00    +0.000 OA
BRANCH  29  31
ATOM     31  O   UNL     1       3.828  17.407  19.071  0.00  0.00    +0.000 OA
ATOM     32  H   UNL     1       4.779  17.294  18.893  0.00  0.00    +0.000 HD
ENDBRANCH  29  31
ENDBRANCH  26  29
ENDBRANCH  21  23
ENDBRANCH   2  19
TORSDOF 7
ENDMDL
MODEL 4
REMARK VINA RESULT:      -7.7      0.659      1.188
REMARK  Name = 
REMARK  8 active torsions:
REMARK  status: ('A' for Active; 'I' for Inactive)
REMARK    1  A    between atoms: C_1  and  C_2
REMARK    2  A    between atoms: C_2  and  C_3
REMARK    3  A    between atoms: C_2  and  N_15
REMARK    4  A    between atoms: N_5  and  C_6
REMARK    5  A    between atoms: C_9  and  C_10
REMARK    6  A    between atoms: C_10  and  O_12
REMARK    7  A    between atoms: C_18  and  C_19
REMARK    8  A    between atoms: C_25  and  C_26
REMARK                            x       y       z     vdW  Elec       q    Type
REMARK                         _______ _______ _______ _____ _____    ______ ____
ROOT
ATOM      1  C   UNL     1       1.298  11.876  18.693  0.00  0.00    +0.000 C 
ATOM      2  C   UNL     1       0.867  10.675  19.541  0.00  0.00    +0.000 C 
ENDROOT
BRANCH   2   3
ATOM      3  N   UNL     1       1.490   9.390  19.174  0.00  0.00    +0.000 N 
ATOM      4  C   UNL     1       1.784   9.077  17.859  0.00  0.00    +0.000 A 
ATOM      5  C   UNL     1       2.266   7.880  17.527  0.00  0.00    +0.000 A 
ATOM      6  C   UNL     1       2.462   6.856  18.529  0.00  0.00    +0.000 A 
ATOM      7  C   UNL     1       2.255   7.146  19.822  0.00  0.00    +0.000 A 
ATOM      8  C   UNL     1       1.745   8.489  20.217  0.00  0.00    +0.000 A 
ATOM      9  O   UNL     1       1.532   8.719  21.403  0.00  0.00    +0.000 OA
BRANCH   6  10
ATOM     10  C   UNL     1       2.828   5.490  18.114  0.00  0.00    +0.000 A 
ATOM     11  C   UNL     1       1.927   4.445  18.362  0.00  0.00    +0.000 A 
ATOM     12  C   UNL     1       2.329   3.124  18.167  0.00  0.00    +0.000 A 
ATOM     13 CL   UNL     1       1.247   1.842  18.537  0.00  0.00    +0.000 Cl
ATOM     14  C   UNL     1       3.616   2.834  17.716  0.00  0.00    +0.000 A 
ATOM     15  C   UNL     1       4.509   3.871  17.441  0.00  0.00    +0.000 A 
ATOM     16  C   UNL     1       4.124   5.202  17.638  0.00  0.00    +0.000 A 
BRANCH  16  17
ATOM     17  C   UNL     1       5.082   6.244  17.395  0.00  0.00    +0.000 C 
ATOM     18  N   UNL     1       5.860   7.078  17.181  0.00  0.00    +0.000 NA
ENDBRANCH  16  17
ENDBRANCH   6  10
ENDBRANCH   2   3
BRANCH   2  19
ATOM     19  C   UNL     1      -0.679  10.591  19.536  0.00  0.00    +0.000 C 
ATOM     20  O   UNL     1      -1.230   9.661  20.127  0.00  0.00    +0.000 OA
ATOM     21  N   UNL     1      -1.335  11.677  18.966  0.00  0.00    +0.000 N 
ATOM     22  H   UNL     1      -0.761  12.317  18.429  0.00  0.00    +0.000 HD
BRANCH  21  23
ATOM     23  C   UNL     1      -2.732  11.892  18.926  0.00  0.00    +0.000 A 
ATOM     24  C   UNL     1      -3.545  11.425  17.892  0.00  0.00    +0.000 A 
ATOM     25  C   UNL     1      -4.922  11.662  17.899  0.00  0.00    +0.000 A 
ATOM     26  C   UNL     1      -5.517  12.375  18.941  0.00  0.00    +0.000 A 
ATOM     27  C   UNL     1      -4.717  12.838  19.992  0.00  0.00    +0.000 A 
ATOM     28  C   UNL     1      -3.332  12.593  19.982  0.00  0.00    +0.000 A 
BRANCH  26  29
ATOM     29  C   UNL     1      -6.994  12.534  18.900  0.00  0.00    +0.000 C 
ATOM     30  O   UNL     1      -7.534  13.588  18.605  0.00  0.00    +0.000 OA
BRANCH  29  31
ATOM     31  O   UNL     1      -7.690  11.432  19.246  0.00  0.00    +0.000 OA
ATOM     32  H   UNL     1      -8.157  10.992  18.513  0.00  0.00    +0.000 HD
ENDBRANCH  29  31
ENDBRANCH  26  29
ENDBRANCH  21  23
ENDBRANCH   2  19
TORSDOF 7
ENDMDL
MODEL 5
REMARK VINA RESULT:      -7.7      2.310      2.768
REMARK  Name = 
REMARK  8 active torsions:
REMARK  status: ('A' for Active; 'I' for Inactive)
REMARK    1  A    between atoms: C_1  and  C_2
REMARK    2  A    between atoms: C_2  and  C_3
REMARK    3  A    between atoms: C_2  and  N_15
REMARK    4  A    between atoms: N_5  and  C_6
REMARK    5  A    between atoms: C_9  and  C_10
REMARK    6  A    between atoms: C_10  and  O_12
REMARK    7  A    between atoms: C_18  and  C_19
REMARK    8  A    between atoms: C_25  and  C_26
REMARK                            x       y       z     vdW  Elec       q    Type
REMARK                         _______ _______ _______ _____ _____    ______ ____
ROOT
ATOM      1  C   UNL     1       1.322  12.127  18.810  0.00  0.00    +0.000 C 
ATOM      2  C   UNL     1       1.121  11.015  19.845  0.00  0.00    +0.000 C 
ENDROOT
BRANCH   2   3
ATOM      3  N   UNL     1       1.569   9.675  19.421  0.00  0.00    +0.000 N 
ATOM      4  C   UNL     1       1.789   9.372  18.090  0.00  0.00    +0.000 A 
ATOM      5  C   UNL     1       2.108   8.135  17.708  0.00  0.00    +0.000 A 
ATOM      6  C   UNL     1       2.198   7.062  18.673  0.00  0.00    +0.000 A 
ATOM      7  C   UNL     1       2.061   7.332  19.979  0.00  0.00    +0.000 A 
ATOM      8  C   UNL     1       1.734   8.715  20.429  0.00  0.00    +0.000 A 
ATOM      9  O   UNL     1       1.581   8.930  21.627  0.00  0.00    +0.000 OA
BRANCH   6  10
ATOM     10  C   UNL     1       2.379   5.676  18.207  0.00  0.00    +0.000 A 
ATOM     11  C   UNL     1       1.394   4.726  18.513  0.00  0.00    +0.000 A 
ATOM     12  C   UNL     1       1.634   3.376  18.264  0.00  0.00    +0.000 A 
ATOM     13 CL   UNL     1       0.454   2.207  18.703  0.00  0.00    +0.000 Cl
ATOM     14  C   UNL     1       2.841   2.962  17.701  0.00  0.00    +0.000 A 
ATOM     15  C   UNL     1       3.815   3.905  17.367  0.00  0.00    +0.000 A 
ATOM     16  C   UNL     1       3.593   5.264  17.617  0.00  0.00    +0.000 A 
BRANCH  16  17
ATOM     17  C   UNL     1       4.634   6.204  17.311  0.00  0.00    +0.000 C 
ATOM     18  N   UNL     1       5.466   6.969  17.046  0.00  0.00    +0.000 NA
ENDBRANCH  16  17
ENDBRANCH   6  10
ENDBRANCH   2   3
BRANCH   2  19
ATOM     19  C   UNL     1      -0.360  11.015  20.295  0.00  0.00    +0.000 C 
ATOM     20  O   UNL     1      -1.066  10.041  20.030  0.00  0.00    +0.000 OA
ATOM     21  N   UNL     1      -0.739  12.081  21.103  0.00  0.00    +0.000 N 
ATOM     22  H   UNL     1      -0.090  12.857  21.156  0.00  0.00    +0.000 HD
BRANCH  21  23
ATOM     23  C   UNL     1      -1.995  12.263  21.726  0.00  0.00    +0.000 A 
ATOM     24  C   UNL     1      -2.206  12.058  23.089  0.00  0.00    +0.000 A 
ATOM     25  C   UNL     1      -3.468  12.253  23.659  0.00  0.00    +0.000 A 
ATOM     26  C   UNL     1      -4.548  12.657  22.874  0.00  0.00    +0.000 A 
ATOM     27  C   UNL     1      -4.350  12.881  21.506  0.00  0.00    +0.000 A 
ATOM     28  C   UNL     1      -3.078  12.686  20.939  0.00  0.00    +0.000 A 
BRANCH  26  29
ATOM     29  C   UNL     1      -5.841  12.897  23.566  0.00  0.00    +0.000 C 
ATOM     30  O   UNL     1      -6.747  12.079  23.570  0.00  0.00    +0.000 OA
BRANCH  29  31
ATOM     31  O   UNL     1      -5.947  14.102  24.163  0.00  0.00    +0.000 OA
ATOM     32  H   UNL     1      -6.494  14.752  23.686  0.00  0.00    +0.000 HD
ENDBRANCH  29  31
ENDBRANCH  26  29
ENDBRANCH  21  23
ENDBRANCH   2  19
TORSDOF 7
ENDMDL
MODEL 6
REMARK VINA RESULT:      -7.6      1.421      2.069
REMARK  Name = 
REMARK  8 active torsions:
REMARK  status: ('A' for Active; 'I' for Inactive)
REMARK    1  A    between atoms: C_1  and  C_2
REMARK    2  A    between atoms: C_2  and  C_3
REMARK    3  A    between atoms: C_2  and  N_15
REMARK    4  A    between atoms: N_5  and  C_6
REMARK    5  A    between atoms: C_9  and  C_10
REMARK    6  A    between atoms: C_10  and  O_12
REMARK    7  A    between atoms: C_18  and  C_19
REMARK    8  A    between atoms: C_25  and  C_26
REMARK                            x       y       z     vdW  Elec       q    Type
REMARK                         _______ _______ _______ _____ _____    ______ ____
ROOT
ATOM      1  C   UNL     1       1.541  12.162  18.680  0.00  0.00    +0.000 C 
ATOM      2  C   UNL     1       1.050  11.016  19.571  0.00  0.00    +0.000 C 
ENDROOT
BRANCH   2   3
ATOM      3  N   UNL     1       1.557   9.679  19.210  0.00  0.00    +0.000 N 
ATOM      4  C   UNL     1       1.886   9.357  17.905  0.00  0.00    +0.000 A 
ATOM      5  C   UNL     1       2.260   8.121  17.574  0.00  0.00    +0.000 A 
ATOM      6  C   UNL     1       2.296   7.067  18.564  0.00  0.00    +0.000 A 
ATOM      7  C   UNL     1       2.052   7.358  19.849  0.00  0.00    +0.000 A 
ATOM      8  C   UNL     1       1.663   8.741  20.246  0.00  0.00    +0.000 A 
ATOM      9  O   UNL     1       1.412   8.974  21.424  0.00  0.00    +0.000 OA
BRANCH   6  10
ATOM     10  C   UNL     1       2.541   5.678  18.140  0.00  0.00    +0.000 A 
ATOM     11  C   UNL     1       1.573   4.704  18.425  0.00  0.00    +0.000 A 
ATOM     12  C   UNL     1       1.867   3.357  18.219  0.00  0.00    +0.000 A 
ATOM     13 CL   UNL     1       0.704   2.160  18.633  0.00  0.00    +0.000 Cl
ATOM     14  C   UNL     1       3.110   2.969  17.721  0.00  0.00    +0.000 A 
ATOM     15  C   UNL     1       4.069   3.935  17.409  0.00  0.00    +0.000 A 
ATOM     16  C   UNL     1       3.793   5.292  17.616  0.00  0.00    +0.000 A 
BRANCH  16  17
ATOM     17  C   UNL     1       4.818   6.258  17.334  0.00  0.00    +0.000 C 
ATOM     18  N   UNL     1       5.632   7.053  17.110  0.00  0.00    +0.000 NA
ENDBRANCH  16  17
ENDBRANCH   6  10
ENDBRANCH   2   3
BRANCH   2  19
ATOM     19  C   UNL     1      -0.496  11.054  19.625  0.00  0.00    +0.000 C 
ATOM     20  O   UNL     1      -1.134  10.099  19.178  0.00  0.00    +0.000 OA
ATOM     21  N   UNL     1      -1.044  12.128  20.316  0.00  0.00    +0.000 N 
ATOM     22  H   UNL     1      -0.412  12.888  20.540  0.00  0.00    +0.000 HD
BRANCH  21  23
ATOM     23  C   UNL     1      -2.414  12.342  20.595  0.00  0.00    +0.000 A 
ATOM     24  C   UNL     1      -3.394  12.394  19.604  0.00  0.00    +0.000 A 
ATOM     25  C   UNL     1      -4.737  12.605  19.932  0.00  0.00    +0.000 A 
ATOM     26  C   UNL     1      -5.128  12.770  21.261  0.00  0.00    +0.000 A 
ATOM     27  C   UNL     1      -4.157  12.707  22.269  0.00  0.00    +0.000 A 
ATOM     28  C   UNL     1      -2.809  12.490  21.933  0.00  0.00    +0.000 A 
BRANCH  26  29
ATOM     29  C   UNL     1      -6.581  12.933  21.528  0.00  0.00    +0.000 C 
ATOM     30  O   UNL     1      -7.436  12.661  20.701  0.00  0.00    +0.000 OA
BRANCH  29  31
ATOM     31  O   UNL     1      -6.878  13.436  22.744  0.00  0.00    +0.000 OA
ATOM     32  H   UNL     1      -6.112  13.584  23.327  0.00  0.00    +0.000 HD
ENDBRANCH  29  31
ENDBRANCH  26  29
ENDBRANCH  21  23
ENDBRANCH   2  19
TORSDOF 7
ENDMDL
MODEL 7
REMARK VINA RESULT:      -7.5      1.209      1.575
REMARK  Name = 
REMARK  8 active torsions:
REMARK  status: ('A' for Active; 'I' for Inactive)
REMARK    1  A    between atoms: C_1  and  C_2
REMARK    2  A    between atoms: C_2  and  C_3
REMARK    3  A    between atoms: C_2  and  N_15
REMARK    4  A    between atoms: N_5  and  C_6
REMARK    5  A    between atoms: C_9  and  C_10
REMARK    6  A    between atoms: C_10  and  O_12
REMARK    7  A    between atoms: C_18  and  C_19
REMARK    8  A    between atoms: C_25  and  C_26
REMARK                            x       y       z     vdW  Elec       q    Type
REMARK                         _______ _______ _______ _____ _____    ______ ____
ROOT
ATOM      1  C   UNL     1       1.543  12.098  18.833  0.00  0.00    +0.000 C 
ATOM      2  C   UNL     1       0.992  10.921  19.645  0.00  0.00    +0.000 C 
ENDROOT
BRANCH   2   3
ATOM      3  N   UNL     1       1.520   9.596  19.269  0.00  0.00    +0.000 N 
ATOM      4  C   UNL     1       1.834   9.287  17.958  0.00  0.00    +0.000 A 
ATOM      5  C   UNL     1       2.227   8.061  17.615  0.00  0.00    +0.000 A 
ATOM      6  C   UNL     1       2.303   7.004  18.599  0.00  0.00    +0.000 A 
ATOM      7  C   UNL     1       2.075   7.284  19.890  0.00  0.00    +0.000 A 
ATOM      8  C   UNL     1       1.663   8.657  20.299  0.00  0.00    +0.000 A 
ATOM      9  O   UNL     1       1.428   8.880  21.483  0.00  0.00    +0.000 OA
BRANCH   6  10
ATOM     10  C   UNL     1       2.569   5.622  18.165  0.00  0.00    +0.000 A 
ATOM     11  C   UNL     1       1.604   4.636  18.416  0.00  0.00    +0.000 A 
ATOM     12  C   UNL     1       1.914   3.294  18.201  0.00  0.00    +0.000 A 
ATOM     13 CL   UNL     1       0.752   2.083  18.575  0.00  0.00    +0.000 Cl
ATOM     14  C   UNL     1       3.171   2.923  17.728  0.00  0.00    +0.000 A 
ATOM     15  C   UNL     1       4.128   3.901  17.450  0.00  0.00    +0.000 A 
ATOM     16  C   UNL     1       3.837   5.252  17.666  0.00  0.00    +0.000 A 
BRANCH  16  17
ATOM     17  C   UNL     1       4.859   6.230  17.419  0.00  0.00    +0.000 C 
ATOM     18  N   UNL     1       5.698   7.005  17.215  0.00  0.00    +0.000 NA
ENDBRANCH  16  17
ENDBRANCH   6  10
ENDBRANCH   2   3
BRANCH   2  19
ATOM     19  C   UNL     1      -0.555  10.963  19.596  0.00  0.00    +0.000 C 
ATOM     20  O   UNL     1      -1.164  10.006  19.115  0.00  0.00    +0.000 OA
ATOM     21  N   UNL     1      -1.145  12.044  20.241  0.00  0.00    +0.000 N 
ATOM     22  H   UNL     1      -0.527  12.803  20.502  0.00  0.00    +0.000 HD
BRANCH  21  23
ATOM     23  C   UNL     1      -2.529  12.262  20.428  0.00  0.00    +0.000 A 
ATOM     24  C   UNL     1      -3.084  12.630  21.654  0.00  0.00    +0.000 A 
ATOM     25  C   UNL     1      -4.460  12.836  21.787  0.00  0.00    +0.000 A 
ATOM     26  C   UNL     1      -5.313  12.678  20.694  0.00  0.00    +0.000 A 
ATOM     27  C   UNL     1      -4.770  12.323  19.453  0.00  0.00    +0.000 A 
ATOM     28  C   UNL     1      -3.384  12.120  19.325  0.00  0.00    +0.000 A 
BRANCH  26  29
ATOM     29  C   UNL     1      -6.754  12.972  20.907  0.00  0.00    +0.000 C 
ATOM     30  O   UNL     1      -7.145  13.785  21.729  0.00  0.00    +0.000 OA
BRANCH  29  31
ATOM     31  O   UNL     1      -7.596  12.249  20.142  0.00  0.00    +0.000 OA
ATOM     32  H   UNL     1      -7.587  12.471  19.194  0.00  0.00    +0.000 HD
ENDBRANCH  29  31
ENDBRANCH  26  29
ENDBRANCH  21  23
ENDBRANCH   2  19
TORSDOF 7
ENDMDL
MODEL 8
REMARK VINA RESULT:      -7.4      4.406      9.809
REMARK  Name = 
REMARK  8 active torsions:
REMARK  status: ('A' for Active; 'I' for Inactive)
REMARK    1  A    between atoms: C_1  and  C_2
REMARK    2  A    between atoms: C_2  and  C_3
REMARK    3  A    between atoms: C_2  and  N_15
REMARK    4  A    between atoms: N_5  and  C_6
REMARK    5  A    between atoms: C_9  and  C_10
REMARK    6  A    between atoms: C_10  and  O_12
REMARK    7  A    between atoms: C_18  and  C_19
REMARK    8  A    between atoms: C_25  and  C_26
REMARK                            x       y       z     vdW  Elec       q    Type
REMARK                         _______ _______ _______ _____ _____    ______ ____
ROOT
ATOM      1  C   UNL     1       1.841   5.216  20.529  0.00  0.00    +0.000 C 
ATOM      2  C   UNL     1       2.698   6.156  19.675  0.00  0.00    +0.000 C 
ENDROOT
BRANCH   2   3
ATOM      3  N   UNL     1       2.104   7.480  19.409  0.00  0.00    +0.000 N 
ATOM      4  C   UNL     1       2.139   8.049  18.149  0.00  0.00    +0.000 A 
ATOM      5  C   UNL     1       1.678   9.282  17.937  0.00  0.00    +0.000 A 
ATOM      6  C   UNL     1       1.159  10.077  19.028  0.00  0.00    +0.000 A 
ATOM      7  C   UNL     1       1.045   9.533  20.248  0.00  0.00    +0.000 A 
ATOM      8  C   UNL     1       1.527   8.145  20.499  0.00  0.00    +0.000 A 
ATOM      9  O   UNL     1       1.441   7.681  21.632  0.00  0.00    +0.000 OA
BRANCH   6  10
ATOM     10  C   UNL     1       0.820  11.492  18.801  0.00  0.00    +0.000 A 
ATOM     11  C   UNL     1       1.804  12.467  19.025  0.00  0.00    +0.000 A 
ATOM     12  C   UNL     1       1.454  13.816  19.015  0.00  0.00    +0.000 A 
ATOM     13 CL   UNL     1       2.646  15.006  19.358  0.00  0.00    +0.000 Cl
ATOM     14  C   UNL     1       0.138  14.207  18.773  0.00  0.00    +0.000 A 
ATOM     15  C   UNL     1      -0.841  13.244  18.522  0.00  0.00    +0.000 A 
ATOM     16  C   UNL     1      -0.509  11.884  18.534  0.00  0.00    +0.000 A 
BRANCH  16  17
ATOM     17  C   UNL     1      -1.548  10.915  18.323  0.00  0.00    +0.000 C 
ATOM     18  N   UNL     1      -2.388  10.138  18.134  0.00  0.00    +0.000 NA
ENDBRANCH  16  17
ENDBRANCH   6  10
ENDBRANCH   2   3
BRANCH   2  19
ATOM     19  C   UNL     1       3.091   5.424  18.368  0.00  0.00    +0.000 C 
ATOM     20  O   UNL     1       2.237   4.767  17.771  0.00  0.00    +0.000 OA
ATOM     21  N   UNL     1       4.370   5.691  17.895  0.00  0.00    +0.000 N 
ATOM     22  H   UNL     1       4.997   6.164  18.536  0.00  0.00    +0.000 HD
BRANCH  21  23
ATOM     23  C   UNL     1       4.933   5.234  16.681  0.00  0.00    +0.000 A 
ATOM     24  C   UNL     1       5.260   3.898  16.449  0.00  0.00    +0.000 A 
ATOM     25  C   UNL     1       5.813   3.495  15.230  0.00  0.00    +0.000 A 
ATOM     26  C   UNL     1       6.052   4.422  14.215  0.00  0.00    +0.000 A 
ATOM     27  C   UNL     1       5.716   5.765  14.428  0.00  0.00    +0.000 A 
ATOM     28  C   UNL     1       5.157   6.164  15.654  0.00  0.00    +0.000 A 
BRANCH  26  29
ATOM     29  C   UNL     1       6.588   3.903  12.930  0.00  0.00    +0.000 C 
ATOM     30  O   UNL     1       6.159   2.890  12.400  0.00  0.00    +0.000 OA
BRANCH  29  31
ATOM     31  O   UNL     1       7.607   4.619  12.413  0.00  0.00    +0.000 OA
ATOM     32  H   UNL     1       7.892   4.346  11.522  0.00  0.00    +0.000 HD
ENDBRANCH  29  31
ENDBRANCH  26  29
ENDBRANCH  21  23
ENDBRANCH   2  19
TORSDOF 7
ENDMDL
MODEL 9
REMARK VINA RESULT:      -7.3      1.605      2.337
REMARK  Name = 
REMARK  8 active torsions:
REMARK  status: ('A' for Active; 'I' for Inactive)
REMARK    1  A    between atoms: C_1  and  C_2
REMARK    2  A    between atoms: C_2  and  C_3
REMARK    3  A    between atoms: C_2  and  N_15
REMARK    4  A    between atoms: N_5  and  C_6
REMARK    5  A    between atoms: C_9  and  C_10
REMARK    6  A    between atoms: C_10  and  O_12
REMARK    7  A    between atoms: C_18  and  C_19
REMARK    8  A    between atoms: C_25  and  C_26
REMARK                            x       y       z     vdW  Elec       q    Type
REMARK                         _______ _______ _______ _____ _____    ______ ____
ROOT
ATOM      1  C   UNL     1       1.481  11.743  18.806  0.00  0.00    +0.000 C 
ATOM      2  C   UNL     1       0.985  10.494  19.543  0.00  0.00    +0.000 C 
ENDROOT
BRANCH   2   3
ATOM      3  N   UNL     1       1.683   9.241  19.196  0.00  0.00    +0.000 N 
ATOM      4  C   UNL     1       2.105   8.981  17.904  0.00  0.00    +0.000 A 
ATOM      5  C   UNL     1       2.655   7.811  17.582  0.00  0.00    +0.000 A 
ATOM      6  C   UNL     1       2.794   6.761  18.567  0.00  0.00    +0.000 A 
ATOM      7  C   UNL     1       2.461   7.002  19.843  0.00  0.00    +0.000 A 
ATOM      8  C   UNL     1       1.872   8.315  20.230  0.00  0.00    +0.000 A 
ATOM      9  O   UNL     1       1.545   8.499  21.398  0.00  0.00    +0.000 OA
BRANCH   6  10
ATOM     10  C   UNL     1       3.241   5.422  18.146  0.00  0.00    +0.000 A 
ATOM     11  C   UNL     1       4.241   5.320  17.168  0.00  0.00    +0.000 A 
ATOM     12  C   UNL     1       4.536   4.078  16.608  0.00  0.00    +0.000 A 
ATOM     13 CL   UNL     1       5.714   3.966  15.361  0.00  0.00    +0.000 Cl
ATOM     14  C   UNL     1       3.855   2.934  17.020  0.00  0.00    +0.000 A 
ATOM     15  C   UNL     1       2.877   3.023  18.012  0.00  0.00    +0.000 A 
ATOM     16  C   UNL     1       2.563   4.263  18.581  0.00  0.00    +0.000 A 
BRANCH  16  17
ATOM     17  C   UNL     1       1.517   4.331  19.562  0.00  0.00    +0.000 C 
ATOM     18  N   UNL     1       0.685   4.378  20.369  0.00  0.00    +0.000 NA
ENDBRANCH  16  17
ENDBRANCH   6  10
ENDBRANCH   2   3
BRANCH   2  19
ATOM     19  C   UNL     1      -0.546  10.377  19.349  0.00  0.00    +0.000 C 
ATOM     20  O   UNL     1      -1.156   9.481  19.935  0.00  0.00    +0.000 OA
ATOM     21  N   UNL     1      -1.137  11.403  18.622  0.00  0.00    +0.000 N 
ATOM     22  H   UNL     1      -0.508  12.014  18.114  0.00  0.00    +0.000 HD
BRANCH  21  23
ATOM     23  C   UNL     1      -2.520  11.585  18.390  0.00  0.00    +0.000 A 
ATOM     24  C   UNL     1      -3.142  11.248  17.187  0.00  0.00    +0.000 A 
ATOM     25  C   UNL     1      -4.513  11.445  17.007  0.00  0.00    +0.000 A 
ATOM     26  C   UNL     1      -5.295  11.987  18.029  0.00  0.00    +0.000 A 
ATOM     27  C   UNL     1      -4.689  12.318  19.247  0.00  0.00    +0.000 A 
ATOM     28  C   UNL     1      -3.309  12.114  19.423  0.00  0.00    +0.000 A 
BRANCH  26  29
ATOM     29  C   UNL     1      -6.755  12.111  17.777  0.00  0.00    +0.000 C 
ATOM     30  O   UNL     1      -7.224  12.963  17.041  0.00  0.00    +0.000 OA
BRANCH  29  31
ATOM     31  O   UNL     1      -7.520  11.228  18.450  0.00  0.00    +0.000 OA
ATOM     32  H   UNL     1      -8.318  11.606  18.863  0.00  0.00    +0.000 HD
ENDBRANCH  29  31
ENDBRANCH  26  29
ENDBRANCH  21  23
ENDBRANCH   2  19
TORSDOF 7
ENDMDL
