MODEL 1
REMARK VINA RESULT:      -6.2      0.000      0.000
REMARK  Name = 
REMARK  5 active torsions:
REMARK  status: ('A' for Active; 'I' for Inactive)
REMARK    1  A    between atoms: C_1  and  C_2
REMARK    2  A    between atoms: C_2  and  C_3
REMARK    3  A    between atoms: C_4  and  C_5
REMARK    4  A    between atoms: C_5  and  N_6
REMARK    5  A    between atoms: C_20  and  C_21
REMARK                            x       y       z     vdW  Elec       q    Type
REMARK                         _______ _______ _______ _____ _____    ______ ____
ROOT
ATOM      1  N   UNL     1      -1.545  12.778  19.050  0.00  0.00    +0.000 NA
ATOM      2  C   UNL     1      -0.387  12.676  18.143  0.00  0.00    +0.000 C 
ATOM      3  C   UNL     1       0.936  12.159  18.717  0.00  0.00    +0.000 C 
ATOM      4  N   UNL     1       0.781  10.965  19.516  0.00  0.00    +0.000 N 
ATOM      5  C   UNL     1       1.289   9.675  19.275  0.00  0.00    +0.000 A 
ATOM      6  S   UNL     1       2.098   9.087  17.957  0.00  0.00    +0.000 S 
ATOM      7  N   UNL     1       0.967   8.898  20.396  0.00  0.00    +0.000 N 
ATOM      8  C   UNL     1       0.251   9.680  21.295  0.00  0.00    +0.000 A 
ATOM      9  C   UNL     1      -0.287   9.319  22.496  0.00  0.00    +0.000 A 
ATOM     10  C   UNL     1      -0.996  10.308  23.171  0.00  0.00    +0.000 A 
ATOM     11  C   UNL     1      -1.220  11.595  22.605  0.00  0.00    +0.000 A 
ATOM     12 CL   UNL     1      -2.100  12.667  23.636  0.00  0.00    +0.000 Cl
ATOM     13  C   UNL     1      -0.746  11.933  21.314  0.00  0.00    +0.000 A 
ATOM     14  C   UNL     1       0.089  10.957  20.748  0.00  0.00    +0.000 A 
ATOM     15  C   UNL     1      -1.159  13.139  20.457  0.00  0.00    +0.000 C 
ATOM     16  C   UNL     1      -2.300  14.052  20.939  0.00  0.00    +0.000 C 
ATOM     17  H   UNL     1       1.179   7.916  20.488  0.00  0.00    +0.000 HD
ENDROOT
BRANCH   1  18
ATOM     18  C   UNL     1      -2.469  11.632  18.998  0.00  0.00    +0.000 C 
BRANCH  18  22
ATOM     19  C   UNL     1      -3.173   9.794  15.636  0.00  0.00    +0.000 C 
ATOM     20  C   UNL     1      -3.308  10.731  16.799  0.00  0.00    +0.000 C 
ATOM     21  C   UNL     1      -4.508  11.640  16.807  0.00  0.00    +0.000 C 
ATOM     22  C   UNL     1      -2.371  10.759  17.778  0.00  0.00    +0.000 C 
ENDBRANCH  18  22
ENDBRANCH   1  18
TORSDOF 2
ENDMDL
MODEL 2
REMARK VINA RESULT:      -6.0      3.049      4.890
REMARK  Name = 
REMARK  5 active torsions:
REMARK  status: ('A' for Active; 'I' for Inactive)
REMARK    1  A    between atoms: C_1  and  C_2
REMARK    2  A    between atoms: C_2  and  C_3
REMARK    3  A    between atoms: C_4  and  C_5
REMARK    4  A    between atoms: C_5  and  N_6
REMARK    5  A    between atoms: C_20  and  C_21
REMARK                            x       y       z     vdW  Elec       q    Type
REMARK                         _______ _______ _______ _____ _____    ______ ____
ROOT
ATOM      1  N   UNL     1       0.484  11.746  18.458  0.00  0.00    +0.000 NA
ATOM      2  C   UNL     1      -0.813  12.444  18.393  0.00  0.00    +0.000 C 
ATOM      3  C   UNL     1      -1.955  11.928  19.274  0.00  0.00    +0.000 C 
ATOM      4  N   UNL     1      -1.553  11.682  20.641  0.00  0.00    +0.000 N 
ATOM      5  C   UNL     1      -1.990  12.326  21.814  0.00  0.00    +0.000 A 
ATOM      6  S   UNL     1      -2.984  13.636  21.993  0.00  0.00    +0.000 S 
ATOM      7  N   UNL     1      -1.396  11.651  22.889  0.00  0.00    +0.000 N 
ATOM      8  C   UNL     1      -0.589  10.635  22.392  0.00  0.00    +0.000 A 
ATOM      9  C   UNL     1       0.196   9.757  23.083  0.00  0.00    +0.000 A 
ATOM     10  C   UNL     1       0.937   8.864  22.315  0.00  0.00    +0.000 A 
ATOM     11  C   UNL     1       0.942   8.916  20.892  0.00  0.00    +0.000 A 
ATOM     12 CL   UNL     1       1.911   7.691  20.153  0.00  0.00    +0.000 Cl
ATOM     13  C   UNL     1       0.205   9.893  20.180  0.00  0.00    +0.000 A 
ATOM     14  C   UNL     1      -0.640  10.664  20.995  0.00  0.00    +0.000 A 
ATOM     15  C   UNL     1       0.345  10.269  18.698  0.00  0.00    +0.000 C 
ATOM     16  C   UNL     1       1.478   9.644  17.865  0.00  0.00    +0.000 C 
ATOM     17  H   UNL     1      -1.506  11.915  23.857  0.00  0.00    +0.000 HD
ENDROOT
BRANCH   1  18
ATOM     18  C   UNL     1       1.472  12.370  19.355  0.00  0.00    +0.000 C 
BRANCH  18  22
ATOM     19  C   UNL     1       3.633  15.206  17.785  0.00  0.00    +0.000 C 
ATOM     20  C   UNL     1       2.528  14.496  18.508  0.00  0.00    +0.000 C 
ATOM     21  C   UNL     1       1.402  15.345  19.036  0.00  0.00    +0.000 C 
ATOM     22  C   UNL     1       2.569  13.154  18.689  0.00  0.00    +0.000 C 
ENDBRANCH  18  22
ENDBRANCH   1  18
TORSDOF 2
ENDMDL
MODEL 3
REMARK VINA RESULT:      -5.8      0.613      1.141
REMARK  Name = 
REMARK  5 active torsions:
REMARK  status: ('A' for Active; 'I' for Inactive)
REMARK    1  A    between atoms: C_1  and  C_2
REMARK    2  A    between atoms: C_2  and  C_3
REMARK    3  A    between atoms: C_4  and  C_5
REMARK    4  A    between atoms: C_5  and  N_6
REMARK    5  A    between atoms: C_20  and  C_21
REMARK                            x       y       z     vdW  Elec       q    Type
REMARK                         _______ _______ _______ _____ _____    ______ ____
ROOT
ATOM      1  N   UNL     1      -1.760  12.816  19.089  0.00  0.00    +0.000 NA
ATOM      2  C   UNL     1      -0.630  12.724  18.146  0.00  0.00    +0.000 C 
ATOM      3  C   UNL     1       0.721  12.242  18.683  0.00  0.00    +0.000 C 
ATOM      4  N   UNL     1       0.616  11.056  19.502  0.00  0.00    +0.000 N 
ATOM      5  C   UNL     1       1.143   9.773  19.262  0.00  0.00    +0.000 A 
ATOM      6  S   UNL     1       1.920   9.184  17.925  0.00  0.00    +0.000 S 
ATOM      7  N   UNL     1       0.873   9.005  20.402  0.00  0.00    +0.000 N 
ATOM      8  C   UNL     1       0.171   9.785  21.313  0.00  0.00    +0.000 A 
ATOM      9  C   UNL     1      -0.321   9.429  22.537  0.00  0.00    +0.000 A 
ATOM     10  C   UNL     1      -1.027  10.413  23.221  0.00  0.00    +0.000 A 
ATOM     11  C   UNL     1      -1.296  11.688  22.646  0.00  0.00    +0.000 A 
ATOM     12 CL   UNL     1      -2.163  12.755  23.692  0.00  0.00    +0.000 Cl
ATOM     13  C   UNL     1      -0.871  12.018  21.337  0.00  0.00    +0.000 A 
ATOM     14  C   UNL     1      -0.035  11.051  20.756  0.00  0.00    +0.000 A 
ATOM     15  C   UNL     1      -1.336  13.203  20.478  0.00  0.00    +0.000 C 
ATOM     16  C   UNL     1      -2.479  14.100  20.985  0.00  0.00    +0.000 C 
ATOM     17  H   UNL     1       1.108   8.029  20.499  0.00  0.00    +0.000 HD
ENDROOT
BRANCH   1  18
ATOM     18  C   UNL     1      -2.662  11.651  19.082  0.00  0.00    +0.000 C 
BRANCH  18  22
ATOM     19  C   UNL     1      -6.130  12.108  17.367  0.00  0.00    +0.000 C 
ATOM     20  C   UNL     1      -4.691  11.749  17.591  0.00  0.00    +0.000 C 
ATOM     21  C   UNL     1      -3.947  11.153  16.425  0.00  0.00    +0.000 C 
ATOM     22  C   UNL     1      -4.110  11.937  18.801  0.00  0.00    +0.000 C 
ENDBRANCH  18  22
ENDBRANCH   1  18
TORSDOF 2
ENDMDL
MODEL 4
REMARK VINA RESULT:      -5.7      3.057      4.971
REMARK  Name = 
REMARK  5 active torsions:
REMARK  status: ('A' for Active; 'I' for Inactive)
REMARK    1  A    between atoms: C_1  and  C_2
REMARK    2  A    between atoms: C_2  and  C_3
REMARK    3  A    between atoms: C_4  and  C_5
REMARK    4  A    between atoms: C_5  and  N_6
REMARK    5  A    between atoms: C_20  and  C_21
REMARK                            x       y       z     vdW  Elec       q    Type
REMARK                         _______ _______ _______ _____ _____    ______ ____
ROOT
ATOM      1  N   UNL     1       0.633  11.874  18.596  0.00  0.00    +0.000 NA
ATOM      2  C   UNL     1      -0.644  12.602  18.471  0.00  0.00    +0.000 C 
ATOM      3  C   UNL     1      -1.851  12.081  19.257  0.00  0.00    +0.000 C 
ATOM      4  N   UNL     1      -1.544  11.783  20.638  0.00  0.00    +0.000 N 
ATOM      5  C   UNL     1      -2.045  12.396  21.801  0.00  0.00    +0.000 A 
ATOM      6  S   UNL     1      -3.023  13.721  21.959  0.00  0.00    +0.000 S 
ATOM      7  N   UNL     1      -1.537  11.674  22.889  0.00  0.00    +0.000 N 
ATOM      8  C   UNL     1      -0.719  10.657  22.411  0.00  0.00    +0.000 A 
ATOM      9  C   UNL     1       0.002   9.741  23.122  0.00  0.00    +0.000 A 
ATOM     10  C   UNL     1       0.775   8.857  22.373  0.00  0.00    +0.000 A 
ATOM     11  C   UNL     1       0.875   8.957  20.957  0.00  0.00    +0.000 A 
ATOM     12 CL   UNL     1       1.866   7.735  20.241  0.00  0.00    +0.000 Cl
ATOM     13  C   UNL     1       0.205   9.971  20.232  0.00  0.00    +0.000 A 
ATOM     14  C   UNL     1      -0.677  10.734  21.016  0.00  0.00    +0.000 A 
ATOM     15  C   UNL     1       0.450  10.393  18.776  0.00  0.00    +0.000 C 
ATOM     16  C   UNL     1       1.623   9.771  17.998  0.00  0.00    +0.000 C 
ATOM     17  H   UNL     1      -1.705  11.908  23.856  0.00  0.00    +0.000 HD
ENDROOT
BRANCH   1  18
ATOM     18  C   UNL     1       1.572  12.446  19.577  0.00  0.00    +0.000 C 
BRANCH  18  22
ATOM     19  C   UNL     1       1.820  16.288  20.175  0.00  0.00    +0.000 C 
ATOM     20  C   UNL     1       1.561  14.828  20.400  0.00  0.00    +0.000 C 
ATOM     21  C   UNL     1       0.992  14.435  21.738  0.00  0.00    +0.000 C 
ATOM     22  C   UNL     1       1.854  13.917  19.441  0.00  0.00    +0.000 C 
ENDBRANCH  18  22
ENDBRANCH   1  18
TORSDOF 2
ENDMDL
MODEL 5
REMARK VINA RESULT:      -5.5      6.407      9.049
REMARK  Name = 
REMARK  5 active torsions:
REMARK  status: ('A' for Active; 'I' for Inactive)
REMARK    1  A    between atoms: C_1  and  C_2
REMARK    2  A    between atoms: C_2  and  C_3
REMARK    3  A    between atoms: C_4  and  C_5
REMARK    4  A    between atoms: C_5  and  N_6
REMARK    5  A    between atoms: C_20  and  C_21
REMARK                            x       y       z     vdW  Elec       q    Type
REMARK                         _______ _______ _______ _____ _____    ______ ____
ROOT
ATOM      1  N   UNL     1       4.484   5.555  17.381  0.00  0.00    +0.000 NA
ATOM      2  C   UNL     1       3.708   6.801  17.242  0.00  0.00    +0.000 C 
ATOM      3  C   UNL     1       2.289   6.835  17.818  0.00  0.00    +0.000 C 
ATOM      4  N   UNL     1       2.207   6.306  19.160  0.00  0.00    +0.000 N 
ATOM      5  C   UNL     1       1.859   6.976  20.349  0.00  0.00    +0.000 A 
ATOM      6  S   UNL     1       1.569   8.584  20.609  0.00  0.00    +0.000 S 
ATOM      7  N   UNL     1       1.810   6.006  21.359  0.00  0.00    +0.000 N 
ATOM      8  C   UNL     1       2.148   4.773  20.816  0.00  0.00    +0.000 A 
ATOM      9  C   UNL     1       2.259   3.567  21.446  0.00  0.00    +0.000 A 
ATOM     10  C   UNL     1       2.659   2.496  20.652  0.00  0.00    +0.000 A 
ATOM     11  C   UNL     1       3.015   2.663  19.284  0.00  0.00    +0.000 A 
ATOM     12 CL   UNL     1       3.451   1.190  18.492  0.00  0.00    +0.000 Cl
ATOM     13  C   UNL     1       2.996   3.933  18.659  0.00  0.00    +0.000 A 
ATOM     14  C   UNL     1       2.439   4.945  19.459  0.00  0.00    +0.000 A 
ATOM     15  C   UNL     1       3.630   4.320  17.315  0.00  0.00    +0.000 C 
ATOM     16  C   UNL     1       4.505   3.296  16.571  0.00  0.00    +0.000 C 
ATOM     17  H   UNL     1       1.616   6.205  22.329  0.00  0.00    +0.000 HD
ENDROOT
BRANCH   1  18
ATOM     18  C   UNL     1       5.413   5.534  18.525  0.00  0.00    +0.000 C 
BRANCH  18  22
ATOM     19  C   UNL     1       8.215   8.168  17.904  0.00  0.00    +0.000 C 
ATOM     20  C   UNL     1       7.277   7.017  17.701  0.00  0.00    +0.000 C 
ATOM     21  C   UNL     1       7.402   6.254  16.408  0.00  0.00    +0.000 C 
ATOM     22  C   UNL     1       6.349   6.705  18.637  0.00  0.00    +0.000 C 
ENDBRANCH  18  22
ENDBRANCH   1  18
TORSDOF 2
ENDMDL
MODEL 6
REMARK VINA RESULT:      -5.5      9.989     11.935
REMARK  Name = 
REMARK  5 active torsions:
REMARK  status: ('A' for Active; 'I' for Inactive)
REMARK    1  A    between atoms: C_1  and  C_2
REMARK    2  A    between atoms: C_2  and  C_3
REMARK    3  A    between atoms: C_4  and  C_5
REMARK    4  A    between atoms: C_5  and  N_6
REMARK    5  A    between atoms: C_20  and  C_21
REMARK                            x       y       z     vdW  Elec       q    Type
REMARK                         _______ _______ _______ _____ _____    ______ ____
ROOT
ATOM      1  N   UNL     1       9.150  15.165  20.790  0.00  0.00    +0.000 NA
ATOM      2  C   UNL     1       9.889  16.433  20.929  0.00  0.00    +0.000 C 
ATOM      3  C   UNL     1      11.287  16.526  20.308  0.00  0.00    +0.000 C 
ATOM      4  N   UNL     1      11.341  16.027  18.953  0.00  0.00    +0.000 N 
ATOM      5  C   UNL     1      11.627  16.731  17.768  0.00  0.00    +0.000 A 
ATOM      6  S   UNL     1      11.855  18.352  17.532  0.00  0.00    +0.000 S 
ATOM      7  N   UNL     1      11.673  15.783  16.737  0.00  0.00    +0.000 N 
ATOM      8  C   UNL     1      11.394  14.529  17.265  0.00  0.00    +0.000 A 
ATOM      9  C   UNL     1      11.302  13.333  16.613  0.00  0.00    +0.000 A 
ATOM     10  C   UNL     1      10.964  12.234  17.398  0.00  0.00    +0.000 A 
ATOM     11  C   UNL     1      10.648  12.362  18.780  0.00  0.00    +0.000 A 
ATOM     12 CL   UNL     1      10.287  10.860  19.555  0.00  0.00    +0.000 Cl
ATOM     13  C   UNL     1      10.647  13.619  19.430  0.00  0.00    +0.000 A 
ATOM     14  C   UNL     1      11.143  14.665  18.634  0.00  0.00    +0.000 A 
ATOM     15  C   UNL     1      10.045  13.958  20.802  0.00  0.00    +0.000 C 
ATOM     16  C   UNL     1       9.230  12.891  21.553  0.00  0.00    +0.000 C 
ATOM     17  H   UNL     1      11.829  16.007  15.765  0.00  0.00    +0.000 HD
ENDROOT
BRANCH   1  18
ATOM     18  C   UNL     1       8.185  15.136  19.677  0.00  0.00    +0.000 C 
BRANCH  18  22
ATOM     19  C   UNL     1       4.297  15.371  19.611  0.00  0.00    +0.000 C 
ATOM     20  C   UNL     1       5.713  15.125  19.185  0.00  0.00    +0.000 C 
ATOM     21  C   UNL     1       5.927  14.644  17.774  0.00  0.00    +0.000 C 
ATOM     22  C   UNL     1       6.739  15.311  20.050  0.00  0.00    +0.000 C 
ENDBRANCH  18  22
ENDBRANCH   1  18
TORSDOF 2
ENDMDL
MODEL 7
REMARK VINA RESULT:      -5.5      1.354      1.931
REMARK  Name = 
REMARK  5 active torsions:
REMARK  status: ('A' for Active; 'I' for Inactive)
REMARK    1  A    between atoms: C_1  and  C_2
REMARK    2  A    between atoms: C_2  and  C_3
REMARK    3  A    between atoms: C_4  and  C_5
REMARK    4  A    between atoms: C_5  and  N_6
REMARK    5  A    between atoms: C_20  and  C_21
REMARK                            x       y       z     vdW  Elec       q    Type
REMARK                         _______ _______ _______ _____ _____    ______ ____
ROOT
ATOM      1  N   UNL     1      -0.321  10.864  18.220  0.00  0.00    +0.000 NA
ATOM      2  C   UNL     1       0.843  10.142  17.673  0.00  0.00    +0.000 C 
ATOM      3  C   UNL     1       1.963   9.743  18.639  0.00  0.00    +0.000 C 
ATOM      4  N   UNL     1       1.475   9.122  19.850  0.00  0.00    +0.000 N 
ATOM      5  C   UNL     1       1.683   7.807  20.308  0.00  0.00    +0.000 A 
ATOM      6  S   UNL     1       2.424   6.532  19.559  0.00  0.00    +0.000 S 
ATOM      7  N   UNL     1       1.107   7.729  21.583  0.00  0.00    +0.000 N 
ATOM      8  C   UNL     1       0.532   8.955  21.894  0.00  0.00    +0.000 A 
ATOM      9  C   UNL     1      -0.161   9.310  23.015  0.00  0.00    +0.000 A 
ATOM     10  C   UNL     1      -0.665  10.608  23.037  0.00  0.00    +0.000 A 
ATOM     11  C   UNL     1      -0.540  11.485  21.922  0.00  0.00    +0.000 A 
ATOM     12 CL   UNL     1      -1.216  13.052  22.190  0.00  0.00    +0.000 Cl
ATOM     13  C   UNL     1       0.092  11.078  20.723  0.00  0.00    +0.000 A 
ATOM     14  C   UNL     1       0.713   9.822  20.812  0.00  0.00    +0.000 A 
ATOM     15  C   UNL     1       0.036  11.779  19.357  0.00  0.00    +0.000 C 
ATOM     16  C   UNL     1      -0.891  12.993  19.169  0.00  0.00    +0.000 C 
ATOM     17  H   UNL     1       1.076   6.890  22.143  0.00  0.00    +0.000 HD
ENDROOT
BRANCH   1  18
ATOM     18  C   UNL     1      -1.482  10.011  18.530  0.00  0.00    +0.000 C 
BRANCH  18  22
ATOM     19  C   UNL     1      -4.700  11.268  16.730  0.00  0.00    +0.000 C 
ATOM     20  C   UNL     1      -3.370  10.621  16.976  0.00  0.00    +0.000 C 
ATOM     21  C   UNL     1      -2.688   9.991  15.790  0.00  0.00    +0.000 C 
ATOM     22  C   UNL     1      -2.832  10.594  18.220  0.00  0.00    +0.000 C 
ENDBRANCH  18  22
ENDBRANCH   1  18
TORSDOF 2
ENDMDL
MODEL 8
REMARK VINA RESULT:      -5.5      1.571      2.264
REMARK  Name = 
REMARK  5 active torsions:
REMARK  status: ('A' for Active; 'I' for Inactive)
REMARK    1  A    between atoms: C_1  and  C_2
REMARK    2  A    between atoms: C_2  and  C_3
REMARK    3  A    between atoms: C_4  and  C_5
REMARK    4  A    between atoms: C_5  and  N_6
REMARK    5  A    between atoms: C_20  and  C_21
REMARK                            x       y       z     vdW  Elec       q    Type
REMARK                         _______ _______ _______ _____ _____    ______ ____
ROOT
ATOM      1  N   UNL     1      -0.278  10.714  18.048  0.00  0.00    +0.000 NA
ATOM      2  C   UNL     1       0.784   9.705  17.874  0.00  0.00    +0.000 C 
ATOM      3  C   UNL     1       1.716   9.427  19.057  0.00  0.00    +0.000 C 
ATOM      4  N   UNL     1       1.011   9.245  20.306  0.00  0.00    +0.000 N 
ATOM      5  C   UNL     1       0.934   8.093  21.111  0.00  0.00    +0.000 A 
ATOM      6  S   UNL     1       1.501   6.565  20.826  0.00  0.00    +0.000 S 
ATOM      7  N   UNL     1       0.234   8.457  22.269  0.00  0.00    +0.000 N 
ATOM      8  C   UNL     1      -0.137   9.792  22.170  0.00  0.00    +0.000 A 
ATOM      9  C   UNL     1      -0.859  10.542  23.054  0.00  0.00    +0.000 A 
ATOM     10  C   UNL     1      -1.121  11.854  22.671  0.00  0.00    +0.000 A 
ATOM     11  C   UNL     1      -0.734  12.360  21.397  0.00  0.00    +0.000 A 
ATOM     12 CL   UNL     1      -1.138  14.023  21.156  0.00  0.00    +0.000 Cl
ATOM     13  C   UNL     1      -0.074  11.549  20.443  0.00  0.00    +0.000 A 
ATOM     14  C   UNL     1       0.300  10.289  20.938  0.00  0.00    +0.000 A 
ATOM     15  C   UNL     1       0.128  11.845  18.949  0.00  0.00    +0.000 C 
ATOM     16  C   UNL     1      -0.543  13.082  18.328  0.00  0.00    +0.000 C 
ATOM     17  H   UNL     1      -0.001   7.819  23.016  0.00  0.00    +0.000 HD
ENDROOT
BRANCH   1  18
ATOM     18  C   UNL     1      -1.598  10.161  18.400  0.00  0.00    +0.000 C 
BRANCH  18  22
ATOM     19  C   UNL     1      -4.894  11.506  16.817  0.00  0.00    +0.000 C 
ATOM     20  C   UNL     1      -3.777  11.269  17.790  0.00  0.00    +0.000 C 
ATOM     21  C   UNL     1      -3.878  11.959  19.125  0.00  0.00    +0.000 C 
ATOM     22  C   UNL     1      -2.723  10.485  17.457  0.00  0.00    +0.000 C 
ENDBRANCH  18  22
ENDBRANCH   1  18
TORSDOF 2
ENDMDL
MODEL 9
REMARK VINA RESULT:      -5.5      2.480      3.657
REMARK  Name = 
REMARK  5 active torsions:
REMARK  status: ('A' for Active; 'I' for Inactive)
REMARK    1  A    between atoms: C_1  and  C_2
REMARK    2  A    between atoms: C_2  and  C_3
REMARK    3  A    between atoms: C_4  and  C_5
REMARK    4  A    between atoms: C_5  and  N_6
REMARK    5  A    between atoms: C_20  and  C_21
REMARK                            x       y       z     vdW  Elec       q    Type
REMARK                         _______ _______ _______ _____ _____    ______ ____
ROOT
ATOM      1  N   UNL     1      -0.724  13.195  21.222  0.00  0.00    +0.000 NA
ATOM      2  C   UNL     1       0.173  14.366  21.199  0.00  0.00    +0.000 C 
ATOM      3  C   UNL     1       1.651  14.136  20.867  0.00  0.00    +0.000 C 
ATOM      4  N   UNL     1       1.850  13.293  19.710  0.00  0.00    +0.000 N 
ATOM      5  C   UNL     1       2.436  13.622  18.474  0.00  0.00    +0.000 A 
ATOM      6  S   UNL     1       2.953  15.088  17.907  0.00  0.00    +0.000 S 
ATOM      7  N   UNL     1       2.503  12.436  17.730  0.00  0.00    +0.000 N 
ATOM      8  C   UNL     1       1.946  11.405  18.477  0.00  0.00    +0.000 A 
ATOM      9  C   UNL     1       1.776  10.097  18.126  0.00  0.00    +0.000 A 
ATOM     10  C   UNL     1       1.143   9.289  19.067  0.00  0.00    +0.000 A 
ATOM     11  C   UNL     1       0.627   9.812  20.286  0.00  0.00    +0.000 A 
ATOM     12 CL   UNL     1      -0.089   8.618  21.309  0.00  0.00    +0.000 Cl
ATOM     13  C   UNL     1       0.716  11.189  20.601  0.00  0.00    +0.000 A 
ATOM     14  C   UNL     1       1.496  11.925  19.694  0.00  0.00    +0.000 A 
ATOM     15  C   UNL     1      -0.044  11.944  21.703  0.00  0.00    +0.000 C 
ATOM     16  C   UNL     1      -1.130  11.210  22.508  0.00  0.00    +0.000 C 
ATOM     17  H   UNL     1       2.851  12.376  16.785  0.00  0.00    +0.000 HD
ENDROOT
BRANCH   1  18
ATOM     18  C   UNL     1      -1.483  12.978  19.978  0.00  0.00    +0.000 C 
BRANCH  18  22
ATOM     19  C   UNL     1      -5.237  12.091  19.435  0.00  0.00    +0.000 C 
ATOM     20  C   UNL     1      -3.750  12.153  19.251  0.00  0.00    +0.000 C 
ATOM     21  C   UNL     1      -3.177  11.412  18.072  0.00  0.00    +0.000 C 
ATOM     22  C   UNL     1      -2.971  12.830  20.129  0.00  0.00    +0.000 C 
ENDBRANCH  18  22
ENDBRANCH   1  18
TORSDOF 2
ENDMDL
