MODEL 1
REMARK VINA RESULT:      -6.9      0.000      0.000
REMARK  Name = 
REMARK  2 active torsions:
REMARK  status: ('A' for Active; 'I' for Inactive)
REMARK    1  A    between atoms: C_1  and  C_2
REMARK    2  A    between atoms: C_4  and  C_5
REMARK                            x       y       z     vdW  Elec       q    Type
REMARK                         _______ _______ _______ _____ _____    ______ ____
ROOT
ATOM      1  C   UNL     1       2.334   6.156  19.695  0.00  0.00    +0.000 C 
ATOM      2  O   UNL     1       1.894   5.702  20.749  0.00  0.00    +0.000 OA
ATOM      3  N   UNL     1       2.198   7.456  19.266  0.00  0.00    +0.000 N 
ATOM      4  C   UNL     1       1.565   8.375  20.064  0.00  0.00    +0.000 A 
ATOM      5  N   UNL     1       1.265   8.274  21.333  0.00  0.00    +0.000 NA
ATOM      6  C   UNL     1       0.548   9.377  21.725  0.00  0.00    +0.000 A 
ATOM      7  C   UNL     1       0.313  10.308  20.735  0.00  0.00    +0.000 A 
ATOM      8  S   UNL     1       1.089   9.829  19.290  0.00  0.00    +0.000 S 
ATOM      9  C   UNL     1      -0.539  11.522  20.894  0.00  0.00    +0.000 C 
ATOM     10  C   UNL     1      -0.790  11.810  22.389  0.00  0.00    +0.000 C 
ATOM     11  C   UNL     1      -1.097  10.534  23.196  0.00  0.00    +0.000 C 
ATOM     12  C   UNL     1       0.060   9.525  23.124  0.00  0.00    +0.000 C 
ATOM     13  H   UNL     1       2.434   7.735  18.329  0.00  0.00    +0.000 HD
ENDROOT
BRANCH   1  17
ATOM     14  C   UNL     1       5.209   4.257  15.805  0.00  0.00    +0.000 C 
ATOM     15  C   UNL     1       4.327   4.386  16.998  0.00  0.00    +0.000 A 
ATOM     16  C   UNL     1       3.832   5.528  17.604  0.00  0.00    +0.000 A 
ATOM     17  C   UNL     1       3.025   5.245  18.762  0.00  0.00    +0.000 A 
ATOM     18  C   UNL     1       2.952   3.872  18.956  0.00  0.00    +0.000 A 
ATOM     19  S   UNL     1       3.812   2.969  17.800  0.00  0.00    +0.000 S 
ENDBRANCH   1  17
TORSDOF 1
ENDMDL
MODEL 2
REMARK VINA RESULT:      -6.9      1.888      7.804
REMARK  Name = 
REMARK  2 active torsions:
REMARK  status: ('A' for Active; 'I' for Inactive)
REMARK    1  A    between atoms: C_1  and  C_2
REMARK    2  A    between atoms: C_4  and  C_5
REMARK                            x       y       z     vdW  Elec       q    Type
REMARK                         _______ _______ _______ _____ _____    ______ ____
ROOT
ATOM      1  C   UNL     1       1.818   8.772  18.774  0.00  0.00    +0.000 C 
ATOM      2  O   UNL     1       2.045   9.273  17.675  0.00  0.00    +0.000 OA
ATOM      3  N   UNL     1       2.303   7.562  19.217  0.00  0.00    +0.000 N 
ATOM      4  C   UNL     1       3.151   6.835  18.420  0.00  0.00    +0.000 A 
ATOM      5  N   UNL     1       3.800   7.231  17.356  0.00  0.00    +0.000 NA
ATOM      6  C   UNL     1       4.464   6.166  16.799  0.00  0.00    +0.000 A 
ATOM      7  C   UNL     1       4.305   4.965  17.458  0.00  0.00    +0.000 A 
ATOM      8  S   UNL     1       3.368   5.195  18.869  0.00  0.00    +0.000 S 
ATOM      9  C   UNL     1       4.830   3.654  16.977  0.00  0.00    +0.000 C 
ATOM     10  C   UNL     1       5.894   3.872  15.880  0.00  0.00    +0.000 C 
ATOM     11  C   UNL     1       5.492   4.967  14.873  0.00  0.00    +0.000 C 
ATOM     12  C   UNL     1       5.279   6.323  15.563  0.00  0.00    +0.000 C 
ATOM     13  H   UNL     1       1.959   7.125  20.054  0.00  0.00    +0.000 HD
ENDROOT
BRANCH   1  17
ATOM     14  C   UNL     1      -0.785  10.260  23.019  0.00  0.00    +0.000 C 
ATOM     15  C   UNL     1      -0.270  10.145  21.625  0.00  0.00    +0.000 A 
ATOM     16  C   UNL     1       0.645   9.249  21.099  0.00  0.00    +0.000 A 
ATOM     17  C   UNL     1       0.910   9.473  19.702  0.00  0.00    +0.000 A 
ATOM     18  C   UNL     1       0.151  10.543  19.248  0.00  0.00    +0.000 A 
ATOM     19  S   UNL     1      -0.832  11.245  20.446  0.00  0.00    +0.000 S 
ENDBRANCH   1  17
TORSDOF 1
ENDMDL
MODEL 3
REMARK VINA RESULT:      -6.7      2.194      7.790
REMARK  Name = 
REMARK  2 active torsions:
REMARK  status: ('A' for Active; 'I' for Inactive)
REMARK    1  A    between atoms: C_1  and  C_2
REMARK    2  A    between atoms: C_4  and  C_5
REMARK                            x       y       z     vdW  Elec       q    Type
REMARK                         _______ _______ _______ _____ _____    ______ ____
ROOT
ATOM      1  C   UNL     1       1.722   9.035  18.528  0.00  0.00    +0.000 C 
ATOM      2  O   UNL     1       2.110   9.502  17.460  0.00  0.00    +0.000 OA
ATOM      3  N   UNL     1       2.063   7.800  19.032  0.00  0.00    +0.000 N 
ATOM      4  C   UNL     1       2.941   7.001  18.343  0.00  0.00    +0.000 A 
ATOM      5  N   UNL     1       3.735   7.334  17.359  0.00  0.00    +0.000 NA
ATOM      6  C   UNL     1       4.378   6.215  16.889  0.00  0.00    +0.000 A 
ATOM      7  C   UNL     1       4.056   5.039  17.533  0.00  0.00    +0.000 A 
ATOM      8  S   UNL     1       2.983   5.357  18.824  0.00  0.00    +0.000 S 
ATOM      9  C   UNL     1       4.535   3.687  17.123  0.00  0.00    +0.000 C 
ATOM     10  C   UNL     1       5.731   3.811  16.155  0.00  0.00    +0.000 C 
ATOM     11  C   UNL     1       5.529   4.917  15.101  0.00  0.00    +0.000 C 
ATOM     12  C   UNL     1       5.339   6.295  15.754  0.00  0.00    +0.000 C 
ATOM     13  H   UNL     1       1.594   7.401  19.827  0.00  0.00    +0.000 HD
ENDROOT
BRANCH   1  17
ATOM     14  C   UNL     1      -2.110  12.211  20.022  0.00  0.00    +0.000 C 
ATOM     15  C   UNL     1      -0.968  11.255  20.015  0.00  0.00    +0.000 A 
ATOM     16  C   UNL     1      -0.262  10.738  18.943  0.00  0.00    +0.000 A 
ATOM     17  C   UNL     1       0.768   9.814  19.341  0.00  0.00    +0.000 A 
ATOM     18  C   UNL     1       0.782   9.697  20.723  0.00  0.00    +0.000 A 
ATOM     19  S   UNL     1      -0.388  10.652  21.505  0.00  0.00    +0.000 S 
ENDBRANCH   1  17
TORSDOF 1
ENDMDL
MODEL 4
REMARK VINA RESULT:      -6.5      0.935      1.338
REMARK  Name = 
REMARK  2 active torsions:
REMARK  status: ('A' for Active; 'I' for Inactive)
REMARK    1  A    between atoms: C_1  and  C_2
REMARK    2  A    between atoms: C_4  and  C_5
REMARK                            x       y       z     vdW  Elec       q    Type
REMARK                         _______ _______ _______ _____ _____    ______ ____
ROOT
ATOM      1  C   UNL     1       2.115   6.039  20.005  0.00  0.00    +0.000 C 
ATOM      2  O   UNL     1       1.599   5.676  21.059  0.00  0.00    +0.000 OA
ATOM      3  N   UNL     1       2.084   7.319  19.498  0.00  0.00    +0.000 N 
ATOM      4  C   UNL     1       1.476   8.320  20.213  0.00  0.00    +0.000 A 
ATOM      5  N   UNL     1       1.114   8.312  21.470  0.00  0.00    +0.000 NA
ATOM      6  C   UNL     1       0.453   9.478  21.765  0.00  0.00    +0.000 A 
ATOM      7  C   UNL     1       0.324  10.363  20.715  0.00  0.00    +0.000 A 
ATOM      8  S   UNL     1       1.133   9.753  19.338  0.00  0.00    +0.000 S 
ATOM      9  C   UNL     1      -0.452  11.636  20.765  0.00  0.00    +0.000 C 
ATOM     10  C   UNL     1      -0.752  12.025  22.228  0.00  0.00    +0.000 C 
ATOM     11  C   UNL     1      -1.178  10.820  23.088  0.00  0.00    +0.000 C 
ATOM     12  C   UNL     1      -0.087   9.737  23.128  0.00  0.00    +0.000 C 
ATOM     13  H   UNL     1       2.380   7.527  18.560  0.00  0.00    +0.000 HD
ENDROOT
BRANCH   1  17
ATOM     14  C   UNL     1       3.732   1.556  17.934  0.00  0.00    +0.000 C 
ATOM     15  C   UNL     1       3.519   3.002  18.222  0.00  0.00    +0.000 A 
ATOM     16  C   UNL     1       2.766   3.596  19.220  0.00  0.00    +0.000 A 
ATOM     17  C   UNL     1       2.786   5.034  19.158  0.00  0.00    +0.000 A 
ATOM     18  C   UNL     1       3.583   5.445  18.099  0.00  0.00    +0.000 A 
ATOM     19  S   UNL     1       4.271   4.162  17.220  0.00  0.00    +0.000 S 
ENDBRANCH   1  17
TORSDOF 1
ENDMDL
MODEL 5
REMARK VINA RESULT:      -6.5      1.866      7.583
REMARK  Name = 
REMARK  2 active torsions:
REMARK  status: ('A' for Active; 'I' for Inactive)
REMARK    1  A    between atoms: C_1  and  C_2
REMARK    2  A    between atoms: C_4  and  C_5
REMARK                            x       y       z     vdW  Elec       q    Type
REMARK                         _______ _______ _______ _____ _____    ______ ____
ROOT
ATOM      1  C   UNL     1       1.268   8.614  20.331  0.00  0.00    +0.000 C 
ATOM      2  O   UNL     1       1.586   8.924  19.185  0.00  0.00    +0.000 OA
ATOM      3  N   UNL     1       1.465   7.380  20.909  0.00  0.00    +0.000 N 
ATOM      4  C   UNL     1       2.105   6.391  20.206  0.00  0.00    +0.000 A 
ATOM      5  N   UNL     1       2.810   6.505  19.109  0.00  0.00    +0.000 NA
ATOM      6  C   UNL     1       3.195   5.260  18.679  0.00  0.00    +0.000 A 
ATOM      7  C   UNL     1       2.772   4.209  19.467  0.00  0.00    +0.000 A 
ATOM      8  S   UNL     1       1.941   4.806  20.835  0.00  0.00    +0.000 S 
ATOM      9  C   UNL     1       2.968   2.767  19.138  0.00  0.00    +0.000 C 
ATOM     10  C   UNL     1       4.032   2.608  18.032  0.00  0.00    +0.000 C 
ATOM     11  C   UNL     1       3.879   3.649  16.906  0.00  0.00    +0.000 C 
ATOM     12  C   UNL     1       4.001   5.085  17.440  0.00  0.00    +0.000 C 
ATOM     13  H   UNL     1       1.044   7.131  21.788  0.00  0.00    +0.000 HD
ENDROOT
BRANCH   1  17
ATOM     14  C   UNL     1      -0.613  13.056  22.263  0.00  0.00    +0.000 C 
ATOM     15  C   UNL     1      -0.284  11.620  22.042  0.00  0.00    +0.000 A 
ATOM     16  C   UNL     1       0.509  11.041  21.066  0.00  0.00    +0.000 A 
ATOM     17  C   UNL     1       0.566   9.606  21.168  0.00  0.00    +0.000 A 
ATOM     18  C   UNL     1      -0.196   9.183  22.247  0.00  0.00    +0.000 A 
ATOM     19  S   UNL     1      -0.946  10.451  23.097  0.00  0.00    +0.000 S 
ENDBRANCH   1  17
TORSDOF 1
ENDMDL
MODEL 6
REMARK VINA RESULT:      -6.3      1.783      7.632
REMARK  Name = 
REMARK  2 active torsions:
REMARK  status: ('A' for Active; 'I' for Inactive)
REMARK    1  A    between atoms: C_1  and  C_2
REMARK    2  A    between atoms: C_4  and  C_5
REMARK                            x       y       z     vdW  Elec       q    Type
REMARK                         _______ _______ _______ _____ _____    ______ ____
ROOT
ATOM      1  C   UNL     1       1.384   8.746  19.920  0.00  0.00    +0.000 C 
ATOM      2  O   UNL     1       1.725   8.933  18.754  0.00  0.00    +0.000 OA
ATOM      3  N   UNL     1       1.542   7.572  20.621  0.00  0.00    +0.000 N 
ATOM      4  C   UNL     1       2.167   6.503  20.030  0.00  0.00    +0.000 A 
ATOM      5  N   UNL     1       2.889   6.491  18.939  0.00  0.00    +0.000 NA
ATOM      6  C   UNL     1       3.250   5.200  18.642  0.00  0.00    +0.000 A 
ATOM      7  C   UNL     1       2.790   4.243  19.523  0.00  0.00    +0.000 A 
ATOM      8  S   UNL     1       1.955   4.993  20.811  0.00  0.00    +0.000 S 
ATOM      9  C   UNL     1       2.955   2.772  19.342  0.00  0.00    +0.000 C 
ATOM     10  C   UNL     1       4.031   2.478  18.275  0.00  0.00    +0.000 C 
ATOM     11  C   UNL     1       3.919   3.404  17.049  0.00  0.00    +0.000 C 
ATOM     12  C   UNL     1       4.069   4.883  17.439  0.00  0.00    +0.000 C 
ATOM     13  H   UNL     1       1.103   7.421  21.513  0.00  0.00    +0.000 HD
ENDROOT
BRANCH   1  17
ATOM     14  C   UNL     1      -1.598  11.407  23.242  0.00  0.00    +0.000 C 
ATOM     15  C   UNL     1      -0.658  11.036  22.147  0.00  0.00    +0.000 A 
ATOM     16  C   UNL     1      -0.252   9.782  21.725  0.00  0.00    +0.000 A 
ATOM     17  C   UNL     1       0.695   9.833  20.642  0.00  0.00    +0.000 A 
ATOM     18  C   UNL     1       0.943  11.154  20.299  0.00  0.00    +0.000 A 
ATOM     19  S   UNL     1       0.077  12.280  21.236  0.00  0.00    +0.000 S 
ENDBRANCH   1  17
TORSDOF 1
ENDMDL
MODEL 7
REMARK VINA RESULT:      -6.2      1.798      2.342
REMARK  Name = 
REMARK  2 active torsions:
REMARK  status: ('A' for Active; 'I' for Inactive)
REMARK    1  A    between atoms: C_1  and  C_2
REMARK    2  A    between atoms: C_4  and  C_5
REMARK                            x       y       z     vdW  Elec       q    Type
REMARK                         _______ _______ _______ _____ _____    ______ ____
ROOT
ATOM      1  C   UNL     1       4.025   6.024  18.146  0.00  0.00    +0.000 C 
ATOM      2  O   UNL     1       3.741   5.421  19.178  0.00  0.00    +0.000 OA
ATOM      3  N   UNL     1       3.515   7.245  17.767  0.00  0.00    +0.000 N 
ATOM      4  C   UNL     1       2.645   7.908  18.596  0.00  0.00    +0.000 A 
ATOM      5  N   UNL     1       2.395   7.674  19.859  0.00  0.00    +0.000 NA
ATOM      6  C   UNL     1       1.389   8.505  20.289  0.00  0.00    +0.000 A 
ATOM      7  C   UNL     1       0.889   9.365  19.334  0.00  0.00    +0.000 A 
ATOM      8  S   UNL     1       1.764   9.190  17.877  0.00  0.00    +0.000 S 
ATOM      9  C   UNL     1      -0.279  10.272  19.535  0.00  0.00    +0.000 C 
ATOM     10  C   UNL     1      -0.595  10.415  21.038  0.00  0.00    +0.000 C 
ATOM     11  C   UNL     1      -0.514   9.074  21.793  0.00  0.00    +0.000 C 
ATOM     12  C   UNL     1       0.887   8.449  21.689  0.00  0.00    +0.000 C 
ATOM     13  H   UNL     1       3.655   7.617  16.844  0.00  0.00    +0.000 HD
ENDROOT
BRANCH   1  17
ATOM     14  C   UNL     1       6.047   3.863  13.874  0.00  0.00    +0.000 C 
ATOM     15  C   UNL     1       5.861   4.411  15.247  0.00  0.00    +0.000 A 
ATOM     16  C   UNL     1       4.723   4.938  15.835  0.00  0.00    +0.000 A 
ATOM     17  C   UNL     1       4.947   5.391  17.183  0.00  0.00    +0.000 A 
ATOM     18  C   UNL     1       6.268   5.162  17.540  0.00  0.00    +0.000 A 
ATOM     19  S   UNL     1       7.195   4.437  16.313  0.00  0.00    +0.000 S 
ENDBRANCH   1  17
TORSDOF 1
ENDMDL
MODEL 8
REMARK VINA RESULT:      -6.2      1.855      2.344
REMARK  Name = 
REMARK  2 active torsions:
REMARK  status: ('A' for Active; 'I' for Inactive)
REMARK    1  A    between atoms: C_1  and  C_2
REMARK    2  A    between atoms: C_4  and  C_5
REMARK                            x       y       z     vdW  Elec       q    Type
REMARK                         _______ _______ _______ _____ _____    ______ ____
ROOT
ATOM      1  C   UNL     1       2.453   8.020  18.232  0.00  0.00    +0.000 C 
ATOM      2  O   UNL     1       2.189   8.930  17.450  0.00  0.00    +0.000 OA
ATOM      3  N   UNL     1       1.982   7.910  19.521  0.00  0.00    +0.000 N 
ATOM      4  C   UNL     1       1.105   8.845  20.009  0.00  0.00    +0.000 A 
ATOM      5  N   UNL     1       0.419   9.737  19.340  0.00  0.00    +0.000 NA
ATOM      6  C   UNL     1      -0.265  10.541  20.217  0.00  0.00    +0.000 A 
ATOM      7  C   UNL     1      -0.085  10.243  21.552  0.00  0.00    +0.000 A 
ATOM      8  S   UNL     1       0.902   8.857  21.710  0.00  0.00    +0.000 S 
ATOM      9  C   UNL     1      -0.630  11.048  22.684  0.00  0.00    +0.000 C 
ATOM     10  C   UNL     1      -1.731  12.005  22.182  0.00  0.00    +0.000 C 
ATOM     11  C   UNL     1      -1.363  12.686  20.850  0.00  0.00    +0.000 C 
ATOM     12  C   UNL     1      -1.123  11.658  19.733  0.00  0.00    +0.000 C 
ATOM     13  H   UNL     1       2.355   7.237  20.168  0.00  0.00    +0.000 HD
ENDROOT
BRANCH   1  17
ATOM     14  C   UNL     1       6.512   5.506  16.178  0.00  0.00    +0.000 C 
ATOM     15  C   UNL     1       5.234   5.830  16.872  0.00  0.00    +0.000 A 
ATOM     16  C   UNL     1       4.620   7.057  17.053  0.00  0.00    +0.000 A 
ATOM     17  C   UNL     1       3.395   6.967  17.805  0.00  0.00    +0.000 A 
ATOM     18  C   UNL     1       3.151   5.643  18.143  0.00  0.00    +0.000 A 
ATOM     19  S   UNL     1       4.338   4.562  17.583  0.00  0.00    +0.000 S 
ENDBRANCH   1  17
TORSDOF 1
ENDMDL
MODEL 9
REMARK VINA RESULT:      -6.2      2.692      7.379
REMARK  Name = 
REMARK  2 active torsions:
REMARK  status: ('A' for Active; 'I' for Inactive)
REMARK    1  A    between atoms: C_1  and  C_2
REMARK    2  A    between atoms: C_4  and  C_5
REMARK                            x       y       z     vdW  Elec       q    Type
REMARK                         _______ _______ _______ _____ _____    ______ ____
ROOT
ATOM      1  C   UNL     1       1.841   9.065  18.359  0.00  0.00    +0.000 C 
ATOM      2  O   UNL     1       2.227   8.811  17.221  0.00  0.00    +0.000 OA
ATOM      3  N   UNL     1       1.856   8.192  19.423  0.00  0.00    +0.000 N 
ATOM      4  C   UNL     1       2.376   6.933  19.265  0.00  0.00    +0.000 A 
ATOM      5  N   UNL     1       3.118   6.481  18.286  0.00  0.00    +0.000 NA
ATOM      6  C   UNL     1       3.345   5.139  18.463  0.00  0.00    +0.000 A 
ATOM      7  C   UNL     1       2.765   4.588  19.587  0.00  0.00    +0.000 A 
ATOM      8  S   UNL     1       1.985   5.806  20.496  0.00  0.00    +0.000 S 
ATOM      9  C   UNL     1       2.775   3.134  19.923  0.00  0.00    +0.000 C 
ATOM     10  C   UNL     1       3.838   2.396  19.083  0.00  0.00    +0.000 C 
ATOM     11  C   UNL     1       3.855   2.854  17.612  0.00  0.00    +0.000 C 
ATOM     12  C   UNL     1       4.154   4.356  17.488  0.00  0.00    +0.000 C 
ATOM     13  H   UNL     1       1.382   8.396  20.286  0.00  0.00    +0.000 HD
ENDROOT
BRANCH   1  17
ATOM     14  C   UNL     1       1.150  14.190  18.872  0.00  0.00    +0.000 C 
ATOM     15  C   UNL     1       0.945  12.715  18.864  0.00  0.00    +0.000 A 
ATOM     16  C   UNL     1       1.837  11.706  18.542  0.00  0.00    +0.000 A 
ATOM     17  C   UNL     1       1.256  10.392  18.631  0.00  0.00    +0.000 A 
ATOM     18  C   UNL     1      -0.068  10.494  19.034  0.00  0.00    +0.000 A 
ATOM     19  S   UNL     1      -0.586  12.093  19.293  0.00  0.00    +0.000 S 
ENDBRANCH   1  17
TORSDOF 1
ENDMDL
