MODEL 1
REMARK VINA RESULT:      -6.8      0.000      0.000
REMARK  Name = 
REMARK  5 active torsions:
REMARK  status: ('A' for Active; 'I' for Inactive)
REMARK    1  A    between atoms: C_1  and  C_2
REMARK    2  A    between atoms: C_2  and  C_3
REMARK    3  A    between atoms: N_6  and  C_7
REMARK    4  A    between atoms: C_13  and  O_14
REMARK    5  A    between atoms: C_17  and  O_18
REMARK                            x       y       z     vdW  Elec       q    Type
REMARK                         _______ _______ _______ _____ _____    ______ ____
ROOT
ATOM      1  C   UNL     1       4.210   5.046  18.452  0.00  0.00    +0.000 C 
ATOM      2  C   UNL     1       3.324   4.511  17.174  0.00  0.00    +0.000 C 
ATOM      3  C   UNL     1       1.934   3.684  17.639  0.00  0.00    +0.000 C 
ATOM      4  N   UNL     1       1.665   3.749  19.091  0.00  0.00    +0.000 NA
ATOM      5  C   UNL     1       0.458   3.165  19.645  0.00  0.00    +0.000 C 
ATOM      6  C   UNL     1       2.851   3.681  19.981  0.00  0.00    +0.000 C 
ATOM      7  C   UNL     1       2.744   5.027  20.809  0.00  0.00    +0.000 C 
ATOM      8  C   UNL     1       2.631   6.257  19.982  0.00  0.00    +0.000 A 
ATOM      9  C   UNL     1       1.799   7.369  20.262  0.00  0.00    +0.000 A 
ATOM     10  C   UNL     1       1.640   8.410  19.333  0.00  0.00    +0.000 A 
ATOM     11  C   UNL     1       2.294   8.390  18.156  0.00  0.00    +0.000 A 
ATOM     12  C   UNL     1       3.236   7.359  17.900  0.00  0.00    +0.000 A 
ATOM     13  C   UNL     1       3.350   6.269  18.785  0.00  0.00    +0.000 A 
ATOM     14  C   UNL     1       4.027   3.569  18.995  0.00  0.00    +0.000 C 
ENDROOT
BRANCH   1  16
ATOM     15  C   UNL     1       6.920   5.743  19.069  0.00  0.00    +0.000 C 
ATOM     16  C   UNL     1       5.527   5.163  19.426  0.00  0.00    +0.000 C 
ENDBRANCH   1  16
BRANCH  11  17
ATOM     17  O   UNL     1       2.076   9.292  17.152  0.00  0.00    +0.000 OA
ATOM     18  H   UNL     1       1.469   8.879  16.513  0.00  0.00    +0.000 HD
ENDBRANCH  11  17
BRANCH  14  19
ATOM     19  O   UNL     1       5.248   2.799  19.086  0.00  0.00    +0.000 OA
ATOM     20  H   UNL     1       5.599   2.808  18.123  0.00  0.00    +0.000 HD
ENDBRANCH  14  19
TORSDOF 3
ENDMDL
MODEL 2
REMARK VINA RESULT:      -6.8      1.956      2.551
REMARK  Name = 
REMARK  5 active torsions:
REMARK  status: ('A' for Active; 'I' for Inactive)
REMARK    1  A    between atoms: C_1  and  C_2
REMARK    2  A    between atoms: C_2  and  C_3
REMARK    3  A    between atoms: N_6  and  C_7
REMARK    4  A    between atoms: C_13  and  O_14
REMARK    5  A    between atoms: C_17  and  O_18
REMARK                            x       y       z     vdW  Elec       q    Type
REMARK                         _______ _______ _______ _____ _____    ______ ____
ROOT
ATOM      1  C   UNL     1       5.931   6.033  17.076  0.00  0.00    +0.000 C 
ATOM      2  C   UNL     1       5.170   5.493  15.723  0.00  0.00    +0.000 C 
ATOM      3  C   UNL     1       4.400   4.015  15.947  0.00  0.00    +0.000 C 
ATOM      4  N   UNL     1       4.388   3.561  17.353  0.00  0.00    +0.000 NA
ATOM      5  C   UNL     1       3.686   2.350  17.733  0.00  0.00    +0.000 C 
ATOM      6  C   UNL     1       5.614   3.839  18.142  0.00  0.00    +0.000 C 
ATOM      7  C   UNL     1       5.064   4.701  19.352  0.00  0.00    +0.000 C 
ATOM      8  C   UNL     1       4.272   5.894  18.954  0.00  0.00    +0.000 A 
ATOM      9  C   UNL     1       3.095   6.356  19.593  0.00  0.00    +0.000 A 
ATOM     10  C   UNL     1       2.328   7.395  19.040  0.00  0.00    +0.000 A 
ATOM     11  C   UNL     1       2.706   7.998  17.897  0.00  0.00    +0.000 A 
ATOM     12  C   UNL     1       3.949   7.651  17.304  0.00  0.00    +0.000 A 
ATOM     13  C   UNL     1       4.689   6.560  17.801  0.00  0.00    +0.000 A 
ATOM     14  C   UNL     1       6.524   4.565  17.136  0.00  0.00    +0.000 C 
ENDROOT
BRANCH   1  16
ATOM     15  C   UNL     1       7.956   7.862  17.952  0.00  0.00    +0.000 C 
ATOM     16  C   UNL     1       7.206   6.507  17.999  0.00  0.00    +0.000 C 
ENDBRANCH   1  16
BRANCH  11  17
ATOM     17  O   UNL     1       1.937   8.912  17.232  0.00  0.00    +0.000 OA
ATOM     18  H   UNL     1       1.115   9.030  17.740  0.00  0.00    +0.000 HD
ENDBRANCH  11  17
BRANCH  14  19
ATOM     19  O   UNL     1       7.956   4.480  16.946  0.00  0.00    +0.000 OA
ATOM     20  H   UNL     1       8.213   3.649  17.489  0.00  0.00    +0.000 HD
ENDBRANCH  14  19
TORSDOF 3
ENDMDL
MODEL 3
REMARK VINA RESULT:      -6.7      2.319      4.194
REMARK  Name = 
REMARK  5 active torsions:
REMARK  status: ('A' for Active; 'I' for Inactive)
REMARK    1  A    between atoms: C_1  and  C_2
REMARK    2  A    between atoms: C_2  and  C_3
REMARK    3  A    between atoms: N_6  and  C_7
REMARK    4  A    between atoms: C_13  and  O_14
REMARK    5  A    between atoms: C_17  and  O_18
REMARK                            x       y       z     vdW  Elec       q    Type
REMARK                         _______ _______ _______ _____ _____    ______ ____
ROOT
ATOM      1  C   UNL     1       4.681   4.622  18.012  0.00  0.00    +0.000 C 
ATOM      2  C   UNL     1       5.754   4.819  19.242  0.00  0.00    +0.000 C 
ATOM      3  C   UNL     1       6.878   6.035  18.944  0.00  0.00    +0.000 C 
ATOM      4  N   UNL     1       6.589   6.823  17.728  0.00  0.00    +0.000 NA
ATOM      5  C   UNL     1       7.409   7.968  17.376  0.00  0.00    +0.000 C 
ATOM      6  C   UNL     1       6.051   6.068  16.569  0.00  0.00    +0.000 C 
ATOM      7  C   UNL     1       4.673   6.795  16.286  0.00  0.00    +0.000 C 
ATOM      8  C   UNL     1       3.770   6.895  17.463  0.00  0.00    +0.000 A 
ATOM      9  C   UNL     1       2.974   8.016  17.802  0.00  0.00    +0.000 A 
ATOM     10  C   UNL     1       2.282   8.074  19.023  0.00  0.00    +0.000 A 
ATOM     11  C   UNL     1       2.340   7.051  19.897  0.00  0.00    +0.000 A 
ATOM     12  C   UNL     1       3.019   5.859  19.531  0.00  0.00    +0.000 A 
ATOM     13  C   UNL     1       3.781   5.815  18.347  0.00  0.00    +0.000 A 
ATOM     14  C   UNL     1       5.973   4.624  17.095  0.00  0.00    +0.000 C 
ENDROOT
BRANCH   1  16
ATOM     15  C   UNL     1       2.559   3.068  16.873  0.00  0.00    +0.000 C 
ATOM     16  C   UNL     1       3.911   3.824  16.800  0.00  0.00    +0.000 C 
ENDBRANCH   1  16
BRANCH  11  17
ATOM     17  O   UNL     1       1.812   7.100  21.157  0.00  0.00    +0.000 OA
ATOM     18  H   UNL     1       1.046   7.701  21.132  0.00  0.00    +0.000 HD
ENDBRANCH  11  17
BRANCH  14  19
ATOM     19  O   UNL     1       6.242   3.372  16.421  0.00  0.00    +0.000 OA
ATOM     20  H   UNL     1       6.741   2.829  17.133  0.00  0.00    +0.000 HD
ENDBRANCH  14  19
TORSDOF 3
ENDMDL
MODEL 4
REMARK VINA RESULT:      -6.4      2.342      4.226
REMARK  Name = 
REMARK  5 active torsions:
REMARK  status: ('A' for Active; 'I' for Inactive)
REMARK    1  A    between atoms: C_1  and  C_2
REMARK    2  A    between atoms: C_2  and  C_3
REMARK    3  A    between atoms: N_6  and  C_7
REMARK    4  A    between atoms: C_13  and  O_14
REMARK    5  A    between atoms: C_17  and  O_18
REMARK                            x       y       z     vdW  Elec       q    Type
REMARK                         _______ _______ _______ _____ _____    ______ ____
ROOT
ATOM      1  C   UNL     1       3.648   5.615  18.739  0.00  0.00    +0.000 C 
ATOM      2  C   UNL     1       4.720   4.960  19.801  0.00  0.00    +0.000 C 
ATOM      3  C   UNL     1       4.692   3.278  19.810  0.00  0.00    +0.000 C 
ATOM      4  N   UNL     1       3.854   2.695  18.742  0.00  0.00    +0.000 NA
ATOM      5  C   UNL     1       3.792   1.257  18.553  0.00  0.00    +0.000 C 
ATOM      6  C   UNL     1       2.593   3.414  18.431  0.00  0.00    +0.000 C 
ATOM      7  C   UNL     1       2.752   3.748  16.891  0.00  0.00    +0.000 C 
ATOM      8  C   UNL     1       4.006   4.465  16.537  0.00  0.00    +0.000 A 
ATOM      9  C   UNL     1       4.798   4.226  15.387  0.00  0.00    +0.000 A 
ATOM     10  C   UNL     1       6.050   4.841  15.228  0.00  0.00    +0.000 A 
ATOM     11  C   UNL     1       6.523   5.694  16.157  0.00  0.00    +0.000 A 
ATOM     12  C   UNL     1       5.698   6.057  17.254  0.00  0.00    +0.000 A 
ATOM     13  C   UNL     1       4.474   5.392  17.468  0.00  0.00    +0.000 A 
ATOM     14  C   UNL     1       2.619   4.608  19.401  0.00  0.00    +0.000 C 
ENDROOT
BRANCH   1  16
ATOM     15  C   UNL     1       2.316   8.031  17.965  0.00  0.00    +0.000 C 
ATOM     16  C   UNL     1       2.355   6.510  18.264  0.00  0.00    +0.000 C 
ENDBRANCH   1  16
BRANCH  11  17
ATOM     17  O   UNL     1       7.788   6.213  16.136  0.00  0.00    +0.000 OA
ATOM     18  H   UNL     1       7.841   6.827  15.382  0.00  0.00    +0.000 HD
ENDBRANCH  11  17
BRANCH  14  19
ATOM     19  O   UNL     1       1.542   5.236  20.134  0.00  0.00    +0.000 OA
ATOM     20  H   UNL     1       1.208   4.484  20.745  0.00  0.00    +0.000 HD
ENDBRANCH  14  19
TORSDOF 3
ENDMDL
MODEL 5
REMARK VINA RESULT:      -6.1      2.100      4.449
REMARK  Name = 
REMARK  5 active torsions:
REMARK  status: ('A' for Active; 'I' for Inactive)
REMARK    1  A    between atoms: C_1  and  C_2
REMARK    2  A    between atoms: C_2  and  C_3
REMARK    3  A    between atoms: N_6  and  C_7
REMARK    4  A    between atoms: C_13  and  O_14
REMARK    5  A    between atoms: C_17  and  O_18
REMARK                            x       y       z     vdW  Elec       q    Type
REMARK                         _______ _______ _______ _____ _____    ______ ____
ROOT
ATOM      1  C   UNL     1       3.584   5.371  18.836  0.00  0.00    +0.000 C 
ATOM      2  C   UNL     1       3.639   4.494  20.226  0.00  0.00    +0.000 C 
ATOM      3  C   UNL     1       3.636   2.834  19.956  0.00  0.00    +0.000 C 
ATOM      4  N   UNL     1       3.772   2.466  18.532  0.00  0.00    +0.000 NA
ATOM      5  C   UNL     1       3.878   1.074  18.135  0.00  0.00    +0.000 C 
ATOM      6  C   UNL     1       3.062   3.335  17.560  0.00  0.00    +0.000 C 
ATOM      7  C   UNL     1       4.233   3.835  16.618  0.00  0.00    +0.000 C 
ATOM      8  C   UNL     1       5.376   4.467  17.329  0.00  0.00    +0.000 A 
ATOM      9  C   UNL     1       6.745   4.295  17.011  0.00  0.00    +0.000 A 
ATOM     10  C   UNL     1       7.754   4.803  17.846  0.00  0.00    +0.000 A 
ATOM     11  C   UNL     1       7.445   5.488  18.963  0.00  0.00    +0.000 A 
ATOM     12  C   UNL     1       6.086   5.793  19.240  0.00  0.00    +0.000 A 
ATOM     13  C   UNL     1       5.061   5.226  18.457  0.00  0.00    +0.000 A 
ATOM     14  C   UNL     1       2.396   4.395  18.454  0.00  0.00    +0.000 C 
ENDROOT
BRANCH   1  16
ATOM     15  C   UNL     1       2.955   7.984  17.842  0.00  0.00    +0.000 C 
ATOM     16  C   UNL     1       2.960   6.436  17.752  0.00  0.00    +0.000 C 
ENDBRANCH   1  16
BRANCH  11  17
ATOM     17  O   UNL     1       8.369   5.884  19.890  0.00  0.00    +0.000 OA
ATOM     18  H   UNL     1       8.578   5.111  20.444  0.00  0.00    +0.000 HD
ENDBRANCH  11  17
BRANCH  14  19
ATOM     19  O   UNL     1       1.101   5.029  18.339  0.00  0.00    +0.000 OA
ATOM     20  H   UNL     1       0.468   4.237  18.192  0.00  0.00    +0.000 HD
ENDBRANCH  14  19
TORSDOF 3
ENDMDL
MODEL 6
REMARK VINA RESULT:      -6.0      1.851      3.737
REMARK  Name = 
REMARK  5 active torsions:
REMARK  status: ('A' for Active; 'I' for Inactive)
REMARK    1  A    between atoms: C_1  and  C_2
REMARK    2  A    between atoms: C_2  and  C_3
REMARK    3  A    between atoms: N_6  and  C_7
REMARK    4  A    between atoms: C_13  and  O_14
REMARK    5  A    between atoms: C_17  and  O_18
REMARK                            x       y       z     vdW  Elec       q    Type
REMARK                         _______ _______ _______ _____ _____    ______ ____
ROOT
ATOM      1  C   UNL     1       3.357   4.213  18.949  0.00  0.00    +0.000 C 
ATOM      2  C   UNL     1       4.568   4.386  20.047  0.00  0.00    +0.000 C 
ATOM      3  C   UNL     1       5.928   5.146  19.411  0.00  0.00    +0.000 C 
ATOM      4  N   UNL     1       5.724   5.683  18.050  0.00  0.00    +0.000 NA
ATOM      5  C   UNL     1       6.768   6.446  17.392  0.00  0.00    +0.000 C 
ATOM      6  C   UNL     1       4.892   4.858  17.138  0.00  0.00    +0.000 C 
ATOM      7  C   UNL     1       3.724   5.850  16.737  0.00  0.00    +0.000 C 
ATOM      8  C   UNL     1       3.006   6.461  17.887  0.00  0.00    +0.000 A 
ATOM      9  C   UNL     1       2.563   7.803  17.966  0.00  0.00    +0.000 A 
ATOM     10  C   UNL     1       2.041   8.327  19.161  0.00  0.00    +0.000 A 
ATOM     11  C   UNL     1       1.927   7.556  20.260  0.00  0.00    +0.000 A 
ATOM     12  C   UNL     1       2.236   6.173  20.176  0.00  0.00    +0.000 A 
ATOM     13  C   UNL     1       2.832   5.651  19.011  0.00  0.00    +0.000 A 
ATOM     14  C   UNL     1       4.502   3.651  18.010  0.00  0.00    +0.000 C 
ENDROOT
BRANCH   1  16
ATOM     15  C   UNL     1       1.000   2.660  18.454  0.00  0.00    +0.000 C 
ATOM     16  C   UNL     1       2.285   3.401  18.005  0.00  0.00    +0.000 C 
ENDBRANCH   1  16
BRANCH  11  17
ATOM     17  O   UNL     1       1.564   8.036  21.487  0.00  0.00    +0.000 OA
ATOM     18  H   UNL     1       0.936   7.402  21.877  0.00  0.00    +0.000 HD
ENDBRANCH  11  17
BRANCH  14  19
ATOM     19  O   UNL     1       4.370   2.254  17.659  0.00  0.00    +0.000 OA
ATOM     20  H   UNL     1       5.330   1.982  17.426  0.00  0.00    +0.000 HD
ENDBRANCH  14  19
TORSDOF 3
ENDMDL
MODEL 7
REMARK VINA RESULT:      -6.0      1.871      4.135
REMARK  Name = 
REMARK  5 active torsions:
REMARK  status: ('A' for Active; 'I' for Inactive)
REMARK    1  A    between atoms: C_1  and  C_2
REMARK    2  A    between atoms: C_2  and  C_3
REMARK    3  A    between atoms: N_6  and  C_7
REMARK    4  A    between atoms: C_13  and  O_14
REMARK    5  A    between atoms: C_17  and  O_18
REMARK                            x       y       z     vdW  Elec       q    Type
REMARK                         _______ _______ _______ _____ _____    ______ ____
ROOT
ATOM      1  C   UNL     1       3.227   5.422  19.724  0.00  0.00    +0.000 C 
ATOM      2  C   UNL     1       3.663   4.240  20.781  0.00  0.00    +0.000 C 
ATOM      3  C   UNL     1       2.910   2.768  20.468  0.00  0.00    +0.000 C 
ATOM      4  N   UNL     1       2.147   2.751  19.204  0.00  0.00    +0.000 NA
ATOM      5  C   UNL     1       1.512   1.531  18.740  0.00  0.00    +0.000 C 
ATOM      6  C   UNL     1       1.416   3.997  18.862  0.00  0.00    +0.000 C 
ATOM      7  C   UNL     1       2.022   4.382  17.450  0.00  0.00    +0.000 C 
ATOM      8  C   UNL     1       3.505   4.476  17.415  0.00  0.00    +0.000 A 
ATOM      9  C   UNL     1       4.338   4.024  16.363  0.00  0.00    +0.000 A 
ATOM     10  C   UNL     1       5.736   4.009  16.498  0.00  0.00    +0.000 A 
ATOM     11  C   UNL     1       6.325   4.446  17.628  0.00  0.00    +0.000 A 
ATOM     12  C   UNL     1       5.527   5.028  18.648  0.00  0.00    +0.000 A 
ATOM     13  C   UNL     1       4.122   4.980  18.561  0.00  0.00    +0.000 A 
ATOM     14  C   UNL     1       1.751   4.936  20.034  0.00  0.00    +0.000 C 
ENDROOT
BRANCH   1  16
ATOM     15  C   UNL     1       3.025   7.754  18.070  0.00  0.00    +0.000 C 
ATOM     16  C   UNL     1       2.578   6.855  19.252  0.00  0.00    +0.000 C 
ENDBRANCH   1  16
BRANCH  11  17
ATOM     17  O   UNL     1       7.663   4.326  17.882  0.00  0.00    +0.000 OA
ATOM     18  H   UNL     1       7.912   3.401  17.710  0.00  0.00    +0.000 HD
ENDBRANCH  11  17
BRANCH  14  19
ATOM     19  O   UNL     1       0.923   5.907  20.716  0.00  0.00    +0.000 OA
ATOM     20  H   UNL     1       1.603   6.597  21.050  0.00  0.00    +0.000 HD
ENDBRANCH  14  19
TORSDOF 3
ENDMDL
MODEL 8
REMARK VINA RESULT:      -5.9      5.545      8.164
REMARK  Name = 
REMARK  5 active torsions:
REMARK  status: ('A' for Active; 'I' for Inactive)
REMARK    1  A    between atoms: C_1  and  C_2
REMARK    2  A    between atoms: C_2  and  C_3
REMARK    3  A    between atoms: N_6  and  C_7
REMARK    4  A    between atoms: C_13  and  O_14
REMARK    5  A    between atoms: C_17  and  O_18
REMARK                            x       y       z     vdW  Elec       q    Type
REMARK                         _______ _______ _______ _____ _____    ______ ____
ROOT
ATOM      1  C   UNL     1      -0.108  11.228  18.846  0.00  0.00    +0.000 C 
ATOM      2  C   UNL     1       1.485  11.623  18.749  0.00  0.00    +0.000 C 
ATOM      3  C   UNL     1       1.898  12.931  19.722  0.00  0.00    +0.000 C 
ATOM      4  N   UNL     1       0.809  13.368  20.620  0.00  0.00    +0.000 NA
ATOM      5  C   UNL     1       1.029  14.426  21.588  0.00  0.00    +0.000 C 
ATOM      6  C   UNL     1      -0.564  13.320  20.057  0.00  0.00    +0.000 C 
ATOM      7  C   UNL     1      -1.323  12.365  21.068  0.00  0.00    +0.000 C 
ATOM      8  C   UNL     1      -0.670  11.047  21.286  0.00  0.00    +0.000 A 
ATOM      9  C   UNL     1      -0.563  10.372  22.527  0.00  0.00    +0.000 A 
ATOM     10  C   UNL     1       0.216   9.211  22.657  0.00  0.00    +0.000 A 
ATOM     11  C   UNL     1       0.866   8.693  21.597  0.00  0.00    +0.000 A 
ATOM     12  C   UNL     1       0.673   9.269  20.313  0.00  0.00    +0.000 A 
ATOM     13  C   UNL     1      -0.041  10.476  20.179  0.00  0.00    +0.000 A 
ATOM     14  C   UNL     1      -0.343  12.780  18.634  0.00  0.00    +0.000 C 
ENDROOT
BRANCH   1  16
ATOM     15  C   UNL     1      -2.149   9.857  17.373  0.00  0.00    +0.000 C 
ATOM     16  C   UNL     1      -1.638  10.995  18.294  0.00  0.00    +0.000 C 
ENDBRANCH   1  16
BRANCH  11  17
ATOM     17  O   UNL     1       1.752   7.656  21.683  0.00  0.00    +0.000 OA
ATOM     18  H   UNL     1       2.645   8.020  21.550  0.00  0.00    +0.000 HD
ENDBRANCH  11  17
BRANCH  14  19
ATOM     19  O   UNL     1      -0.999  13.131  17.393  0.00  0.00    +0.000 OA
ATOM     20  H   UNL     1      -0.822  14.137  17.314  0.00  0.00    +0.000 HD
ENDBRANCH  14  19
TORSDOF 3
ENDMDL
MODEL 9
REMARK VINA RESULT:      -5.8      9.073     11.186
REMARK  Name = 
REMARK  5 active torsions:
REMARK  status: ('A' for Active; 'I' for Inactive)
REMARK    1  A    between atoms: C_1  and  C_2
REMARK    2  A    between atoms: C_2  and  C_3
REMARK    3  A    between atoms: N_6  and  C_7
REMARK    4  A    between atoms: C_13  and  O_14
REMARK    5  A    between atoms: C_17  and  O_18
REMARK                            x       y       z     vdW  Elec       q    Type
REMARK                         _______ _______ _______ _____ _____    ______ ____
ROOT
ATOM      1  C   UNL     1      10.840  12.194  19.050  0.00  0.00    +0.000 C 
ATOM      2  C   UNL     1      12.143  12.781  19.864  0.00  0.00    +0.000 C 
ATOM      3  C   UNL     1      12.332  14.443  19.689  0.00  0.00    +0.000 C 
ATOM      4  N   UNL     1      11.202  15.098  18.997  0.00  0.00    +0.000 NA
ATOM      5  C   UNL     1      11.165  16.540  18.844  0.00  0.00    +0.000 C 
ATOM      6  C   UNL     1      10.592  14.340  17.876  0.00  0.00    +0.000 C 
ATOM      7  C   UNL     1       9.078  14.211  18.323  0.00  0.00    +0.000 C 
ATOM      8  C   UNL     1       8.878  13.629  19.676  0.00  0.00    +0.000 A 
ATOM      9  C   UNL     1       7.922  14.059  20.628  0.00  0.00    +0.000 A 
ATOM     10  C   UNL     1       7.924  13.553  21.939  0.00  0.00    +0.000 A 
ATOM     11  C   UNL     1       8.823  12.625  22.319  0.00  0.00    +0.000 A 
ATOM     12  C   UNL     1       9.707  12.076  21.353  0.00  0.00    +0.000 A 
ATOM     13  C   UNL     1       9.771  12.626  20.058  0.00  0.00    +0.000 A 
ATOM     14  C   UNL     1      11.414  13.040  17.840  0.00  0.00    +0.000 C 
ENDROOT
BRANCH   1  16
ATOM     15  C   UNL     1       8.958  10.206  18.201  0.00  0.00    +0.000 C 
ATOM     16  C   UNL     1      10.046  11.280  17.940  0.00  0.00    +0.000 C 
ENDBRANCH   1  16
BRANCH  11  17
ATOM     17  O   UNL     1       8.972  12.197  23.609  0.00  0.00    +0.000 OA
ATOM     18  H   UNL     1       9.255  11.266  23.579  0.00  0.00    +0.000 HD
ENDBRANCH  11  17
BRANCH  14  19
ATOM     19  O   UNL     1      11.868  12.256  16.712  0.00  0.00    +0.000 OA
ATOM     20  H   UNL     1      12.473  12.909  16.205  0.00  0.00    +0.000 HD
ENDBRANCH  14  19
TORSDOF 3
ENDMDL
