MODEL 1
REMARK VINA RESULT:      -7.8      0.000      0.000
REMARK  Name = 
REMARK  5 active torsions:
REMARK  status: ('A' for Active; 'I' for Inactive)
REMARK    1  A    between atoms: C_2  and  C_10
REMARK    2  A    between atoms: N_3  and  C_4
REMARK    3  A    between atoms: C_4  and  C_5
REMARK    4  A    between atoms: N_13  and  C_14
REMARK    5  A    between atoms: C_14  and  C_15
REMARK                            x       y       z     vdW  Elec       q    Type
REMARK                         _______ _______ _______ _____ _____    ______ ____
ROOT
ATOM      1  C   UNL     1       7.724   5.827  18.490  0.00  0.00    +0.000 C 
ATOM      2  C   UNL     1       7.855   4.679  17.492  0.00  0.00    +0.000 C 
ATOM      3  C   UNL     1       6.554   4.467  16.716  0.00  0.00    +0.000 C 
ATOM      4  N   UNL     1       5.405   4.202  17.596  0.00  0.00    +0.000 NA
ATOM      5  C   UNL     1       5.251   5.237  18.636  0.00  0.00    +0.000 C 
ATOM      6  C   UNL     1       6.541   5.520  19.415  0.00  0.00    +0.000 C 
ENDROOT
BRANCH   1   8
ATOM      7  O   UNL     1       6.854   7.385  16.838  0.00  0.00    +0.000 OA
ATOM      8  C   UNL     1       7.579   7.191  17.808  0.00  0.00    +0.000 C 
ATOM      9  N   UNL     1       8.303   8.207  18.393  0.00  0.00    +0.000 N 
ATOM     10  H   UNL     1       8.981   8.000  19.112  0.00  0.00    +0.000 HD
BRANCH   9  11
ATOM     11  C   UNL     1       8.319   9.536  17.819  0.00  0.00    +0.000 C 
BRANCH  11  12
ATOM     12  C   UNL     1       9.197  10.409  18.655  0.00  0.00    +0.000 A 
ATOM     13  C   UNL     1       9.244  10.494  20.035  0.00  0.00    +0.000 A 
ATOM     14  C   UNL     1      10.185  11.463  20.489  0.00  0.00    +0.000 A 
ATOM     15  C   UNL     1      10.828  12.087  19.441  0.00  0.00    +0.000 A 
ATOM     16  S   UNL     1      10.305  11.492  17.924  0.00  0.00    +0.000 S 
ENDBRANCH  11  12
ENDBRANCH   9  11
ENDBRANCH   1   8
BRANCH   4  17
ATOM     17  C   UNL     1       4.149   4.134  16.811  0.00  0.00    +0.000 C 
BRANCH  17  18
ATOM     18  C   UNL     1       2.999   3.494  17.556  0.00  0.00    +0.000 A 
ATOM     19  C   UNL     1       1.803   4.188  17.757  0.00  0.00    +0.000 A 
ATOM     20  C   UNL     1       0.804   3.587  18.504  0.00  0.00    +0.000 A 
ATOM     21  N   UNL     1       0.907   2.352  19.044  0.00  0.00    +0.000 NA
ATOM     22  C   UNL     1       2.062   1.691  18.822  0.00  0.00    +0.000 A 
ATOM     23  C   UNL     1       3.120   2.209  18.094  0.00  0.00    +0.000 A 
ENDBRANCH  17  18
ENDBRANCH   4  17
TORSDOF 5
ENDMDL
MODEL 2
REMARK VINA RESULT:      -7.8      0.879      1.309
REMARK  Name = 
REMARK  5 active torsions:
REMARK  status: ('A' for Active; 'I' for Inactive)
REMARK    1  A    between atoms: C_2  and  C_10
REMARK    2  A    between atoms: N_3  and  C_4
REMARK    3  A    between atoms: C_4  and  C_5
REMARK    4  A    between atoms: N_13  and  C_14
REMARK    5  A    between atoms: C_14  and  C_15
REMARK                            x       y       z     vdW  Elec       q    Type
REMARK                         _______ _______ _______ _____ _____    ______ ____
ROOT
ATOM      1  C   UNL     1       7.794   5.768  18.220  0.00  0.00    +0.000 C 
ATOM      2  C   UNL     1       7.500   4.661  17.210  0.00  0.00    +0.000 C 
ATOM      3  C   UNL     1       6.012   4.603  16.866  0.00  0.00    +0.000 C 
ATOM      4  N   UNL     1       5.163   4.402  18.052  0.00  0.00    +0.000 NA
ATOM      5  C   UNL     1       5.435   5.397  19.106  0.00  0.00    +0.000 C 
ATOM      6  C   UNL     1       6.922   5.527  19.457  0.00  0.00    +0.000 C 
ENDROOT
BRANCH   1   8
ATOM      7  O   UNL     1       6.859   7.398  16.676  0.00  0.00    +0.000 OA
ATOM      8  C   UNL     1       7.585   7.170  17.637  0.00  0.00    +0.000 C 
ATOM      9  N   UNL     1       8.252   8.175  18.303  0.00  0.00    +0.000 N 
ATOM     10  H   UNL     1       8.934   7.950  19.013  0.00  0.00    +0.000 HD
BRANCH   9  11
ATOM     11  C   UNL     1       8.206   9.541  17.828  0.00  0.00    +0.000 C 
BRANCH  11  12
ATOM     12  C   UNL     1       9.146  10.366  18.646  0.00  0.00    +0.000 A 
ATOM     13  C   UNL     1       9.236  10.436  20.025  0.00  0.00    +0.000 A 
ATOM     14  C   UNL     1      10.232  11.357  20.460  0.00  0.00    +0.000 A 
ATOM     15  C   UNL     1      10.872  11.961  19.399  0.00  0.00    +0.000 A 
ATOM     16  S   UNL     1      10.281  11.405  17.893  0.00  0.00    +0.000 S 
ENDBRANCH  11  12
ENDBRANCH   9  11
ENDBRANCH   1   8
BRANCH   4  17
ATOM     17  C   UNL     1       3.728   4.483  17.688  0.00  0.00    +0.000 C 
BRANCH  17  18
ATOM     18  C   UNL     1       2.798   3.947  18.754  0.00  0.00    +0.000 A 
ATOM     19  C   UNL     1       2.783   2.587  19.072  0.00  0.00    +0.000 A 
ATOM     20  C   UNL     1       1.865   2.134  20.005  0.00  0.00    +0.000 A 
ATOM     21  N   UNL     1       0.985   2.934  20.646  0.00  0.00    +0.000 NA
ATOM     22  C   UNL     1       1.029   4.247  20.340  0.00  0.00    +0.000 A 
ATOM     23  C   UNL     1       1.905   4.795  19.417  0.00  0.00    +0.000 A 
ENDBRANCH  17  18
ENDBRANCH   4  17
TORSDOF 5
ENDMDL
MODEL 3
REMARK VINA RESULT:      -7.5      1.193      1.328
REMARK  Name = 
REMARK  5 active torsions:
REMARK  status: ('A' for Active; 'I' for Inactive)
REMARK    1  A    between atoms: C_2  and  C_10
REMARK    2  A    between atoms: N_3  and  C_4
REMARK    3  A    between atoms: C_4  and  C_5
REMARK    4  A    between atoms: N_13  and  C_14
REMARK    5  A    between atoms: C_14  and  C_15
REMARK                            x       y       z     vdW  Elec       q    Type
REMARK                         _______ _______ _______ _____ _____    ______ ____
ROOT
ATOM      1  C   UNL     1       7.788   5.906  18.173  0.00  0.00    +0.000 C 
ATOM      2  C   UNL     1       7.512   4.821  17.135  0.00  0.00    +0.000 C 
ATOM      3  C   UNL     1       6.020   4.721  16.819  0.00  0.00    +0.000 C 
ATOM      4  N   UNL     1       5.204   4.452  18.014  0.00  0.00    +0.000 NA
ATOM      5  C   UNL     1       5.464   5.422  19.094  0.00  0.00    +0.000 C 
ATOM      6  C   UNL     1       6.952   5.594  19.420  0.00  0.00    +0.000 C 
ENDROOT
BRANCH   1   8
ATOM      7  O   UNL     1       6.703   7.559  16.759  0.00  0.00    +0.000 OA
ATOM      8  C   UNL     1       7.519   7.317  17.641  0.00  0.00    +0.000 C 
ATOM      9  N   UNL     1       8.242   8.313  18.260  0.00  0.00    +0.000 N 
ATOM     10  H   UNL     1       8.989   8.079  18.897  0.00  0.00    +0.000 HD
BRANCH   9  11
ATOM     11  C   UNL     1       8.144   9.688  17.819  0.00  0.00    +0.000 C 
BRANCH  11  12
ATOM     12  C   UNL     1       9.243  10.476  18.454  0.00  0.00    +0.000 A 
ATOM     13  C   UNL     1      10.297  11.119  17.831  0.00  0.00    +0.000 A 
ATOM     14  C   UNL     1      11.177  11.748  18.759  0.00  0.00    +0.000 A 
ATOM     15  C   UNL     1      10.767  11.564  20.062  0.00  0.00    +0.000 A 
ATOM     16  S   UNL     1       9.322  10.653  20.157  0.00  0.00    +0.000 S 
ENDBRANCH  11  12
ENDBRANCH   9  11
ENDBRANCH   1   8
BRANCH   4  17
ATOM     17  C   UNL     1       3.760   4.494  17.682  0.00  0.00    +0.000 C 
BRANCH  17  18
ATOM     18  C   UNL     1       2.863   4.004  18.798  0.00  0.00    +0.000 A 
ATOM     19  C   UNL     1       1.912   4.848  19.374  0.00  0.00    +0.000 A 
ATOM     20  C   UNL     1       1.163   4.375  20.438  0.00  0.00    +0.000 A 
ATOM     21  N   UNL     1       1.283   3.131  20.950  0.00  0.00    +0.000 NA
ATOM     22  C   UNL     1       2.193   2.324  20.366  0.00  0.00    +0.000 A 
ATOM     23  C   UNL     1       2.994   2.706  19.302  0.00  0.00    +0.000 A 
ENDBRANCH  17  18
ENDBRANCH   4  17
TORSDOF 5
ENDMDL
MODEL 4
REMARK VINA RESULT:      -7.1      1.949      2.391
REMARK  Name = 
REMARK  5 active torsions:
REMARK  status: ('A' for Active; 'I' for Inactive)
REMARK    1  A    between atoms: C_2  and  C_10
REMARK    2  A    between atoms: N_3  and  C_4
REMARK    3  A    between atoms: C_4  and  C_5
REMARK    4  A    between atoms: N_13  and  C_14
REMARK    5  A    between atoms: C_14  and  C_15
REMARK                            x       y       z     vdW  Elec       q    Type
REMARK                         _______ _______ _______ _____ _____    ______ ____
ROOT
ATOM      1  C   UNL     1       7.788   5.769  18.214  0.00  0.00    +0.000 C 
ATOM      2  C   UNL     1       7.418   4.678  17.212  0.00  0.00    +0.000 C 
ATOM      3  C   UNL     1       5.905   4.613  16.996  0.00  0.00    +0.000 C 
ATOM      4  N   UNL     1       5.163   4.382  18.245  0.00  0.00    +0.000 NA
ATOM      5  C   UNL     1       5.517   5.360  19.292  0.00  0.00    +0.000 C 
ATOM      6  C   UNL     1       7.027   5.497  19.517  0.00  0.00    +0.000 C 
ENDROOT
BRANCH   1   8
ATOM      7  O   UNL     1       6.689   7.424  16.812  0.00  0.00    +0.000 OA
ATOM      8  C   UNL     1       7.520   7.180  17.679  0.00  0.00    +0.000 C 
ATOM      9  N   UNL     1       8.265   8.173  18.277  0.00  0.00    +0.000 N 
ATOM     10  H   UNL     1       9.023   7.935  18.900  0.00  0.00    +0.000 HD
BRANCH   9  11
ATOM     11  C   UNL     1       8.170   9.546  17.830  0.00  0.00    +0.000 C 
BRANCH  11  12
ATOM     12  C   UNL     1       9.115  10.379  18.634  0.00  0.00    +0.000 A 
ATOM     13  C   UNL     1       9.237  10.437  20.011  0.00  0.00    +0.000 A 
ATOM     14  C   UNL     1      10.228  11.370  20.431  0.00  0.00    +0.000 A 
ATOM     15  C   UNL     1      10.832  11.996  19.361  0.00  0.00    +0.000 A 
ATOM     16  S   UNL     1      10.214  11.445  17.864  0.00  0.00    +0.000 S 
ENDBRANCH  11  12
ENDBRANCH   9  11
ENDBRANCH   1   8
BRANCH   4  17
ATOM     17  C   UNL     1       3.701   4.457  18.007  0.00  0.00    +0.000 C 
BRANCH  17  18
ATOM     18  C   UNL     1       3.078   5.762  18.451  0.00  0.00    +0.000 A 
ATOM     19  C   UNL     1       3.139   6.897  17.639  0.00  0.00    +0.000 A 
ATOM     20  C   UNL     1       2.614   8.085  18.119  0.00  0.00    +0.000 A 
ATOM     21  N   UNL     1       2.026   8.215  19.328  0.00  0.00    +0.000 NA
ATOM     22  C   UNL     1       1.958   7.103  20.088  0.00  0.00    +0.000 A 
ATOM     23  C   UNL     1       2.459   5.871  19.701  0.00  0.00    +0.000 A 
ENDBRANCH  17  18
ENDBRANCH   4  17
TORSDOF 5
ENDMDL
MODEL 5
REMARK VINA RESULT:      -7.1      1.539      2.123
REMARK  Name = 
REMARK  5 active torsions:
REMARK  status: ('A' for Active; 'I' for Inactive)
REMARK    1  A    between atoms: C_2  and  C_10
REMARK    2  A    between atoms: N_3  and  C_4
REMARK    3  A    between atoms: C_4  and  C_5
REMARK    4  A    between atoms: N_13  and  C_14
REMARK    5  A    between atoms: C_14  and  C_15
REMARK                            x       y       z     vdW  Elec       q    Type
REMARK                         _______ _______ _______ _____ _____    ______ ____
ROOT
ATOM      1  C   UNL     1       6.763   6.817  16.835  0.00  0.00    +0.000 C 
ATOM      2  C   UNL     1       5.285   6.972  17.184  0.00  0.00    +0.000 C 
ATOM      3  C   UNL     1       4.877   6.020  18.308  0.00  0.00    +0.000 C 
ATOM      4  N   UNL     1       5.142   4.610  17.981  0.00  0.00    +0.000 NA
ATOM      5  C   UNL     1       6.540   4.388  17.567  0.00  0.00    +0.000 C 
ATOM      6  C   UNL     1       7.015   5.349  16.471  0.00  0.00    +0.000 C 
ENDROOT
BRANCH   1   8
ATOM      7  O   UNL     1       8.100   6.561  18.850  0.00  0.00    +0.000 OA
ATOM      8  C   UNL     1       7.690   7.295  17.958  0.00  0.00    +0.000 C 
ATOM      9  N   UNL     1       8.064   8.618  17.870  0.00  0.00    +0.000 N 
ATOM     10  H   UNL     1       7.622   9.229  17.200  0.00  0.00    +0.000 HD
BRANCH   9  11
ATOM     11  C   UNL     1       8.883   9.229  18.896  0.00  0.00    +0.000 C 
BRANCH  11  12
ATOM     12  C   UNL     1       9.135  10.654  18.523  0.00  0.00    +0.000 A 
ATOM     13  C   UNL     1       8.357  11.474  17.725  0.00  0.00    +0.000 A 
ATOM     14  C   UNL     1       8.924  12.771  17.559  0.00  0.00    +0.000 A 
ATOM     15  C   UNL     1      10.118  12.900  18.236  0.00  0.00    +0.000 A 
ATOM     16  S   UNL     1      10.537  11.469  19.075  0.00  0.00    +0.000 S 
ENDBRANCH  11  12
ENDBRANCH   9  11
ENDBRANCH   1   8
BRANCH   4  17
ATOM     17  C   UNL     1       4.854   3.739  19.146  0.00  0.00    +0.000 C 
BRANCH  17  18
ATOM     18  C   UNL     1       3.385   3.427  19.325  0.00  0.00    +0.000 A 
ATOM     19  C   UNL     1       2.679   2.719  18.349  0.00  0.00    +0.000 A 
ATOM     20  C   UNL     1       1.321   2.518  18.527  0.00  0.00    +0.000 A 
ATOM     21  N   UNL     1       0.629   2.953  19.602  0.00  0.00    +0.000 NA
ATOM     22  C   UNL     1       1.332   3.617  20.544  0.00  0.00    +0.000 A 
ATOM     23  C   UNL     1       2.691   3.873  20.455  0.00  0.00    +0.000 A 
ENDBRANCH  17  18
ENDBRANCH   4  17
TORSDOF 5
ENDMDL
MODEL 6
REMARK VINA RESULT:      -7.0      1.716      2.360
REMARK  Name = 
REMARK  5 active torsions:
REMARK  status: ('A' for Active; 'I' for Inactive)
REMARK    1  A    between atoms: C_2  and  C_10
REMARK    2  A    between atoms: N_3  and  C_4
REMARK    3  A    between atoms: C_4  and  C_5
REMARK    4  A    between atoms: N_13  and  C_14
REMARK    5  A    between atoms: C_14  and  C_15
REMARK                            x       y       z     vdW  Elec       q    Type
REMARK                         _______ _______ _______ _____ _____    ______ ____
ROOT
ATOM      1  C   UNL     1       5.615   6.601  16.133  0.00  0.00    +0.000 C 
ATOM      2  C   UNL     1       4.376   6.661  17.023  0.00  0.00    +0.000 C 
ATOM      3  C   UNL     1       4.267   5.419  17.908  0.00  0.00    +0.000 C 
ATOM      4  N   UNL     1       4.233   4.170  17.130  0.00  0.00    +0.000 NA
ATOM      5  C   UNL     1       5.367   4.067  16.193  0.00  0.00    +0.000 C 
ATOM      6  C   UNL     1       5.548   5.308  15.312  0.00  0.00    +0.000 C 
ENDROOT
BRANCH   1   8
ATOM      7  O   UNL     1       7.682   5.762  17.100  0.00  0.00    +0.000 OA
ATOM      8  C   UNL     1       6.921   6.707  16.928  0.00  0.00    +0.000 C 
ATOM      9  N   UNL     1       7.201   7.967  17.409  0.00  0.00    +0.000 N 
ATOM     10  H   UNL     1       6.506   8.698  17.357  0.00  0.00    +0.000 HD
BRANCH   9  11
ATOM     11  C   UNL     1       8.365   8.207  18.235  0.00  0.00    +0.000 C 
BRANCH  11  12
ATOM     12  C   UNL     1       8.590   9.681  18.332  0.00  0.00    +0.000 A 
ATOM     13  C   UNL     1       8.139  10.667  17.472  0.00  0.00    +0.000 A 
ATOM     14  C   UNL     1       8.574  11.968  17.860  0.00  0.00    +0.000 A 
ATOM     15  C   UNL     1       9.343  11.933  19.003  0.00  0.00    +0.000 A 
ATOM     16  S   UNL     1       9.522  10.343  19.607  0.00  0.00    +0.000 S 
ENDBRANCH  11  12
ENDBRANCH   9  11
ENDBRANCH   1   8
BRANCH   4  17
ATOM     17  C   UNL     1       4.259   2.992  18.031  0.00  0.00    +0.000 C 
BRANCH  17  18
ATOM     18  C   UNL     1       3.117   2.957  19.022  0.00  0.00    +0.000 A 
ATOM     19  C   UNL     1       1.791   2.931  18.585  0.00  0.00    +0.000 A 
ATOM     20  C   UNL     1       0.780   2.969  19.531  0.00  0.00    +0.000 A 
ATOM     21  N   UNL     1       0.996   3.015  20.863  0.00  0.00    +0.000 NA
ATOM     22  C   UNL     1       2.284   3.019  21.266  0.00  0.00    +0.000 A 
ATOM     23  C   UNL     1       3.364   2.989  20.399  0.00  0.00    +0.000 A 
ENDBRANCH  17  18
ENDBRANCH   4  17
TORSDOF 5
ENDMDL
MODEL 7
REMARK VINA RESULT:      -7.0      3.941      6.228
REMARK  Name = 
REMARK  5 active torsions:
REMARK  status: ('A' for Active; 'I' for Inactive)
REMARK    1  A    between atoms: C_2  and  C_10
REMARK    2  A    between atoms: N_3  and  C_4
REMARK    3  A    between atoms: C_4  and  C_5
REMARK    4  A    between atoms: N_13  and  C_14
REMARK    5  A    between atoms: C_14  and  C_15
REMARK                            x       y       z     vdW  Elec       q    Type
REMARK                         _______ _______ _______ _____ _____    ______ ____
ROOT
ATOM      1  C   UNL     1       6.415   6.391  16.647  0.00  0.00    +0.000 C 
ATOM      2  C   UNL     1       6.885   6.360  18.099  0.00  0.00    +0.000 C 
ATOM      3  C   UNL     1       6.468   5.062  18.790  0.00  0.00    +0.000 C 
ATOM      4  N   UNL     1       5.013   4.843  18.757  0.00  0.00    +0.000 NA
ATOM      5  C   UNL     1       4.469   4.924  17.388  0.00  0.00    +0.000 C 
ATOM      6  C   UNL     1       4.895   6.189  16.633  0.00  0.00    +0.000 C 
ENDROOT
BRANCH   1   8
ATOM      7  O   UNL     1       7.878   4.495  16.220  0.00  0.00    +0.000 OA
ATOM      8  C   UNL     1       7.137   5.362  15.769  0.00  0.00    +0.000 C 
ATOM      9  N   UNL     1       6.860   5.458  14.424  0.00  0.00    +0.000 N 
ATOM     10  H   UNL     1       6.344   6.249  14.065  0.00  0.00    +0.000 HD
BRANCH   9  11
ATOM     11  C   UNL     1       7.519   4.598  13.464  0.00  0.00    +0.000 C 
BRANCH  11  12
ATOM     12  C   UNL     1       6.479   3.847  12.698  0.00  0.00    +0.000 A 
ATOM     13  C   UNL     1       5.110   4.044  12.707  0.00  0.00    +0.000 A 
ATOM     14  C   UNL     1       4.421   3.117  11.873  0.00  0.00    +0.000 A 
ATOM     15  C   UNL     1       5.286   2.241  11.253  0.00  0.00    +0.000 A 
ATOM     16  S   UNL     1       6.917   2.551  11.666  0.00  0.00    +0.000 S 
ENDBRANCH  11  12
ENDBRANCH   9  11
ENDBRANCH   1   8
BRANCH   4  17
ATOM     17  C   UNL     1       4.670   3.515  19.320  0.00  0.00    +0.000 C 
BRANCH  17  18
ATOM     18  C   UNL     1       3.185   3.293  19.498  0.00  0.00    +0.000 A 
ATOM     19  C   UNL     1       2.504   2.350  18.724  0.00  0.00    +0.000 A 
ATOM     20  C   UNL     1       1.133   2.232  18.875  0.00  0.00    +0.000 A 
ATOM     21  N   UNL     1       0.405   2.967  19.744  0.00  0.00    +0.000 NA
ATOM     22  C   UNL     1       1.083   3.858  20.497  0.00  0.00    +0.000 A 
ATOM     23  C   UNL     1       2.452   4.054  20.415  0.00  0.00    +0.000 A 
ENDBRANCH  17  18
ENDBRANCH   4  17
TORSDOF 5
ENDMDL
MODEL 8
REMARK VINA RESULT:      -7.0      0.925      1.443
REMARK  Name = 
REMARK  5 active torsions:
REMARK  status: ('A' for Active; 'I' for Inactive)
REMARK    1  A    between atoms: C_2  and  C_10
REMARK    2  A    between atoms: N_3  and  C_4
REMARK    3  A    between atoms: C_4  and  C_5
REMARK    4  A    between atoms: N_13  and  C_14
REMARK    5  A    between atoms: C_14  and  C_15
REMARK                            x       y       z     vdW  Elec       q    Type
REMARK                         _______ _______ _______ _____ _____    ______ ____
ROOT
ATOM      1  C   UNL     1       7.766   6.061  17.956  0.00  0.00    +0.000 C 
ATOM      2  C   UNL     1       7.426   5.077  16.840  0.00  0.00    +0.000 C 
ATOM      3  C   UNL     1       5.922   5.046  16.565  0.00  0.00    +0.000 C 
ATOM      4  N   UNL     1       5.134   4.701  17.760  0.00  0.00    +0.000 NA
ATOM      5  C   UNL     1       5.456   5.568  18.909  0.00  0.00    +0.000 C 
ATOM      6  C   UNL     1       6.958   5.669  19.199  0.00  0.00    +0.000 C 
ENDROOT
BRANCH   1   8
ATOM      7  O   UNL     1       6.677   7.860  16.736  0.00  0.00    +0.000 OA
ATOM      8  C   UNL     1       7.525   7.520  17.553  0.00  0.00    +0.000 C 
ATOM      9  N   UNL     1       8.315   8.436  18.212  0.00  0.00    +0.000 N 
ATOM     10  H   UNL     1       9.083   8.125  18.789  0.00  0.00    +0.000 HD
BRANCH   9  11
ATOM     11  C   UNL     1       8.248   9.845  17.887  0.00  0.00    +0.000 C 
BRANCH  11  12
ATOM     12  C   UNL     1       9.362  10.552  18.588  0.00  0.00    +0.000 A 
ATOM     13  C   UNL     1      10.514  11.082  18.033  0.00  0.00    +0.000 A 
ATOM     14  C   UNL     1      11.374  11.659  19.011  0.00  0.00    +0.000 A 
ATOM     15  C   UNL     1      10.853  11.551  20.283  0.00  0.00    +0.000 A 
ATOM     16  S   UNL     1       9.329  10.773  20.286  0.00  0.00    +0.000 S 
ENDBRANCH  11  12
ENDBRANCH   9  11
ENDBRANCH   1   8
BRANCH   4  17
ATOM     17  C   UNL     1       3.683   4.812  17.480  0.00  0.00    +0.000 C 
BRANCH  17  18
ATOM     18  C   UNL     1       2.842   3.780  18.198  0.00  0.00    +0.000 A 
ATOM     19  C   UNL     1       3.434   2.658  18.785  0.00  0.00    +0.000 A 
ATOM     20  C   UNL     1       2.616   1.708  19.371  0.00  0.00    +0.000 A 
ATOM     21  N   UNL     1       1.269   1.803  19.427  0.00  0.00    +0.000 NA
ATOM     22  C   UNL     1       0.719   2.903  18.873  0.00  0.00    +0.000 A 
ATOM     23  C   UNL     1       1.451   3.906  18.259  0.00  0.00    +0.000 A 
ENDBRANCH  17  18
ENDBRANCH   4  17
TORSDOF 5
ENDMDL
MODEL 9
REMARK VINA RESULT:      -6.9      1.562      2.058
REMARK  Name = 
REMARK  5 active torsions:
REMARK  status: ('A' for Active; 'I' for Inactive)
REMARK    1  A    between atoms: C_2  and  C_10
REMARK    2  A    between atoms: N_3  and  C_4
REMARK    3  A    between atoms: C_4  and  C_5
REMARK    4  A    between atoms: N_13  and  C_14
REMARK    5  A    between atoms: C_14  and  C_15
REMARK                            x       y       z     vdW  Elec       q    Type
REMARK                         _______ _______ _______ _____ _____    ______ ____
ROOT
ATOM      1  C   UNL     1       6.825   6.800  16.851  0.00  0.00    +0.000 C 
ATOM      2  C   UNL     1       5.340   6.970  17.159  0.00  0.00    +0.000 C 
ATOM      3  C   UNL     1       4.889   6.013  18.264  0.00  0.00    +0.000 C 
ATOM      4  N   UNL     1       5.148   4.603  17.933  0.00  0.00    +0.000 NA
ATOM      5  C   UNL     1       6.555   4.368  17.557  0.00  0.00    +0.000 C 
ATOM      6  C   UNL     1       7.071   5.332  16.483  0.00  0.00    +0.000 C 
ENDROOT
BRANCH   1   8
ATOM      7  O   UNL     1       8.116   6.509  18.891  0.00  0.00    +0.000 OA
ATOM      8  C   UNL     1       7.725   7.259  18.004  0.00  0.00    +0.000 C 
ATOM      9  N   UNL     1       8.099   8.584  17.949  0.00  0.00    +0.000 N 
ATOM     10  H   UNL     1       7.671   9.206  17.280  0.00  0.00    +0.000 HD
BRANCH   9  11
ATOM     11  C   UNL     1       8.892   9.178  19.005  0.00  0.00    +0.000 C 
BRANCH  11  12
ATOM     12  C   UNL     1       9.078  10.630  18.706  0.00  0.00    +0.000 A 
ATOM     13  C   UNL     1       8.493  11.371  17.696  0.00  0.00    +0.000 A 
ATOM     14  C   UNL     1       8.929  12.728  17.692  0.00  0.00    +0.000 A 
ATOM     15  C   UNL     1       9.834  12.979  18.701  0.00  0.00    +0.000 A 
ATOM     16  S   UNL     1      10.138  11.589  19.650  0.00  0.00    +0.000 S 
ENDBRANCH  11  12
ENDBRANCH   9  11
ENDBRANCH   1   8
BRANCH   4  17
ATOM     17  C   UNL     1       4.817   3.727  19.083  0.00  0.00    +0.000 C 
BRANCH  17  18
ATOM     18  C   UNL     1       3.331   3.534  19.295  0.00  0.00    +0.000 A 
ATOM     19  C   UNL     1       2.685   4.108  20.392  0.00  0.00    +0.000 A 
ATOM     20  C   UNL     1       1.338   3.846  20.580  0.00  0.00    +0.000 A 
ATOM     21  N   UNL     1       0.598   3.076  19.753  0.00  0.00    +0.000 NA
ATOM     22  C   UNL     1       1.236   2.548  18.688  0.00  0.00    +0.000 A 
ATOM     23  C   UNL     1       2.580   2.746  18.417  0.00  0.00    +0.000 A 
ENDBRANCH  17  18
ENDBRANCH   4  17
TORSDOF 5
ENDMDL
