MODEL 1
REMARK VINA RESULT:      -6.8      0.000      0.000
REMARK  Name = 
REMARK  14 active torsions:
REMARK  status: ('A' for Active; 'I' for Inactive)
REMARK    1  A    between atoms: C_1  and  C_2
REMARK    2  A    between atoms: C_3  and  C_4
REMARK    3  A    between atoms: N_6  and  C_7
REMARK    4  A    between atoms: C_7  and  C_8
REMARK    5  A    between atoms: N_10  and  C_11
REMARK    6  A    between atoms: C_16  and  O_17
REMARK    7  A    between atoms: O_17  and  C_18
REMARK    8  A    between atoms: C_19  and  O_20
REMARK    9  A    between atoms: O_20  and  C_21
REMARK   10  A    between atoms: C_22  and  O_23
REMARK   11  A    between atoms: O_23  and  C_24
REMARK   12  A    between atoms: C_29  and  C_30
REMARK   13  A    between atoms: C_30  and  O_32
REMARK   14  A    between atoms: O_32  and  C_33
REMARK                            x       y       z     vdW  Elec       q    Type
REMARK                         _______ _______ _______ _____ _____    ______ ____
ROOT
ATOM      1  C   UNL     1      -1.546  11.532  22.128  0.00  0.00    +0.000 C 
ATOM      2  C   UNL     1      -2.366  12.512  22.983  0.00  0.00    +0.000 C 
ATOM      3  C   UNL     1      -3.287  13.448  22.211  0.00  0.00    +0.000 C 
ATOM      4  C   UNL     1      -4.016  12.772  21.078  0.00  0.00    +0.000 A 
ATOM      5  C   UNL     1      -5.396  12.586  21.188  0.00  0.00    +0.000 A 
ATOM      6  C   UNL     1      -6.196  12.093  20.141  0.00  0.00    +0.000 A 
ATOM      7  C   UNL     1      -5.580  11.739  18.926  0.00  0.00    +0.000 A 
ATOM      8  C   UNL     1      -4.148  11.834  18.832  0.00  0.00    +0.000 A 
ATOM      9  C   UNL     1      -3.352  12.369  19.905  0.00  0.00    +0.000 A 
ATOM     10  C   UNL     1      -1.859  12.563  19.813  0.00  0.00    +0.000 A 
ATOM     11  C   UNL     1      -1.293  13.205  18.692  0.00  0.00    +0.000 A 
ATOM     12  C   UNL     1       0.087  13.410  18.569  0.00  0.00    +0.000 A 
ATOM     13  C   UNL     1       0.954  12.996  19.579  0.00  0.00    +0.000 A 
ATOM     14  C   UNL     1       0.416  12.389  20.722  0.00  0.00    +0.000 A 
ATOM     15  C   UNL     1      -0.976  12.174  20.865  0.00  0.00    +0.000 A 
ENDROOT
BRANCH   1  18
ATOM     16  C   UNL     1       0.065   9.720  22.923  0.00  0.00    +0.000 C 
ATOM     17  O   UNL     1       1.032   9.483  23.650  0.00  0.00    +0.000 OA
ATOM     18  N   UNL     1      -0.518  10.948  22.993  0.00  0.00    +0.000 N 
ATOM     19  H   UNL     1      -0.124  11.534  23.720  0.00  0.00    +0.000 HD
BRANCH  16  20
ATOM     20  C   UNL     1      -0.413   8.719  21.883  0.00  0.00    +0.000 C 
BRANCH  20  23
ATOM     21  C   UNL     1       1.253   8.420  20.111  0.00  0.00    +0.000 C 
ATOM     22  O   UNL     1       0.853   9.380  19.475  0.00  0.00    +0.000 OA
ATOM     23  N   UNL     1       0.732   8.033  21.316  0.00  0.00    +0.000 N 
ATOM     24  H   UNL     1       1.039   7.180  21.763  0.00  0.00    +0.000 HD
BRANCH  21  27
ATOM     25  C   UNL     1       3.596   6.497  17.735  0.00  0.00    +0.000 C 
ATOM     26  C   UNL     1       2.529   7.360  18.317  0.00  0.00    +0.000 C 
ATOM     27  C   UNL     1       2.352   7.539  19.636  0.00  0.00    +0.000 C 
ENDBRANCH  21  27
ENDBRANCH  20  23
ENDBRANCH  16  20
ENDBRANCH   1  18
BRANCH   6  28
ATOM     28  O   UNL     1      -7.491  12.163  20.558  0.00  0.00    +0.000 OA
ATOM     29  C   UNL     1      -7.893  12.381  21.884  0.00  0.00    +0.000 C 
ENDBRANCH   6  28
BRANCH   7  30
ATOM     30  O   UNL     1      -6.276  11.623  17.745  0.00  0.00    +0.000 OA
ATOM     31  C   UNL     1      -6.634  12.800  17.030  0.00  0.00    +0.000 C 
ENDBRANCH   7  30
BRANCH   8  32
ATOM     32  O   UNL     1      -3.377  11.484  17.743  0.00  0.00    +0.000 OA
ATOM     33  C   UNL     1      -3.146  10.133  17.402  0.00  0.00    +0.000 C 
ENDBRANCH   8  32
BRANCH  13  34
ATOM     34  C   UNL     1       2.421  13.223  19.403  0.00  0.00    +0.000 C 
ATOM     35  O   UNL     1       3.024  13.029  18.353  0.00  0.00    +0.000 OA
BRANCH  34  36
ATOM     36  O   UNL     1       2.979  13.640  20.569  0.00  0.00    +0.000 OA
ATOM     37  C   UNL     1       3.353  15.016  20.585  0.00  0.00    +0.000 C 
ENDBRANCH  34  36
ENDBRANCH  13  34
TORSDOF 9
ENDMDL
MODEL 2
REMARK VINA RESULT:      -6.7      1.007      1.288
REMARK  Name = 
REMARK  14 active torsions:
REMARK  status: ('A' for Active; 'I' for Inactive)
REMARK    1  A    between atoms: C_1  and  C_2
REMARK    2  A    between atoms: C_3  and  C_4
REMARK    3  A    between atoms: N_6  and  C_7
REMARK    4  A    between atoms: C_7  and  C_8
REMARK    5  A    between atoms: N_10  and  C_11
REMARK    6  A    between atoms: C_16  and  O_17
REMARK    7  A    between atoms: O_17  and  C_18
REMARK    8  A    between atoms: C_19  and  O_20
REMARK    9  A    between atoms: O_20  and  C_21
REMARK   10  A    between atoms: C_22  and  O_23
REMARK   11  A    between atoms: O_23  and  C_24
REMARK   12  A    between atoms: C_29  and  C_30
REMARK   13  A    between atoms: C_30  and  O_32
REMARK   14  A    between atoms: O_32  and  C_33
REMARK                            x       y       z     vdW  Elec       q    Type
REMARK                         _______ _______ _______ _____ _____    ______ ____
ROOT
ATOM      1  C   UNL     1      -1.598  11.527  22.393  0.00  0.00    +0.000 C 
ATOM      2  C   UNL     1      -2.541  12.424  23.212  0.00  0.00    +0.000 C 
ATOM      3  C   UNL     1      -3.411  13.378  22.403  0.00  0.00    +0.000 C 
ATOM      4  C   UNL     1      -3.989  12.752  21.158  0.00  0.00    +0.000 A 
ATOM      5  C   UNL     1      -5.364  12.515  21.108  0.00  0.00    +0.000 A 
ATOM      6  C   UNL     1      -6.029  12.065  19.953  0.00  0.00    +0.000 A 
ATOM      7  C   UNL     1      -5.275  11.809  18.792  0.00  0.00    +0.000 A 
ATOM      8  C   UNL     1      -3.846  11.957  18.859  0.00  0.00    +0.000 A 
ATOM      9  C   UNL     1      -3.189  12.447  20.042  0.00  0.00    +0.000 A 
ATOM     10  C   UNL     1      -1.704  12.694  20.124  0.00  0.00    +0.000 A 
ATOM     11  C   UNL     1      -1.048  13.425  19.112  0.00  0.00    +0.000 A 
ATOM     12  C   UNL     1       0.329  13.681  19.151  0.00  0.00    +0.000 A 
ATOM     13  C   UNL     1       1.100  13.232  20.222  0.00  0.00    +0.000 A 
ATOM     14  C   UNL     1       0.467  12.536  21.261  0.00  0.00    +0.000 A 
ATOM     15  C   UNL     1      -0.923  12.267  21.240  0.00  0.00    +0.000 A 
ENDROOT
BRANCH   1  18
ATOM     16  C   UNL     1      -0.121   9.667  23.324  0.00  0.00    +0.000 C 
ATOM     17  O   UNL     1       0.795   9.406  24.107  0.00  0.00    +0.000 OA
ATOM     18  N   UNL     1      -0.645  10.923  23.328  0.00  0.00    +0.000 N 
ATOM     19  H   UNL     1      -0.261  11.512  24.056  0.00  0.00    +0.000 HD
BRANCH  16  20
ATOM     20  C   UNL     1      -0.594   8.657  22.290  0.00  0.00    +0.000 C 
BRANCH  20  23
ATOM     21  C   UNL     1       1.116   8.170  20.603  0.00  0.00    +0.000 C 
ATOM     22  O   UNL     1       1.537   7.199  21.207  0.00  0.00    +0.000 OA
ATOM     23  N   UNL     1       0.056   8.928  21.022  0.00  0.00    +0.000 N 
ATOM     24  H   UNL     1      -0.202   9.775  20.532  0.00  0.00    +0.000 HD
BRANCH  21  27
ATOM     25  C   UNL     1       1.950  10.465  17.625  0.00  0.00    +0.000 C 
ATOM     26  C   UNL     1       1.403   9.880  18.882  0.00  0.00    +0.000 C 
ATOM     27  C   UNL     1       1.722   8.658  19.337  0.00  0.00    +0.000 C 
ENDBRANCH  21  27
ENDBRANCH  20  23
ENDBRANCH  16  20
ENDBRANCH   1  18
BRANCH   6  28
ATOM     28  O   UNL     1      -7.363  12.067  20.231  0.00  0.00    +0.000 OA
ATOM     29  C   UNL     1      -7.916  12.321  21.495  0.00  0.00    +0.000 C 
ENDBRANCH   6  28
BRANCH   7  30
ATOM     30  O   UNL     1      -5.838  11.748  17.538  0.00  0.00    +0.000 OA
ATOM     31  C   UNL     1      -6.454  12.909  16.994  0.00  0.00    +0.000 C 
ENDBRANCH   7  30
BRANCH   8  32
ATOM     32  O   UNL     1      -2.951  11.702  17.841  0.00  0.00    +0.000 OA
ATOM     33  C   UNL     1      -2.554  10.386  17.514  0.00  0.00    +0.000 C 
ENDBRANCH   8  32
BRANCH  13  34
ATOM     34  C   UNL     1       2.567  13.516  20.219  0.00  0.00    +0.000 C 
ATOM     35  O   UNL     1       3.268  13.508  21.225  0.00  0.00    +0.000 OA
BRANCH  34  36
ATOM     36  O   UNL     1       2.991  13.807  18.962  0.00  0.00    +0.000 OA
ATOM     37  C   UNL     1       4.160  14.621  18.907  0.00  0.00    +0.000 C 
ENDBRANCH  34  36
ENDBRANCH  13  34
TORSDOF 9
ENDMDL
MODEL 3
REMARK VINA RESULT:      -6.6      1.178      1.391
REMARK  Name = 
REMARK  14 active torsions:
REMARK  status: ('A' for Active; 'I' for Inactive)
REMARK    1  A    between atoms: C_1  and  C_2
REMARK    2  A    between atoms: C_3  and  C_4
REMARK    3  A    between atoms: N_6  and  C_7
REMARK    4  A    between atoms: C_7  and  C_8
REMARK    5  A    between atoms: N_10  and  C_11
REMARK    6  A    between atoms: C_16  and  O_17
REMARK    7  A    between atoms: O_17  and  C_18
REMARK    8  A    between atoms: C_19  and  O_20
REMARK    9  A    between atoms: O_20  and  C_21
REMARK   10  A    between atoms: C_22  and  O_23
REMARK   11  A    between atoms: O_23  and  C_24
REMARK   12  A    between atoms: C_29  and  C_30
REMARK   13  A    between atoms: C_30  and  O_32
REMARK   14  A    between atoms: O_32  and  C_33
REMARK                            x       y       z     vdW  Elec       q    Type
REMARK                         _______ _______ _______ _____ _____    ______ ____
ROOT
ATOM      1  C   UNL     1      -1.551  11.412  22.086  0.00  0.00    +0.000 C 
ATOM      2  C   UNL     1      -2.447  12.272  22.991  0.00  0.00    +0.000 C 
ATOM      3  C   UNL     1      -3.369  13.249  22.271  0.00  0.00    +0.000 C 
ATOM      4  C   UNL     1      -4.019  12.664  21.042  0.00  0.00    +0.000 A 
ATOM      5  C   UNL     1      -5.393  12.420  21.066  0.00  0.00    +0.000 A 
ATOM      6  C   UNL     1      -6.124  12.007  19.938  0.00  0.00    +0.000 A 
ATOM      7  C   UNL     1      -5.441  11.798  18.725  0.00  0.00    +0.000 A 
ATOM      8  C   UNL     1      -4.011  11.952  18.711  0.00  0.00    +0.000 A 
ATOM      9  C   UNL     1      -3.286  12.404  19.869  0.00  0.00    +0.000 A 
ATOM     10  C   UNL     1      -1.800  12.658  19.871  0.00  0.00    +0.000 A 
ATOM     11  C   UNL     1      -1.209  13.429  18.848  0.00  0.00    +0.000 A 
ATOM     12  C   UNL     1       0.166  13.693  18.813  0.00  0.00    +0.000 A 
ATOM     13  C   UNL     1       1.002  13.210  19.818  0.00  0.00    +0.000 A 
ATOM     14  C   UNL     1       0.437  12.473  20.869  0.00  0.00    +0.000 A 
ATOM     15  C   UNL     1      -0.951  12.197  20.921  0.00  0.00    +0.000 A 
ENDROOT
BRANCH   1  18
ATOM     16  C   UNL     1       0.275   9.727  22.664  0.00  0.00    +0.000 C 
ATOM     17  O   UNL     1       1.175   9.453  23.461  0.00  0.00    +0.000 OA
ATOM     18  N   UNL     1      -0.542  10.781  22.939  0.00  0.00    +0.000 N 
ATOM     19  H   UNL     1      -0.362  11.197  23.844  0.00  0.00    +0.000 HD
BRANCH  16  20
ATOM     20  C   UNL     1       0.132   8.989  21.341  0.00  0.00    +0.000 C 
BRANCH  20  23
ATOM     21  C   UNL     1       1.587   7.172  20.573  0.00  0.00    +0.000 C 
ATOM     22  O   UNL     1       2.045   7.830  19.656  0.00  0.00    +0.000 OA
ATOM     23  N   UNL     1       0.677   7.652  21.477  0.00  0.00    +0.000 N 
ATOM     24  H   UNL     1       0.262   7.042  22.168  0.00  0.00    +0.000 HD
BRANCH  21  27
ATOM     25  C   UNL     1       1.355   3.329  20.651  0.00  0.00    +0.000 C 
ATOM     26  C   UNL     1       1.090   4.783  20.458  0.00  0.00    +0.000 C 
ATOM     27  C   UNL     1       1.952   5.751  20.808  0.00  0.00    +0.000 C 
ENDBRANCH  21  27
ENDBRANCH  20  23
ENDBRANCH  16  20
ENDBRANCH   1  18
BRANCH   6  28
ATOM     28  O   UNL     1      -7.439  11.991  20.295  0.00  0.00    +0.000 OA
ATOM     29  C   UNL     1      -7.915  11.672  21.576  0.00  0.00    +0.000 C 
ENDBRANCH   6  28
BRANCH   7  30
ATOM     30  O   UNL     1      -6.078  11.778  17.506  0.00  0.00    +0.000 OA
ATOM     31  C   UNL     1      -6.656  12.976  17.003  0.00  0.00    +0.000 C 
ENDBRANCH   7  30
BRANCH   8  32
ATOM     32  O   UNL     1      -3.178  11.740  17.633  0.00  0.00    +0.000 OA
ATOM     33  C   UNL     1      -2.877  10.439  17.173  0.00  0.00    +0.000 C 
ENDBRANCH   8  32
BRANCH  13  34
ATOM     34  C   UNL     1       2.465  13.504  19.738  0.00  0.00    +0.000 C 
ATOM     35  O   UNL     1       3.170  13.749  20.711  0.00  0.00    +0.000 OA
BRANCH  34  36
ATOM     36  O   UNL     1       2.882  13.487  18.445  0.00  0.00    +0.000 OA
ATOM     37  C   UNL     1       3.708  14.589  18.077  0.00  0.00    +0.000 C 
ENDBRANCH  34  36
ENDBRANCH  13  34
TORSDOF 9
ENDMDL
MODEL 4
REMARK VINA RESULT:      -6.3      3.118      7.161
REMARK  Name = 
REMARK  14 active torsions:
REMARK  status: ('A' for Active; 'I' for Inactive)
REMARK    1  A    between atoms: C_1  and  C_2
REMARK    2  A    between atoms: C_3  and  C_4
REMARK    3  A    between atoms: N_6  and  C_7
REMARK    4  A    between atoms: C_7  and  C_8
REMARK    5  A    between atoms: N_10  and  C_11
REMARK    6  A    between atoms: C_16  and  O_17
REMARK    7  A    between atoms: O_17  and  C_18
REMARK    8  A    between atoms: C_19  and  O_20
REMARK    9  A    between atoms: O_20  and  C_21
REMARK   10  A    between atoms: C_22  and  O_23
REMARK   11  A    between atoms: O_23  and  C_24
REMARK   12  A    between atoms: C_29  and  C_30
REMARK   13  A    between atoms: C_30  and  O_32
REMARK   14  A    between atoms: O_32  and  C_33
REMARK                            x       y       z     vdW  Elec       q    Type
REMARK                         _______ _______ _______ _____ _____    ______ ____
ROOT
ATOM      1  C   UNL     1       0.117  11.431  20.832  0.00  0.00    +0.000 C 
ATOM      2  C   UNL     1      -0.121  11.680  19.334  0.00  0.00    +0.000 C 
ATOM      3  C   UNL     1       0.209  13.083  18.839  0.00  0.00    +0.000 C 
ATOM      4  C   UNL     1       1.485  13.639  19.419  0.00  0.00    +0.000 A 
ATOM      5  C   UNL     1       2.585  13.803  18.576  0.00  0.00    +0.000 A 
ATOM      6  C   UNL     1       3.777  14.436  18.974  0.00  0.00    +0.000 A 
ATOM      7  C   UNL     1       3.887  14.904  20.296  0.00  0.00    +0.000 A 
ATOM      8  C   UNL     1       2.799  14.656  21.202  0.00  0.00    +0.000 A 
ATOM      9  C   UNL     1       1.577  14.033  20.767  0.00  0.00    +0.000 A 
ATOM     10  C   UNL     1       0.383  13.830  21.665  0.00  0.00    +0.000 A 
ATOM     11  C   UNL     1      -0.106  14.896  22.449  0.00  0.00    +0.000 A 
ATOM     12  C   UNL     1      -1.215  14.753  23.293  0.00  0.00    +0.000 A 
ATOM     13  C   UNL     1      -1.892  13.536  23.367  0.00  0.00    +0.000 A 
ATOM     14  C   UNL     1      -1.452  12.470  22.570  0.00  0.00    +0.000 A 
ATOM     15  C   UNL     1      -0.334  12.596  21.711  0.00  0.00    +0.000 A 
ENDROOT
BRANCH   1  18
ATOM     16  C   UNL     1       0.018   8.928  21.316  0.00  0.00    +0.000 C 
ATOM     17  O   UNL     1      -0.678   8.018  21.773  0.00  0.00    +0.000 OA
ATOM     18  N   UNL     1      -0.534  10.164  21.175  0.00  0.00    +0.000 N 
ATOM     19  H   UNL     1      -1.521  10.186  21.401  0.00  0.00    +0.000 HD
BRANCH  16  20
ATOM     20  C   UNL     1       1.495   8.724  21.015  0.00  0.00    +0.000 C 
BRANCH  20  23
ATOM     21  C   UNL     1       2.259   6.706  19.854  0.00  0.00    +0.000 C 
ATOM     22  O   UNL     1       2.523   7.309  18.829  0.00  0.00    +0.000 OA
ATOM     23  N   UNL     1       1.789   7.304  20.992  0.00  0.00    +0.000 N 
ATOM     24  H   UNL     1       1.502   6.751  21.789  0.00  0.00    +0.000 HD
BRANCH  21  27
ATOM     25  C   UNL     1       2.109   3.160  21.350  0.00  0.00    +0.000 C 
ATOM     26  C   UNL     1       2.009   4.629  21.116  0.00  0.00    +0.000 C 
ATOM     27  C   UNL     1       2.400   5.232  19.982  0.00  0.00    +0.000 C 
ENDBRANCH  21  27
ENDBRANCH  20  23
ENDBRANCH  16  20
ENDBRANCH   1  18
BRANCH   6  28
ATOM     28  O   UNL     1       4.571  14.528  17.870  0.00  0.00    +0.000 OA
ATOM     29  C   UNL     1       5.967  14.389  17.877  0.00  0.00    +0.000 C 
ENDBRANCH   6  28
BRANCH   7  30
ATOM     30  O   UNL     1       4.810  15.851  20.675  0.00  0.00    +0.000 OA
ATOM     31  C   UNL     1       6.009  15.436  21.320  0.00  0.00    +0.000 C 
ENDBRANCH   7  30
BRANCH   8  32
ATOM     32  O   UNL     1       2.755  14.996  22.539  0.00  0.00    +0.000 OA
ATOM     33  C   UNL     1       2.848  16.340  22.965  0.00  0.00    +0.000 C 
ENDBRANCH   8  32
BRANCH  13  34
ATOM     34  C   UNL     1      -3.063  13.422  24.289  0.00  0.00    +0.000 C 
ATOM     35  O   UNL     1      -3.291  14.200  25.209  0.00  0.00    +0.000 OA
BRANCH  34  36
ATOM     36  O   UNL     1      -3.807  12.328  23.976  0.00  0.00    +0.000 OA
ATOM     37  C   UNL     1      -5.195  12.453  24.278  0.00  0.00    +0.000 C 
ENDBRANCH  34  36
ENDBRANCH  13  34
TORSDOF 9
ENDMDL
MODEL 5
REMARK VINA RESULT:      -6.3      0.994      1.043
REMARK  Name = 
REMARK  14 active torsions:
REMARK  status: ('A' for Active; 'I' for Inactive)
REMARK    1  A    between atoms: C_1  and  C_2
REMARK    2  A    between atoms: C_3  and  C_4
REMARK    3  A    between atoms: N_6  and  C_7
REMARK    4  A    between atoms: C_7  and  C_8
REMARK    5  A    between atoms: N_10  and  C_11
REMARK    6  A    between atoms: C_16  and  O_17
REMARK    7  A    between atoms: O_17  and  C_18
REMARK    8  A    between atoms: C_19  and  O_20
REMARK    9  A    between atoms: O_20  and  C_21
REMARK   10  A    between atoms: C_22  and  O_23
REMARK   11  A    between atoms: O_23  and  C_24
REMARK   12  A    between atoms: C_29  and  C_30
REMARK   13  A    between atoms: C_30  and  O_32
REMARK   14  A    between atoms: O_32  and  C_33
REMARK                            x       y       z     vdW  Elec       q    Type
REMARK                         _______ _______ _______ _____ _____    ______ ____
ROOT
ATOM      1  C   UNL     1      -0.995  11.480  22.103  0.00  0.00    +0.000 C 
ATOM      2  C   UNL     1      -1.582  12.377  23.206  0.00  0.00    +0.000 C 
ATOM      3  C   UNL     1      -2.582  13.426  22.739  0.00  0.00    +0.000 C 
ATOM      4  C   UNL     1      -3.551  12.913  21.704  0.00  0.00    +0.000 A 
ATOM      5  C   UNL     1      -4.891  12.759  22.063  0.00  0.00    +0.000 A 
ATOM      6  C   UNL     1      -5.903  12.419  21.146  0.00  0.00    +0.000 A 
ATOM      7  C   UNL     1      -5.552  12.193  19.802  0.00  0.00    +0.000 A 
ATOM      8  C   UNL     1      -4.162  12.254  19.439  0.00  0.00    +0.000 A 
ATOM      9  C   UNL     1      -3.147  12.632  20.386  0.00  0.00    +0.000 A 
ATOM     10  C   UNL     1      -1.692  12.788  20.024  0.00  0.00    +0.000 A 
ATOM     11  C   UNL     1      -1.318  13.541  18.892  0.00  0.00    +0.000 A 
ATOM     12  C   UNL     1       0.022  13.716  18.522  0.00  0.00    +0.000 A 
ATOM     13  C   UNL     1       1.044  13.158  19.289  0.00  0.00    +0.000 A 
ATOM     14  C   UNL     1       0.703  12.436  20.442  0.00  0.00    +0.000 A 
ATOM     15  C   UNL     1      -0.645  12.249  20.831  0.00  0.00    +0.000 A 
ENDROOT
BRANCH   1  18
ATOM     16  C   UNL     1       0.769   9.642  22.230  0.00  0.00    +0.000 C 
ATOM     17  O   UNL     1       1.821   9.292  22.770  0.00  0.00    +0.000 OA
ATOM     18  N   UNL     1       0.146  10.765  22.679  0.00  0.00    +0.000 N 
ATOM     19  H   UNL     1       0.594  11.169  23.493  0.00  0.00    +0.000 HD
BRANCH  16  20
ATOM     20  C   UNL     1       0.220   8.913  21.013  0.00  0.00    +0.000 C 
BRANCH  20  23
ATOM     21  C   UNL     1       1.201   9.148  18.779  0.00  0.00    +0.000 C 
ATOM     22  O   UNL     1       0.272   9.819  18.364  0.00  0.00    +0.000 OA
ATOM     23  N   UNL     1       1.294   8.687  20.065  0.00  0.00    +0.000 N 
ATOM     24  H   UNL     1       2.041   8.062  20.338  0.00  0.00    +0.000 HD
BRANCH  21  27
ATOM     25  C   UNL     1       4.057   7.018  17.318  0.00  0.00    +0.000 C 
ATOM     26  C   UNL     1       2.908   7.531  18.116  0.00  0.00    +0.000 C 
ATOM     27  C   UNL     1       2.342   8.733  17.922  0.00  0.00    +0.000 C 
ENDBRANCH  21  27
ENDBRANCH  20  23
ENDBRANCH  16  20
ENDBRANCH   1  18
BRANCH   6  28
ATOM     28  O   UNL     1      -7.089  12.480  21.815  0.00  0.00    +0.000 OA
ATOM     29  C   UNL     1      -7.221  12.450  23.212  0.00  0.00    +0.000 C 
ENDBRANCH   6  28
BRANCH   7  30
ATOM     30  O   UNL     1      -6.468  12.240  18.776  0.00  0.00    +0.000 OA
ATOM     31  C   UNL     1      -6.994  11.025  18.256  0.00  0.00    +0.000 C 
ENDBRANCH   7  30
BRANCH   8  32
ATOM     32  O   UNL     1      -3.634  12.012  18.187  0.00  0.00    +0.000 OA
ATOM     33  C   UNL     1      -3.418  10.698  17.715  0.00  0.00    +0.000 C 
ENDBRANCH   8  32
BRANCH  13  34
ATOM     34  C   UNL     1       2.459  13.358  18.854  0.00  0.00    +0.000 C 
ATOM     35  O   UNL     1       3.100  12.537  18.206  0.00  0.00    +0.000 OA
BRANCH  34  36
ATOM     36  O   UNL     1       2.929  14.552  19.301  0.00  0.00    +0.000 OA
ATOM     37  C   UNL     1       3.865  14.455  20.372  0.00  0.00    +0.000 C 
ENDBRANCH  34  36
ENDBRANCH  13  34
TORSDOF 9
ENDMDL
MODEL 6
REMARK VINA RESULT:      -6.3      4.310      8.742
REMARK  Name = 
REMARK  14 active torsions:
REMARK  status: ('A' for Active; 'I' for Inactive)
REMARK    1  A    between atoms: C_1  and  C_2
REMARK    2  A    between atoms: C_3  and  C_4
REMARK    3  A    between atoms: N_6  and  C_7
REMARK    4  A    between atoms: C_7  and  C_8
REMARK    5  A    between atoms: N_10  and  C_11
REMARK    6  A    between atoms: C_16  and  O_17
REMARK    7  A    between atoms: O_17  and  C_18
REMARK    8  A    between atoms: C_19  and  O_20
REMARK    9  A    between atoms: O_20  and  C_21
REMARK   10  A    between atoms: C_22  and  O_23
REMARK   11  A    between atoms: O_23  and  C_24
REMARK   12  A    between atoms: C_29  and  C_30
REMARK   13  A    between atoms: C_30  and  O_32
REMARK   14  A    between atoms: O_32  and  C_33
REMARK                            x       y       z     vdW  Elec       q    Type
REMARK                         _______ _______ _______ _____ _____    ______ ____
ROOT
ATOM      1  C   UNL     1       4.448   6.702  18.977  0.00  0.00    +0.000 C 
ATOM      2  C   UNL     1       4.188   7.084  17.511  0.00  0.00    +0.000 C 
ATOM      3  C   UNL     1       2.791   7.607  17.203  0.00  0.00    +0.000 C 
ATOM      4  C   UNL     1       2.264   8.557  18.249  0.00  0.00    +0.000 A 
ATOM      5  C   UNL     1       2.118   9.905  17.913  0.00  0.00    +0.000 A 
ATOM      6  C   UNL     1       1.512  10.851  18.759  0.00  0.00    +0.000 A 
ATOM      7  C   UNL     1       1.050  10.435  20.022  0.00  0.00    +0.000 A 
ATOM      8  C   UNL     1       1.280   9.072  20.418  0.00  0.00    +0.000 A 
ATOM      9  C   UNL     1       1.876   8.113  19.526  0.00  0.00    +0.000 A 
ATOM     10  C   UNL     1       2.058   6.657  19.874  0.00  0.00    +0.000 A 
ATOM     11  C   UNL     1       0.985   5.915  20.411  0.00  0.00    +0.000 A 
ATOM     12  C   UNL     1       1.109   4.560  20.744  0.00  0.00    +0.000 A 
ATOM     13  C   UNL     1       2.311   3.888  20.529  0.00  0.00    +0.000 A 
ATOM     14  C   UNL     1       3.383   4.591  19.960  0.00  0.00    +0.000 A 
ATOM     15  C   UNL     1       3.277   5.960  19.618  0.00  0.00    +0.000 A 
ENDROOT
BRANCH   1  18
ATOM     16  C   UNL     1       6.098   4.899  18.246  0.00  0.00    +0.000 C 
ATOM     17  O   UNL     1       7.265   4.509  18.331  0.00  0.00    +0.000 OA
ATOM     18  N   UNL     1       5.703   5.947  19.019  0.00  0.00    +0.000 N 
ATOM     19  H   UNL     1       6.420   6.259  19.663  0.00  0.00    +0.000 HD
BRANCH  16  20
ATOM     20  C   UNL     1       5.135   4.311  17.226  0.00  0.00    +0.000 C 
BRANCH  20  23
ATOM     21  C   UNL     1       6.039   4.689  14.979  0.00  0.00    +0.000 C 
ATOM     22  O   UNL     1       5.639   5.839  14.934  0.00  0.00    +0.000 OA
ATOM     23  N   UNL     1       5.880   3.868  16.063  0.00  0.00    +0.000 N 
ATOM     24  H   UNL     1       6.152   2.895  16.021  0.00  0.00    +0.000 HD
BRANCH  21  27
ATOM     25  C   UNL     1       6.609   2.876  11.630  0.00  0.00    +0.000 C 
ATOM     26  C   UNL     1       6.013   3.555  12.815  0.00  0.00    +0.000 C 
ATOM     27  C   UNL     1       6.734   4.031  13.843  0.00  0.00    +0.000 C 
ENDBRANCH  21  27
ENDBRANCH  20  23
ENDBRANCH  16  20
ENDBRANCH   1  18
BRANCH   6  28
ATOM     28  O   UNL     1       1.432  12.020  18.063  0.00  0.00    +0.000 OA
ATOM     29  C   UNL     1       2.337  13.085  18.183  0.00  0.00    +0.000 C 
ENDBRANCH   6  28
BRANCH   7  30
ATOM     30  O   UNL     1       0.123  11.147  20.747  0.00  0.00    +0.000 OA
ATOM     31  C   UNL     1      -1.028  11.664  20.089  0.00  0.00    +0.000 C 
ENDBRANCH   7  30
BRANCH   8  32
ATOM     32  O   UNL     1       0.943   8.507  21.631  0.00  0.00    +0.000 OA
ATOM     33  C   UNL     1       1.148   9.190  22.850  0.00  0.00    +0.000 C 
ENDBRANCH   8  32
BRANCH  13  34
ATOM     34  C   UNL     1       2.405   2.446  20.909  0.00  0.00    +0.000 C 
ATOM     35  O   UNL     1       2.915   2.042  21.948  0.00  0.00    +0.000 OA
BRANCH  34  36
ATOM     36  O   UNL     1       1.876   1.663  19.932  0.00  0.00    +0.000 OA
ATOM     37  C   UNL     1       2.545   1.753  18.677  0.00  0.00    +0.000 C 
ENDBRANCH  34  36
ENDBRANCH  13  34
TORSDOF 9
ENDMDL
MODEL 7
REMARK VINA RESULT:      -6.1      1.050      1.324
REMARK  Name = 
REMARK  14 active torsions:
REMARK  status: ('A' for Active; 'I' for Inactive)
REMARK    1  A    between atoms: C_1  and  C_2
REMARK    2  A    between atoms: C_3  and  C_4
REMARK    3  A    between atoms: N_6  and  C_7
REMARK    4  A    between atoms: C_7  and  C_8
REMARK    5  A    between atoms: N_10  and  C_11
REMARK    6  A    between atoms: C_16  and  O_17
REMARK    7  A    between atoms: O_17  and  C_18
REMARK    8  A    between atoms: C_19  and  O_20
REMARK    9  A    between atoms: O_20  and  C_21
REMARK   10  A    between atoms: C_22  and  O_23
REMARK   11  A    between atoms: O_23  and  C_24
REMARK   12  A    between atoms: C_29  and  C_30
REMARK   13  A    between atoms: C_30  and  O_32
REMARK   14  A    between atoms: O_32  and  C_33
REMARK                            x       y       z     vdW  Elec       q    Type
REMARK                         _______ _______ _______ _____ _____    ______ ____
ROOT
ATOM      1  C   UNL     1      -1.454  11.551  21.987  0.00  0.00    +0.000 C 
ATOM      2  C   UNL     1      -2.559  12.397  22.640  0.00  0.00    +0.000 C 
ATOM      3  C   UNL     1      -3.333  13.311  21.698  0.00  0.00    +0.000 C 
ATOM      4  C   UNL     1      -3.672  12.663  20.379  0.00  0.00    +0.000 A 
ATOM      5  C   UNL     1      -5.008  12.360  20.108  0.00  0.00    +0.000 A 
ATOM      6  C   UNL     1      -5.455  11.883  18.863  0.00  0.00    +0.000 A 
ATOM      7  C   UNL     1      -4.513  11.669  17.840  0.00  0.00    +0.000 A 
ATOM      8  C   UNL     1      -3.122  11.886  18.135  0.00  0.00    +0.000 A 
ATOM      9  C   UNL     1      -2.689  12.402  19.407  0.00  0.00    +0.000 A 
ATOM     10  C   UNL     1      -1.250  12.721  19.726  0.00  0.00    +0.000 A 
ATOM     11  C   UNL     1      -0.476  13.487  18.830  0.00  0.00    +0.000 A 
ATOM     12  C   UNL     1       0.862  13.810  19.089  0.00  0.00    +0.000 A 
ATOM     13  C   UNL     1       1.471  13.394  20.271  0.00  0.00    +0.000 A 
ATOM     14  C   UNL     1       0.715  12.664  21.198  0.00  0.00    +0.000 A 
ATOM     15  C   UNL     1      -0.639  12.328  20.954  0.00  0.00    +0.000 A 
ENDROOT
BRANCH   1  18
ATOM     16  C   UNL     1      -0.171   9.719  23.215  0.00  0.00    +0.000 C 
ATOM     17  O   UNL     1       0.643   9.490  24.112  0.00  0.00    +0.000 OA
ATOM     18  N   UNL     1      -0.636  10.990  23.065  0.00  0.00    +0.000 N 
ATOM     19  H   UNL     1      -0.305  11.621  23.784  0.00  0.00    +0.000 HD
BRANCH  16  20
ATOM     20  C   UNL     1      -0.576   8.647  22.215  0.00  0.00    +0.000 C 
BRANCH  20  23
ATOM     21  C   UNL     1       1.016   8.551  20.354  0.00  0.00    +0.000 C 
ATOM     22  O   UNL     1       0.466   9.451  19.743  0.00  0.00    +0.000 OA
ATOM     23  N   UNL     1       0.613   8.107  21.584  0.00  0.00    +0.000 N 
ATOM     24  H   UNL     1       1.047   7.299  22.012  0.00  0.00    +0.000 HD
BRANCH  21  27
ATOM     25  C   UNL     1       3.519   7.039  17.848  0.00  0.00    +0.000 C 
ATOM     26  C   UNL     1       2.381   7.756  18.490  0.00  0.00    +0.000 C 
ATOM     27  C   UNL     1       2.188   7.811  19.818  0.00  0.00    +0.000 C 
ENDBRANCH  21  27
ENDBRANCH  20  23
ENDBRANCH  16  20
ENDBRANCH   1  18
BRANCH   6  28
ATOM     28  O   UNL     1      -6.815  11.818  18.922  0.00  0.00    +0.000 OA
ATOM     29  C   UNL     1      -7.541  11.160  19.927  0.00  0.00    +0.000 C 
ENDBRANCH   6  28
BRANCH   7  30
ATOM     30  O   UNL     1      -4.863  11.585  16.512  0.00  0.00    +0.000 OA
ATOM     31  C   UNL     1      -4.351  10.517  15.724  0.00  0.00    +0.000 C 
ENDBRANCH   7  30
BRANCH   8  32
ATOM     32  O   UNL     1      -2.063  11.679  17.276  0.00  0.00    +0.000 OA
ATOM     33  C   UNL     1      -1.476  10.404  17.115  0.00  0.00    +0.000 C 
ENDBRANCH   8  32
BRANCH  13  34
ATOM     34  C   UNL     1       2.904  13.750  20.504  0.00  0.00    +0.000 C 
ATOM     35  O   UNL     1       3.462  13.670  21.593  0.00  0.00    +0.000 OA
BRANCH  34  36
ATOM     36  O   UNL     1       3.476  14.194  19.354  0.00  0.00    +0.000 OA
ATOM     37  C   UNL     1       4.578  15.077  19.545  0.00  0.00    +0.000 C 
ENDBRANCH  34  36
ENDBRANCH  13  34
TORSDOF 9
ENDMDL
MODEL 8
REMARK VINA RESULT:      -6.0      2.830      6.070
REMARK  Name = 
REMARK  14 active torsions:
REMARK  status: ('A' for Active; 'I' for Inactive)
REMARK    1  A    between atoms: C_1  and  C_2
REMARK    2  A    between atoms: C_3  and  C_4
REMARK    3  A    between atoms: N_6  and  C_7
REMARK    4  A    between atoms: C_7  and  C_8
REMARK    5  A    between atoms: N_10  and  C_11
REMARK    6  A    between atoms: C_16  and  O_17
REMARK    7  A    between atoms: O_17  and  C_18
REMARK    8  A    between atoms: C_19  and  O_20
REMARK    9  A    between atoms: O_20  and  C_21
REMARK   10  A    between atoms: C_22  and  O_23
REMARK   11  A    between atoms: O_23  and  C_24
REMARK   12  A    between atoms: C_29  and  C_30
REMARK   13  A    between atoms: C_30  and  O_32
REMARK   14  A    between atoms: O_32  and  C_33
REMARK                            x       y       z     vdW  Elec       q    Type
REMARK                         _______ _______ _______ _____ _____    ______ ____
ROOT
ATOM      1  C   UNL     1       1.240  11.830  18.697  0.00  0.00    +0.000 C 
ATOM      2  C   UNL     1       1.747  13.194  18.202  0.00  0.00    +0.000 C 
ATOM      3  C   UNL     1       0.987  14.408  18.721  0.00  0.00    +0.000 C 
ATOM      4  C   UNL     1       0.633  14.313  20.184  0.00  0.00    +0.000 A 
ATOM      5  C   UNL     1       1.276  15.164  21.083  0.00  0.00    +0.000 A 
ATOM      6  C   UNL     1       0.929  15.258  22.443  0.00  0.00    +0.000 A 
ATOM      7  C   UNL     1      -0.099  14.434  22.939  0.00  0.00    +0.000 A 
ATOM      8  C   UNL     1      -0.705  13.484  22.045  0.00  0.00    +0.000 A 
ATOM      9  C   UNL     1      -0.355  13.426  20.650  0.00  0.00    +0.000 A 
ATOM     10  C   UNL     1      -1.025  12.503  19.664  0.00  0.00    +0.000 A 
ATOM     11  C   UNL     1      -2.432  12.424  19.608  0.00  0.00    +0.000 A 
ATOM     12  C   UNL     1      -3.097  11.584  18.704  0.00  0.00    +0.000 A 
ATOM     13  C   UNL     1      -2.372  10.803  17.806  0.00  0.00    +0.000 A 
ATOM     14  C   UNL     1      -0.972  10.889  17.814  0.00  0.00    +0.000 A 
ATOM     15  C   UNL     1      -0.284  11.732  18.719  0.00  0.00    +0.000 A 
ENDROOT
BRANCH   1  18
ATOM     16  C   UNL     1       2.090   9.486  18.154  0.00  0.00    +0.000 C 
ATOM     17  O   UNL     1       2.491   8.745  17.255  0.00  0.00    +0.000 OA
ATOM     18  N   UNL     1       1.873  10.800  17.870  0.00  0.00    +0.000 N 
ATOM     19  H   UNL     1       2.147  11.053  16.928  0.00  0.00    +0.000 HD
BRANCH  16  20
ATOM     20  C   UNL     1       1.732   8.946  19.530  0.00  0.00    +0.000 C 
BRANCH  20  23
ATOM     21  C   UNL     1       1.547   6.744  20.592  0.00  0.00    +0.000 C 
ATOM     22  O   UNL     1       0.790   7.146  21.458  0.00  0.00    +0.000 OA
ATOM     23  N   UNL     1       2.036   7.529  19.582  0.00  0.00    +0.000 N 
ATOM     24  H   UNL     1       2.729   7.172  18.938  0.00  0.00    +0.000 HD
BRANCH  21  27
ATOM     25  C   UNL     1       1.562   2.894  20.502  0.00  0.00    +0.000 C 
ATOM     26  C   UNL     1       1.168   4.331  20.544  0.00  0.00    +0.000 C 
ATOM     27  C   UNL     1       2.048   5.346  20.543  0.00  0.00    +0.000 C 
ENDBRANCH  21  27
ENDBRANCH  20  23
ENDBRANCH  16  20
ENDBRANCH   1  18
BRANCH   6  28
ATOM     28  O   UNL     1       1.672  16.266  22.980  0.00  0.00    +0.000 OA
ATOM     29  C   UNL     1       1.516  17.626  22.671  0.00  0.00    +0.000 C 
ENDBRANCH   6  28
BRANCH   7  30
ATOM     30  O   UNL     1      -0.769  14.704  24.110  0.00  0.00    +0.000 OA
ATOM     31  C   UNL     1      -1.628  15.836  24.175  0.00  0.00    +0.000 C 
ENDBRANCH   7  30
BRANCH   8  32
ATOM     32  O   UNL     1      -1.685  12.569  22.369  0.00  0.00    +0.000 OA
ATOM     33  C   UNL     1      -1.382  11.367  23.047  0.00  0.00    +0.000 C 
ENDBRANCH   8  32
BRANCH  13  34
ATOM     34  C   UNL     1      -3.118   9.911  16.867  0.00  0.00    +0.000 C 
ATOM     35  O   UNL     1      -4.137   9.299  17.166  0.00  0.00    +0.000 OA
BRANCH  34  36
ATOM     36  O   UNL     1      -2.490   9.860  15.663  0.00  0.00    +0.000 OA
ATOM     37  C   UNL     1      -3.307  10.232  14.555  0.00  0.00    +0.000 C 
ENDBRANCH  34  36
ENDBRANCH  13  34
TORSDOF 9
ENDMDL
MODEL 9
REMARK VINA RESULT:      -6.0      2.950      6.838
REMARK  Name = 
REMARK  14 active torsions:
REMARK  status: ('A' for Active; 'I' for Inactive)
REMARK    1  A    between atoms: C_1  and  C_2
REMARK    2  A    between atoms: C_3  and  C_4
REMARK    3  A    between atoms: N_6  and  C_7
REMARK    4  A    between atoms: C_7  and  C_8
REMARK    5  A    between atoms: N_10  and  C_11
REMARK    6  A    between atoms: C_16  and  O_17
REMARK    7  A    between atoms: O_17  and  C_18
REMARK    8  A    between atoms: C_19  and  O_20
REMARK    9  A    between atoms: O_20  and  C_21
REMARK   10  A    between atoms: C_22  and  O_23
REMARK   11  A    between atoms: O_23  and  C_24
REMARK   12  A    between atoms: C_29  and  C_30
REMARK   13  A    between atoms: C_30  and  O_32
REMARK   14  A    between atoms: O_32  and  C_33
REMARK                            x       y       z     vdW  Elec       q    Type
REMARK                         _______ _______ _______ _____ _____    ______ ____
ROOT
ATOM      1  C   UNL     1      -0.260  11.417  20.731  0.00  0.00    +0.000 C 
ATOM      2  C   UNL     1      -0.437  11.616  19.217  0.00  0.00    +0.000 C 
ATOM      3  C   UNL     1      -0.239  13.040  18.712  0.00  0.00    +0.000 C 
ATOM      4  C   UNL     1       0.930  13.746  19.351  0.00  0.00    +0.000 A 
ATOM      5  C   UNL     1       2.052  14.022  18.568  0.00  0.00    +0.000 A 
ATOM      6  C   UNL     1       3.140  14.792  19.019  0.00  0.00    +0.000 A 
ATOM      7  C   UNL     1       3.119  15.289  20.336  0.00  0.00    +0.000 A 
ATOM      8  C   UNL     1       2.015  14.931  21.184  0.00  0.00    +0.000 A 
ATOM      9  C   UNL     1       0.898  14.167  20.693  0.00  0.00    +0.000 A 
ATOM     10  C   UNL     1      -0.316  13.842  21.527  0.00  0.00    +0.000 A 
ATOM     11  C   UNL     1      -0.966  14.857  22.260  0.00  0.00    +0.000 A 
ATOM     12  C   UNL     1      -2.100  14.601  23.043  0.00  0.00    +0.000 A 
ATOM     13  C   UNL     1      -2.638  13.316  23.104  0.00  0.00    +0.000 A 
ATOM     14  C   UNL     1      -2.035  12.296  22.355  0.00  0.00    +0.000 A 
ATOM     15  C   UNL     1      -0.890  12.536  21.558  0.00  0.00    +0.000 A 
ENDROOT
BRANCH   1  18
ATOM     16  C   UNL     1      -0.102   8.961  21.403  0.00  0.00    +0.000 C 
ATOM     17  O   UNL     1      -0.739   7.986  21.808  0.00  0.00    +0.000 OA
ATOM     18  N   UNL     1      -0.783  10.089  21.063  0.00  0.00    +0.000 N 
ATOM     19  H   UNL     1      -1.788   9.976  21.111  0.00  0.00    +0.000 HD
BRANCH  16  20
ATOM     20  C   UNL     1       1.419   8.964  21.381  0.00  0.00    +0.000 C 
BRANCH  20  23
ATOM     21  C   UNL     1       2.172   7.471  19.590  0.00  0.00    +0.000 C 
ATOM     22  O   UNL     1       2.108   8.341  18.740  0.00  0.00    +0.000 OA
ATOM     23  N   UNL     1       1.894   7.676  20.914  0.00  0.00    +0.000 N 
ATOM     24  H   UNL     1       1.877   6.903  21.567  0.00  0.00    +0.000 HD
BRANCH  21  27
ATOM     25  C   UNL     1       3.291   4.364  17.608  0.00  0.00    +0.000 C 
ATOM     26  C   UNL     1       2.904   5.741  18.027  0.00  0.00    +0.000 C 
ATOM     27  C   UNL     1       2.543   6.065  19.279  0.00  0.00    +0.000 C 
ENDBRANCH  21  27
ENDBRANCH  20  23
ENDBRANCH  16  20
ENDBRANCH   1  18
BRANCH   6  28
ATOM     28  O   UNL     1       3.982  14.958  17.961  0.00  0.00    +0.000 OA
ATOM     29  C   UNL     1       5.336  14.590  17.951  0.00  0.00    +0.000 C 
ENDBRANCH   6  28
BRANCH   7  30
ATOM     30  O   UNL     1       3.906  16.340  20.746  0.00  0.00    +0.000 OA
ATOM     31  C   UNL     1       5.183  16.073  21.315  0.00  0.00    +0.000 C 
ENDBRANCH   7  30
BRANCH   8  32
ATOM     32  O   UNL     1       1.855  15.283  22.508  0.00  0.00    +0.000 OA
ATOM     33  C   UNL     1       1.822  16.635  22.917  0.00  0.00    +0.000 C 
ENDBRANCH   8  32
BRANCH  13  34
ATOM     34  C   UNL     1      -3.841  13.082  23.960  0.00  0.00    +0.000 C 
ATOM     35  O   UNL     1      -4.154  11.989  24.418  0.00  0.00    +0.000 OA
BRANCH  34  36
ATOM     36  O   UNL     1      -4.536  14.238  24.127  0.00  0.00    +0.000 OA
ATOM     37  C   UNL     1      -5.802  14.265  23.473  0.00  0.00    +0.000 C 
ENDBRANCH  34  36
ENDBRANCH  13  34
TORSDOF 9
ENDMDL
