MODEL 1
REMARK VINA RESULT:      -8.6      0.000      0.000
REMARK  Name = 
REMARK  8 active torsions:
REMARK  status: ('A' for Active; 'I' for Inactive)
REMARK    1  A    between atoms: C_1  and  N_2
REMARK    2  A    between atoms: C_5  and  C_6
REMARK    3  A    between atoms: C_9  and  C_10
REMARK    4  A    between atoms: C_14  and  N_15
REMARK    5  A    between atoms: N_15  and  C_16
REMARK    6  A    between atoms: C_16  and  C_17
REMARK    7  A    between atoms: C_21  and  C_22
REMARK    8  A    between atoms: C_21  and  C_23
REMARK                            x       y       z     vdW  Elec       q    Type
REMARK                         _______ _______ _______ _____ _____    ______ ____
ROOT
ATOM      1  C   UNL     1       0.554  13.218  20.728  0.00  0.00    +0.000 A 
ATOM      2  C   UNL     1       0.951  12.003  20.199  0.00  0.00    +0.000 A 
ATOM      3  C   UNL     1       0.497  10.962  21.054  0.00  0.00    +0.000 A 
ATOM      4  C   UNL     1       0.592   9.552  21.076  0.00  0.00    +0.000 A 
ATOM      5  C   UNL     1      -0.054   8.922  22.165  0.00  0.00    +0.000 A 
ATOM      6  C   UNL     1      -0.732   9.674  23.113  0.00  0.00    +0.000 A 
ATOM      7  N   UNL     1      -0.844  11.017  23.114  0.00  0.00    +0.000 NA
ATOM      8  C   UNL     1      -0.209  11.591  22.073  0.00  0.00    +0.000 A 
ATOM      9  N   UNL     1      -0.171  12.941  21.862  0.00  0.00    +0.000 N 
ATOM     10  H   UNL     1      -0.605  13.612  22.479  0.00  0.00    +0.000 HD
ENDROOT
BRANCH   1  15
ATOM     11  C   UNL     1       1.625  17.778  17.470  0.00  0.00    +0.000 C 
ATOM     12  N   UNL     1       1.340  16.470  18.058  0.00  0.00    +0.000 NA
ATOM     13  C   UNL     1       2.430  16.067  18.956  0.00  0.00    +0.000 C 
ATOM     14  C   UNL     1       2.178  14.680  19.538  0.00  0.00    +0.000 C 
ATOM     15  C   UNL     1       0.825  14.614  20.259  0.00  0.00    +0.000 C 
ATOM     16  C   UNL     1      -0.289  15.115  19.333  0.00  0.00    +0.000 C 
ATOM     17  C   UNL     1       0.049  16.489  18.756  0.00  0.00    +0.000 C 
ENDBRANCH   1  15
BRANCH   4  18
ATOM     18  C   UNL     1       1.286   8.807  20.009  0.00  0.00    +0.000 A 
ATOM     19  C   UNL     1       1.295   9.277  18.695  0.00  0.00    +0.000 A 
ATOM     20  C   UNL     1       1.982   8.562  17.725  0.00  0.00    +0.000 A 
ATOM     21  C   UNL     1       2.664   7.413  18.098  0.00  0.00    +0.000 A 
ATOM     22  C   UNL     1       2.618   6.974  19.419  0.00  0.00    +0.000 A 
ATOM     23  N   UNL     1       1.930   7.653  20.360  0.00  0.00    +0.000 NA
BRANCH  22  24
ATOM     24  N   UNL     1       3.328   5.799  19.717  0.00  0.00    +0.000 N 
ATOM     25  H   UNL     1       2.843   5.014  19.287  0.00  0.00    +0.000 HD
BRANCH  24  26
ATOM     26  C   UNL     1       4.770   5.783  19.482  0.00  0.00    +0.000 C 
BRANCH  26  27
ATOM     27  C   UNL     1       5.159   4.432  18.828  0.00  0.00    +0.000 C 
ATOM     28  C   UNL     1       3.985   3.573  18.332  0.00  0.00    +0.000 C 
ATOM     29  C   UNL     1       3.537   3.917  16.923  0.00  0.00    +0.000 C 
ATOM     30  O   UNL     1       4.628   3.846  16.013  0.00  0.00    +0.000 OA
ATOM     31  C   UNL     1       5.695   4.762  16.284  0.00  0.00    +0.000 C 
ATOM     32  C   UNL     1       6.816   4.392  15.295  0.00  0.00    +0.000 C 
ATOM     33  C   UNL     1       5.257   6.198  15.971  0.00  0.00    +0.000 C 
ATOM     34  C   UNL     1       6.224   4.581  17.723  0.00  0.00    +0.000 C 
ENDBRANCH  26  27
ENDBRANCH  24  26
ENDBRANCH  22  24
ENDBRANCH   4  18
TORSDOF 5
ENDMDL
MODEL 2
REMARK VINA RESULT:      -8.6      3.065      5.222
REMARK  Name = 
REMARK  8 active torsions:
REMARK  status: ('A' for Active; 'I' for Inactive)
REMARK    1  A    between atoms: C_1  and  N_2
REMARK    2  A    between atoms: C_5  and  C_6
REMARK    3  A    between atoms: C_9  and  C_10
REMARK    4  A    between atoms: C_14  and  N_15
REMARK    5  A    between atoms: N_15  and  C_16
REMARK    6  A    between atoms: C_16  and  C_17
REMARK    7  A    between atoms: C_21  and  C_22
REMARK    8  A    between atoms: C_21  and  C_23
REMARK                            x       y       z     vdW  Elec       q    Type
REMARK                         _______ _______ _______ _____ _____    ______ ____
ROOT
ATOM      1  C   UNL     1      -2.376  13.323  20.971  0.00  0.00    +0.000 A 
ATOM      2  C   UNL     1      -1.528  12.234  20.873  0.00  0.00    +0.000 A 
ATOM      3  C   UNL     1      -0.456  12.567  20.001  0.00  0.00    +0.000 A 
ATOM      4  C   UNL     1       0.686  11.904  19.496  0.00  0.00    +0.000 A 
ATOM      5  C   UNL     1       1.499  12.676  18.634  0.00  0.00    +0.000 A 
ATOM      6  C   UNL     1       1.167  13.992  18.344  0.00  0.00    +0.000 A 
ATOM      7  N   UNL     1       0.090  14.650  18.815  0.00  0.00    +0.000 NA
ATOM      8  C   UNL     1      -0.673  13.887  19.622  0.00  0.00    +0.000 A 
ATOM      9  N   UNL     1      -1.823  14.328  20.215  0.00  0.00    +0.000 N 
ATOM     10  H   UNL     1      -2.196  15.257  20.080  0.00  0.00    +0.000 HD
ENDROOT
BRANCH   1  15
ATOM     11  C   UNL     1      -7.321  12.260  23.612  0.00  0.00    +0.000 C 
ATOM     12  N   UNL     1      -6.035  12.251  22.917  0.00  0.00    +0.000 NA
ATOM     13  C   UNL     1      -6.144  12.951  21.631  0.00  0.00    +0.000 C 
ATOM     14  C   UNL     1      -4.827  12.905  20.865  0.00  0.00    +0.000 C 
ATOM     15  C   UNL     1      -3.675  13.477  21.701  0.00  0.00    +0.000 C 
ATOM     16  C   UNL     1      -3.626  12.790  23.071  0.00  0.00    +0.000 C 
ATOM     17  C   UNL     1      -4.988  12.840  23.761  0.00  0.00    +0.000 C 
ENDBRANCH   1  15
BRANCH   4  18
ATOM     18  C   UNL     1       1.009  10.519  19.884  0.00  0.00    +0.000 A 
ATOM     19  C   UNL     1       0.817  10.076  21.194  0.00  0.00    +0.000 A 
ATOM     20  C   UNL     1       1.108   8.758  21.513  0.00  0.00    +0.000 A 
ATOM     21  C   UNL     1       1.556   7.909  20.510  0.00  0.00    +0.000 A 
ATOM     22  C   UNL     1       1.745   8.397  19.219  0.00  0.00    +0.000 A 
ATOM     23  N   UNL     1       1.487   9.685  18.911  0.00  0.00    +0.000 NA
BRANCH  22  24
ATOM     24  N   UNL     1       2.208   7.479  18.262  0.00  0.00    +0.000 N 
ATOM     25  H   UNL     1       2.384   7.982  17.395  0.00  0.00    +0.000 HD
BRANCH  24  26
ATOM     26  C   UNL     1       3.297   6.579  18.636  0.00  0.00    +0.000 C 
BRANCH  26  27
ATOM     27  C   UNL     1       3.186   5.280  17.797  0.00  0.00    +0.000 C 
ATOM     28  C   UNL     1       4.368   4.306  17.922  0.00  0.00    +0.000 C 
ATOM     29  C   UNL     1       4.239   3.344  19.089  0.00  0.00    +0.000 C 
ATOM     30  O   UNL     1       3.009   2.632  19.025  0.00  0.00    +0.000 OA
ATOM     31  C   UNL     1       1.837   3.452  19.103  0.00  0.00    +0.000 C 
ATOM     32  C   UNL     1       0.652   2.502  18.844  0.00  0.00    +0.000 C 
ATOM     33  C   UNL     1       1.675   4.016  20.519  0.00  0.00    +0.000 C 
ATOM     34  C   UNL     1       1.850   4.538  18.006  0.00  0.00    +0.000 C 
ENDBRANCH  26  27
ENDBRANCH  24  26
ENDBRANCH  22  24
ENDBRANCH   4  18
TORSDOF 5
ENDMDL
MODEL 3
REMARK VINA RESULT:      -8.6      3.338      5.204
REMARK  Name = 
REMARK  8 active torsions:
REMARK  status: ('A' for Active; 'I' for Inactive)
REMARK    1  A    between atoms: C_1  and  N_2
REMARK    2  A    between atoms: C_5  and  C_6
REMARK    3  A    between atoms: C_9  and  C_10
REMARK    4  A    between atoms: C_14  and  N_15
REMARK    5  A    between atoms: N_15  and  C_16
REMARK    6  A    between atoms: C_16  and  C_17
REMARK    7  A    between atoms: C_21  and  C_22
REMARK    8  A    between atoms: C_21  and  C_23
REMARK                            x       y       z     vdW  Elec       q    Type
REMARK                         _______ _______ _______ _____ _____    ______ ____
ROOT
ATOM      1  C   UNL     1      -2.556  12.671  19.670  0.00  0.00    +0.000 A 
ATOM      2  C   UNL     1      -1.642  11.640  19.797  0.00  0.00    +0.000 A 
ATOM      3  C   UNL     1      -0.349  12.133  19.470  0.00  0.00    +0.000 A 
ATOM      4  C   UNL     1       0.954  11.591  19.393  0.00  0.00    +0.000 A 
ATOM      5  C   UNL     1       1.966  12.506  19.020  0.00  0.00    +0.000 A 
ATOM      6  C   UNL     1       1.655  13.836  18.770  0.00  0.00    +0.000 A 
ATOM      7  N   UNL     1       0.425  14.380  18.842  0.00  0.00    +0.000 NA
ATOM      8  C   UNL     1      -0.520  13.483  19.186  0.00  0.00    +0.000 A 
ATOM      9  N   UNL     1      -1.845  13.792  19.315  0.00  0.00    +0.000 N 
ATOM     10  H   UNL     1      -2.218  14.715  19.147  0.00  0.00    +0.000 HD
ENDROOT
BRANCH   1  15
ATOM     11  C   UNL     1      -7.916  11.180  20.934  0.00  0.00    +0.000 C 
ATOM     12  N   UNL     1      -6.475  11.315  20.731  0.00  0.00    +0.000 NA
ATOM     13  C   UNL     1      -6.169  11.413  19.298  0.00  0.00    +0.000 C 
ATOM     14  C   UNL     1      -4.665  11.499  19.061  0.00  0.00    +0.000 C 
ATOM     15  C   UNL     1      -4.045  12.672  19.832  0.00  0.00    +0.000 C 
ATOM     16  C   UNL     1      -4.441  12.597  21.311  0.00  0.00    +0.000 C 
ATOM     17  C   UNL     1      -5.956  12.473  21.471  0.00  0.00    +0.000 C 
ENDBRANCH   1  15
BRANCH   4  18
ATOM     18  C   UNL     1       1.225  10.179  19.720  0.00  0.00    +0.000 A 
ATOM     19  C   UNL     1       0.841   9.640  20.950  0.00  0.00    +0.000 A 
ATOM     20  C   UNL     1       1.089   8.301  21.209  0.00  0.00    +0.000 A 
ATOM     21  C   UNL     1       1.688   7.528  20.225  0.00  0.00    +0.000 A 
ATOM     22  C   UNL     1       2.066   8.109  19.017  0.00  0.00    +0.000 A 
ATOM     23  N   UNL     1       1.849   9.418  18.771  0.00  0.00    +0.000 NA
BRANCH  22  24
ATOM     24  N   UNL     1       2.674   7.264  18.074  0.00  0.00    +0.000 N 
ATOM     25  H   UNL     1       3.122   7.842  17.367  0.00  0.00    +0.000 HD
BRANCH  24  26
ATOM     26  C   UNL     1       3.530   6.185  18.563  0.00  0.00    +0.000 C 
BRANCH  26  27
ATOM     27  C   UNL     1       3.268   4.913  17.716  0.00  0.00    +0.000 C 
ATOM     28  C   UNL     1       4.346   3.821  17.807  0.00  0.00    +0.000 C 
ATOM     29  C   UNL     1       4.142   2.866  18.970  0.00  0.00    +0.000 C 
ATOM     30  O   UNL     1       2.844   2.285  18.927  0.00  0.00    +0.000 OA
ATOM     31  C   UNL     1       1.765   3.221  19.037  0.00  0.00    +0.000 C 
ATOM     32  C   UNL     1       0.484   2.401  18.796  0.00  0.00    +0.000 C 
ATOM     33  C   UNL     1       1.692   3.785  20.461  0.00  0.00    +0.000 C 
ATOM     34  C   UNL     1       1.868   4.310  17.948  0.00  0.00    +0.000 C 
ENDBRANCH  26  27
ENDBRANCH  24  26
ENDBRANCH  22  24
ENDBRANCH   4  18
TORSDOF 5
ENDMDL
MODEL 4
REMARK VINA RESULT:      -8.5      2.498      3.262
REMARK  Name = 
REMARK  8 active torsions:
REMARK  status: ('A' for Active; 'I' for Inactive)
REMARK    1  A    between atoms: C_1  and  N_2
REMARK    2  A    between atoms: C_5  and  C_6
REMARK    3  A    between atoms: C_9  and  C_10
REMARK    4  A    between atoms: C_14  and  N_15
REMARK    5  A    between atoms: N_15  and  C_16
REMARK    6  A    between atoms: C_16  and  C_17
REMARK    7  A    between atoms: C_21  and  C_22
REMARK    8  A    between atoms: C_21  and  C_23
REMARK                            x       y       z     vdW  Elec       q    Type
REMARK                         _______ _______ _______ _____ _____    ______ ____
ROOT
ATOM      1  C   UNL     1       1.549  14.053  19.012  0.00  0.00    +0.000 A 
ATOM      2  C   UNL     1       1.759  12.689  18.923  0.00  0.00    +0.000 A 
ATOM      3  C   UNL     1       0.501  12.028  18.967  0.00  0.00    +0.000 A 
ATOM      4  C   UNL     1       0.057  10.687  18.938  0.00  0.00    +0.000 A 
ATOM      5  C   UNL     1      -1.346  10.515  18.996  0.00  0.00    +0.000 A 
ATOM      6  C   UNL     1      -2.188  11.617  19.063  0.00  0.00    +0.000 A 
ATOM      7  N   UNL     1      -1.793  12.905  19.086  0.00  0.00    +0.000 NA
ATOM      8  C   UNL     1      -0.453  13.037  19.042  0.00  0.00    +0.000 A 
ATOM      9  N   UNL     1       0.189  14.244  19.063  0.00  0.00    +0.000 N 
ATOM     10  H   UNL     1      -0.295  15.128  19.127  0.00  0.00    +0.000 HD
ENDROOT
BRANCH   1  15
ATOM     11  C   UNL     1       6.330  17.113  19.588  0.00  0.00    +0.000 C 
ATOM     12  N   UNL     1       5.274  16.107  19.482  0.00  0.00    +0.000 NA
ATOM     13  C   UNL     1       4.261  16.319  20.523  0.00  0.00    +0.000 C 
ATOM     14  C   UNL     1       3.179  15.246  20.464  0.00  0.00    +0.000 C 
ATOM     15  C   UNL     1       2.530  15.183  19.076  0.00  0.00    +0.000 C 
ATOM     16  C   UNL     1       3.609  15.042  17.996  0.00  0.00    +0.000 C 
ATOM     17  C   UNL     1       4.678  16.124  18.141  0.00  0.00    +0.000 C 
ENDBRANCH   1  15
BRANCH   4  18
ATOM     18  C   UNL     1       1.002   9.562  18.815  0.00  0.00    +0.000 A 
ATOM     19  C   UNL     1       1.807   9.420  17.684  0.00  0.00    +0.000 A 
ATOM     20  C   UNL     1       2.703   8.364  17.619  0.00  0.00    +0.000 A 
ATOM     21  C   UNL     1       2.792   7.493  18.695  0.00  0.00    +0.000 A 
ATOM     22  C   UNL     1       1.961   7.665  19.800  0.00  0.00    +0.000 A 
ATOM     23  N   UNL     1       1.070   8.677  19.856  0.00  0.00    +0.000 NA
BRANCH  22  24
ATOM     24  N   UNL     1       2.105   6.739  20.846  0.00  0.00    +0.000 N 
ATOM     25  H   UNL     1       2.014   7.236  21.729  0.00  0.00    +0.000 HD
BRANCH  24  26
ATOM     26  C   UNL     1       1.317   5.509  20.794  0.00  0.00    +0.000 C 
BRANCH  26  27
ATOM     27  C   UNL     1       2.276   4.294  20.895  0.00  0.00    +0.000 C 
ATOM     28  C   UNL     1       1.599   2.933  21.122  0.00  0.00    +0.000 C 
ATOM     29  C   UNL     1       1.166   2.251  19.837  0.00  0.00    +0.000 C 
ATOM     30  O   UNL     1       2.261   2.122  18.937  0.00  0.00    +0.000 OA
ATOM     31  C   UNL     1       2.835   3.363  18.510  0.00  0.00    +0.000 C 
ATOM     32  C   UNL     1       4.086   2.979  17.698  0.00  0.00    +0.000 C 
ATOM     33  C   UNL     1       1.876   4.096  17.565  0.00  0.00    +0.000 C 
ATOM     34  C   UNL     1       3.273   4.213  19.722  0.00  0.00    +0.000 C 
ENDBRANCH  26  27
ENDBRANCH  24  26
ENDBRANCH  22  24
ENDBRANCH   4  18
TORSDOF 5
ENDMDL
MODEL 5
REMARK VINA RESULT:      -8.5      3.657     10.005
REMARK  Name = 
REMARK  8 active torsions:
REMARK  status: ('A' for Active; 'I' for Inactive)
REMARK    1  A    between atoms: C_1  and  N_2
REMARK    2  A    between atoms: C_5  and  C_6
REMARK    3  A    between atoms: C_9  and  C_10
REMARK    4  A    between atoms: C_14  and  N_15
REMARK    5  A    between atoms: N_15  and  C_16
REMARK    6  A    between atoms: C_16  and  C_17
REMARK    7  A    between atoms: C_21  and  C_22
REMARK    8  A    between atoms: C_21  and  C_23
REMARK                            x       y       z     vdW  Elec       q    Type
REMARK                         _______ _______ _______ _____ _____    ______ ____
ROOT
ATOM      1  C   UNL     1       4.972   4.313  17.544  0.00  0.00    +0.000 A 
ATOM      2  C   UNL     1       4.214   5.408  17.918  0.00  0.00    +0.000 A 
ATOM      3  C   UNL     1       3.418   5.051  19.041  0.00  0.00    +0.000 A 
ATOM      4  C   UNL     1       2.456   5.697  19.850  0.00  0.00    +0.000 A 
ATOM      5  C   UNL     1       1.926   4.910  20.899  0.00  0.00    +0.000 A 
ATOM      6  C   UNL     1       2.360   3.606  21.090  0.00  0.00    +0.000 A 
ATOM      7  N   UNL     1       3.279   2.968  20.339  0.00  0.00    +0.000 NA
ATOM      8  C   UNL     1       3.757   3.736  19.341  0.00  0.00    +0.000 A 
ATOM      9  N   UNL     1       4.692   3.309  18.440  0.00  0.00    +0.000 N 
ATOM     10  H   UNL     1       5.084   2.379  18.446  0.00  0.00    +0.000 HD
ENDROOT
BRANCH   1  15
ATOM     11  C   UNL     1       7.894   5.074  12.703  0.00  0.00    +0.000 C 
ATOM     12  N   UNL     1       7.031   5.130  13.882  0.00  0.00    +0.000 NA
ATOM     13  C   UNL     1       6.090   4.004  13.879  0.00  0.00    +0.000 C 
ATOM     14  C   UNL     1       5.143   4.075  15.073  0.00  0.00    +0.000 C 
ATOM     15  C   UNL     1       5.918   4.136  16.396  0.00  0.00    +0.000 C 
ATOM     16  C   UNL     1       6.952   5.267  16.350  0.00  0.00    +0.000 C 
ATOM     17  C   UNL     1       7.837   5.154  15.109  0.00  0.00    +0.000 C 
ENDBRANCH   1  15
BRANCH   4  18
ATOM     18  C   UNL     1       2.075   7.103  19.624  0.00  0.00    +0.000 A 
ATOM     19  C   UNL     1       2.107   7.660  18.345  0.00  0.00    +0.000 A 
ATOM     20  C   UNL     1       1.715   8.978  18.170  0.00  0.00    +0.000 A 
ATOM     21  C   UNL     1       1.274   9.698  19.271  0.00  0.00    +0.000 A 
ATOM     22  C   UNL     1       1.269   9.107  20.532  0.00  0.00    +0.000 A 
ATOM     23  N   UNL     1       1.674   7.832  20.711  0.00  0.00    +0.000 NA
BRANCH  22  24
ATOM     24  N   UNL     1       0.816   9.901  21.598  0.00  0.00    +0.000 N 
ATOM     25  H   UNL     1       1.512  10.621  21.779  0.00  0.00    +0.000 HD
BRANCH  24  26
ATOM     26  C   UNL     1      -0.549  10.420  21.544  0.00  0.00    +0.000 C 
BRANCH  26  27
ATOM     27  C   UNL     1      -0.496  11.946  21.275  0.00  0.00    +0.000 C 
ATOM     28  C   UNL     1      -1.386  12.449  20.128  0.00  0.00    +0.000 C 
ATOM     29  C   UNL     1      -2.809  12.759  20.557  0.00  0.00    +0.000 C 
ATOM     30  O   UNL     1      -2.823  13.680  21.641  0.00  0.00    +0.000 OA
ATOM     31  C   UNL     1      -2.182  13.212  22.833  0.00  0.00    +0.000 C 
ATOM     32  C   UNL     1      -2.167  14.417  23.792  0.00  0.00    +0.000 C 
ATOM     33  C   UNL     1      -3.019  12.108  23.490  0.00  0.00    +0.000 C 
ATOM     34  C   UNL     1      -0.725  12.790  22.546  0.00  0.00    +0.000 C 
ENDBRANCH  26  27
ENDBRANCH  24  26
ENDBRANCH  22  24
ENDBRANCH   4  18
TORSDOF 5
ENDMDL
MODEL 6
REMARK VINA RESULT:      -8.4      0.954      1.417
REMARK  Name = 
REMARK  8 active torsions:
REMARK  status: ('A' for Active; 'I' for Inactive)
REMARK    1  A    between atoms: C_1  and  N_2
REMARK    2  A    between atoms: C_5  and  C_6
REMARK    3  A    between atoms: C_9  and  C_10
REMARK    4  A    between atoms: C_14  and  N_15
REMARK    5  A    between atoms: N_15  and  C_16
REMARK    6  A    between atoms: C_16  and  C_17
REMARK    7  A    between atoms: C_21  and  C_22
REMARK    8  A    between atoms: C_21  and  C_23
REMARK                            x       y       z     vdW  Elec       q    Type
REMARK                         _______ _______ _______ _____ _____    ______ ____
ROOT
ATOM      1  C   UNL     1       0.741  13.274  20.727  0.00  0.00    +0.000 A 
ATOM      2  C   UNL     1       1.087  12.062  20.158  0.00  0.00    +0.000 A 
ATOM      3  C   UNL     1       0.625  11.013  21.001  0.00  0.00    +0.000 A 
ATOM      4  C   UNL     1       0.677   9.601  20.985  0.00  0.00    +0.000 A 
ATOM      5  C   UNL     1       0.042   8.963  22.076  0.00  0.00    +0.000 A 
ATOM      6  C   UNL     1      -0.587   9.712  23.061  0.00  0.00    +0.000 A 
ATOM      7  N   UNL     1      -0.658  11.057  23.097  0.00  0.00    +0.000 NA
ATOM      8  C   UNL     1      -0.033  11.638  22.054  0.00  0.00    +0.000 A 
ATOM      9  N   UNL     1       0.040  12.991  21.874  0.00  0.00    +0.000 N 
ATOM     10  H   UNL     1      -0.357  13.658  22.520  0.00  0.00    +0.000 HD
ENDROOT
BRANCH   1  15
ATOM     11  C   UNL     1       0.950  18.142  17.758  0.00  0.00    +0.000 C 
ATOM     12  N   UNL     1       0.723  16.808  18.312  0.00  0.00    +0.000 NA
ATOM     13  C   UNL     1       1.991  16.074  18.409  0.00  0.00    +0.000 C 
ATOM     14  C   UNL     1       1.770  14.660  18.934  0.00  0.00    +0.000 C 
ATOM     15  C   UNL     1       1.043  14.673  20.285  0.00  0.00    +0.000 C 
ATOM     16  C   UNL     1      -0.238  15.511  20.186  0.00  0.00    +0.000 C 
ATOM     17  C   UNL     1       0.054  16.898  19.616  0.00  0.00    +0.000 C 
ENDBRANCH   1  15
BRANCH   4  18
ATOM     18  C   UNL     1       1.319   8.863  19.882  0.00  0.00    +0.000 A 
ATOM     19  C   UNL     1       1.180   9.286  18.559  0.00  0.00    +0.000 A 
ATOM     20  C   UNL     1       1.822   8.581  17.552  0.00  0.00    +0.000 A 
ATOM     21  C   UNL     1       2.607   7.489  17.894  0.00  0.00    +0.000 A 
ATOM     22  C   UNL     1       2.707   7.094  19.226  0.00  0.00    +0.000 A 
ATOM     23  N   UNL     1       2.064   7.763  20.206  0.00  0.00    +0.000 NA
BRANCH  22  24
ATOM     24  N   UNL     1       3.513   5.975  19.492  0.00  0.00    +0.000 N 
ATOM     25  H   UNL     1       3.015   5.367  20.139  0.00  0.00    +0.000 HD
BRANCH  24  26
ATOM     26  C   UNL     1       4.096   5.258  18.360  0.00  0.00    +0.000 C 
BRANCH  26  27
ATOM     27  C   UNL     1       5.302   6.068  17.818  0.00  0.00    +0.000 C 
ATOM     28  C   UNL     1       6.637   5.837  18.543  0.00  0.00    +0.000 C 
ATOM     29  C   UNL     1       7.423   4.656  18.003  0.00  0.00    +0.000 C 
ATOM     30  O   UNL     1       7.631   4.784  16.602  0.00  0.00    +0.000 OA
ATOM     31  C   UNL     1       6.433   4.808  15.818  0.00  0.00    +0.000 C 
ATOM     32  C   UNL     1       6.888   5.122  14.380  0.00  0.00    +0.000 C 
ATOM     33  C   UNL     1       5.778   3.421  15.803  0.00  0.00    +0.000 C 
ATOM     34  C   UNL     1       5.485   5.930  16.293  0.00  0.00    +0.000 C 
ENDBRANCH  26  27
ENDBRANCH  24  26
ENDBRANCH  22  24
ENDBRANCH   4  18
TORSDOF 5
ENDMDL
MODEL 7
REMARK VINA RESULT:      -8.4      3.458      4.685
REMARK  Name = 
REMARK  8 active torsions:
REMARK  status: ('A' for Active; 'I' for Inactive)
REMARK    1  A    between atoms: C_1  and  N_2
REMARK    2  A    between atoms: C_5  and  C_6
REMARK    3  A    between atoms: C_9  and  C_10
REMARK    4  A    between atoms: C_14  and  N_15
REMARK    5  A    between atoms: N_15  and  C_16
REMARK    6  A    between atoms: C_16  and  C_17
REMARK    7  A    between atoms: C_21  and  C_22
REMARK    8  A    between atoms: C_21  and  C_23
REMARK                            x       y       z     vdW  Elec       q    Type
REMARK                         _______ _______ _______ _____ _____    ______ ____
ROOT
ATOM      1  C   UNL     1      -2.335  11.836  18.990  0.00  0.00    +0.000 A 
ATOM      2  C   UNL     1      -1.402  10.836  19.193  0.00  0.00    +0.000 A 
ATOM      3  C   UNL     1      -0.109  11.352  18.906  0.00  0.00    +0.000 A 
ATOM      4  C   UNL     1       1.210  10.844  18.904  0.00  0.00    +0.000 A 
ATOM      5  C   UNL     1       2.213  11.773  18.545  0.00  0.00    +0.000 A 
ATOM      6  C   UNL     1       1.881  13.085  18.236  0.00  0.00    +0.000 A 
ATOM      7  N   UNL     1       0.634  13.598  18.235  0.00  0.00    +0.000 NA
ATOM      8  C   UNL     1      -0.302  12.687  18.569  0.00  0.00    +0.000 A 
ATOM      9  N   UNL     1      -1.639  12.964  18.629  0.00  0.00    +0.000 N 
ATOM     10  H   UNL     1      -2.027  13.871  18.413  0.00  0.00    +0.000 HD
ENDROOT
BRANCH   1  15
ATOM     11  C   UNL     1      -7.869  13.167  18.591  0.00  0.00    +0.000 C 
ATOM     12  N   UNL     1      -6.411  13.066  18.550  0.00  0.00    +0.000 NA
ATOM     13  C   UNL     1      -5.862  13.056  19.911  0.00  0.00    +0.000 C 
ATOM     14  C   UNL     1      -4.338  13.007  19.890  0.00  0.00    +0.000 C 
ATOM     15  C   UNL     1      -3.830  11.802  19.088  0.00  0.00    +0.000 C 
ATOM     16  C   UNL     1      -4.475  11.785  17.697  0.00  0.00    +0.000 C 
ATOM     17  C   UNL     1      -5.997  11.877  17.795  0.00  0.00    +0.000 C 
ENDBRANCH   1  15
BRANCH   4  18
ATOM     18  C   UNL     1       1.502   9.451  19.291  0.00  0.00    +0.000 A 
ATOM     19  C   UNL     1       1.212   8.987  20.575  0.00  0.00    +0.000 A 
ATOM     20  C   UNL     1       1.476   7.663  20.892  0.00  0.00    +0.000 A 
ATOM     21  C   UNL     1       1.998   6.830  19.912  0.00  0.00    +0.000 A 
ATOM     22  C   UNL     1       2.284   7.339  18.647  0.00  0.00    +0.000 A 
ATOM     23  N   UNL     1       2.051   8.633  18.343  0.00  0.00    +0.000 NA
BRANCH  22  24
ATOM     24  N   UNL     1       2.816   6.437  17.711  0.00  0.00    +0.000 N 
ATOM     25  H   UNL     1       2.226   6.449  16.883  0.00  0.00    +0.000 HD
BRANCH  24  26
ATOM     26  C   UNL     1       4.242   6.521  17.404  0.00  0.00    +0.000 C 
BRANCH  26  27
ATOM     27  C   UNL     1       4.932   5.208  17.858  0.00  0.00    +0.000 C 
ATOM     28  C   UNL     1       5.507   4.337  16.730  0.00  0.00    +0.000 C 
ATOM     29  C   UNL     1       6.919   4.723  16.327  0.00  0.00    +0.000 C 
ATOM     30  O   UNL     1       7.787   4.719  17.454  0.00  0.00    +0.000 OA
ATOM     31  C   UNL     1       7.438   5.653  18.482  0.00  0.00    +0.000 C 
ATOM     32  C   UNL     1       8.395   5.354  19.651  0.00  0.00    +0.000 C 
ATOM     33  C   UNL     1       7.713   7.087  18.015  0.00  0.00    +0.000 C 
ATOM     34  C   UNL     1       5.987   5.430  18.960  0.00  0.00    +0.000 C 
ENDBRANCH  26  27
ENDBRANCH  24  26
ENDBRANCH  22  24
ENDBRANCH   4  18
TORSDOF 5
ENDMDL
MODEL 8
REMARK VINA RESULT:      -8.4      3.567     10.059
REMARK  Name = 
REMARK  8 active torsions:
REMARK  status: ('A' for Active; 'I' for Inactive)
REMARK    1  A    between atoms: C_1  and  N_2
REMARK    2  A    between atoms: C_5  and  C_6
REMARK    3  A    between atoms: C_9  and  C_10
REMARK    4  A    between atoms: C_14  and  N_15
REMARK    5  A    between atoms: N_15  and  C_16
REMARK    6  A    between atoms: C_16  and  C_17
REMARK    7  A    between atoms: C_21  and  C_22
REMARK    8  A    between atoms: C_21  and  C_23
REMARK                            x       y       z     vdW  Elec       q    Type
REMARK                         _______ _______ _______ _____ _____    ______ ____
ROOT
ATOM      1  C   UNL     1       4.934   4.445  17.542  0.00  0.00    +0.000 A 
ATOM      2  C   UNL     1       4.174   5.549  17.882  0.00  0.00    +0.000 A 
ATOM      3  C   UNL     1       3.373   5.223  19.010  0.00  0.00    +0.000 A 
ATOM      4  C   UNL     1       2.407   5.891  19.796  0.00  0.00    +0.000 A 
ATOM      5  C   UNL     1       1.870   5.135  20.863  0.00  0.00    +0.000 A 
ATOM      6  C   UNL     1       2.303   3.836  21.093  0.00  0.00    +0.000 A 
ATOM      7  N   UNL     1       3.225   3.177  20.364  0.00  0.00    +0.000 NA
ATOM      8  C   UNL     1       3.709   3.918  19.347  0.00  0.00    +0.000 A 
ATOM      9  N   UNL     1       4.648   3.466  18.463  0.00  0.00    +0.000 N 
ATOM     10  H   UNL     1       5.041   2.536  18.497  0.00  0.00    +0.000 HD
ENDROOT
BRANCH   1  15
ATOM     11  C   UNL     1       7.869   5.061  12.688  0.00  0.00    +0.000 C 
ATOM     12  N   UNL     1       7.001   5.152  13.861  0.00  0.00    +0.000 NA
ATOM     13  C   UNL     1       6.068   4.018  13.894  0.00  0.00    +0.000 C 
ATOM     14  C   UNL     1       5.117   4.123  15.081  0.00  0.00    +0.000 C 
ATOM     15  C   UNL     1       5.886   4.235  16.404  0.00  0.00    +0.000 C 
ATOM     16  C   UNL     1       6.910   5.373  16.323  0.00  0.00    +0.000 C 
ATOM     17  C   UNL     1       7.801   5.225  15.090  0.00  0.00    +0.000 C 
ENDBRANCH   1  15
BRANCH   4  18
ATOM     18  C   UNL     1       2.027   7.291  19.530  0.00  0.00    +0.000 A 
ATOM     19  C   UNL     1       2.272   7.878  18.288  0.00  0.00    +0.000 A 
ATOM     20  C   UNL     1       1.875   9.189  18.068  0.00  0.00    +0.000 A 
ATOM     21  C   UNL     1       1.220   9.870  19.084  0.00  0.00    +0.000 A 
ATOM     22  C   UNL     1       1.007   9.250  20.313  0.00  0.00    +0.000 A 
ATOM     23  N   UNL     1       1.414   7.983  20.539  0.00  0.00    +0.000 NA
BRANCH  22  24
ATOM     24  N   UNL     1       0.344  10.006  21.293  0.00  0.00    +0.000 N 
ATOM     25  H   UNL     1       0.947  10.070  22.110  0.00  0.00    +0.000 HD
BRANCH  24  26
ATOM     26  C   UNL     1      -0.235  11.289  20.902  0.00  0.00    +0.000 C 
BRANCH  26  27
ATOM     27  C   UNL     1      -0.544  12.111  22.180  0.00  0.00    +0.000 C 
ATOM     28  C   UNL     1      -0.183  13.603  22.114  0.00  0.00    +0.000 C 
ATOM     29  C   UNL     1      -1.280  14.465  21.515  0.00  0.00    +0.000 C 
ATOM     30  O   UNL     1      -2.507  14.279  22.210  0.00  0.00    +0.000 OA
ATOM     31  C   UNL     1      -3.029  12.946  22.158  0.00  0.00    +0.000 C 
ATOM     32  C   UNL     1      -4.244  12.942  23.105  0.00  0.00    +0.000 C 
ATOM     33  C   UNL     1      -3.540  12.629  20.748  0.00  0.00    +0.000 C 
ATOM     34  C   UNL     1      -1.992  11.928  22.680  0.00  0.00    +0.000 C 
ENDBRANCH  26  27
ENDBRANCH  24  26
ENDBRANCH  22  24
ENDBRANCH   4  18
TORSDOF 5
ENDMDL
MODEL 9
REMARK VINA RESULT:      -8.2      1.549      2.307
REMARK  Name = 
REMARK  8 active torsions:
REMARK  status: ('A' for Active; 'I' for Inactive)
REMARK    1  A    between atoms: C_1  and  N_2
REMARK    2  A    between atoms: C_5  and  C_6
REMARK    3  A    between atoms: C_9  and  C_10
REMARK    4  A    between atoms: C_14  and  N_15
REMARK    5  A    between atoms: N_15  and  C_16
REMARK    6  A    between atoms: C_16  and  C_17
REMARK    7  A    between atoms: C_21  and  C_22
REMARK    8  A    between atoms: C_21  and  C_23
REMARK                            x       y       z     vdW  Elec       q    Type
REMARK                         _______ _______ _______ _____ _____    ______ ____
ROOT
ATOM      1  C   UNL     1       0.870  12.349  19.815  0.00  0.00    +0.000 A 
ATOM      2  C   UNL     1       1.169  10.999  19.788  0.00  0.00    +0.000 A 
ATOM      3  C   UNL     1       0.648  10.392  20.964  0.00  0.00    +0.000 A 
ATOM      4  C   UNL     1       0.637   9.091  21.515  0.00  0.00    +0.000 A 
ATOM      5  C   UNL     1      -0.041   8.965  22.749  0.00  0.00    +0.000 A 
ATOM      6  C   UNL     1      -0.649  10.067  23.334  0.00  0.00    +0.000 A 
ATOM      7  N   UNL     1      -0.660  11.316  22.829  0.00  0.00    +0.000 NA
ATOM      8  C   UNL     1       0.004  11.409  21.660  0.00  0.00    +0.000 A 
ATOM      9  N   UNL     1       0.141  12.574  20.958  0.00  0.00    +0.000 N 
ATOM     10  H   UNL     1      -0.235  13.457  21.271  0.00  0.00    +0.000 HD
ENDROOT
BRANCH   1  15
ATOM     11  C   UNL     1       3.045  17.105  17.532  0.00  0.00    +0.000 C 
ATOM     12  N   UNL     1       2.625  15.968  18.350  0.00  0.00    +0.000 NA
ATOM     13  C   UNL     1       1.162  15.937  18.468  0.00  0.00    +0.000 C 
ATOM     14  C   UNL     1       0.706  14.791  19.364  0.00  0.00    +0.000 C 
ATOM     15  C   UNL     1       1.241  13.443  18.862  0.00  0.00    +0.000 C 
ATOM     16  C   UNL     1       2.760  13.519  18.667  0.00  0.00    +0.000 C 
ATOM     17  C   UNL     1       3.145  14.712  17.794  0.00  0.00    +0.000 C 
ENDBRANCH   1  15
BRANCH   4  18
ATOM     18  C   UNL     1       1.260   7.951  20.818  0.00  0.00    +0.000 A 
ATOM     19  C   UNL     1       1.086   6.645  21.278  0.00  0.00    +0.000 A 
ATOM     20  C   UNL     1       1.666   5.597  20.579  0.00  0.00    +0.000 A 
ATOM     21  C   UNL     1       2.380   5.877  19.423  0.00  0.00    +0.000 A 
ATOM     22  C   UNL     1       2.540   7.197  19.006  0.00  0.00    +0.000 A 
ATOM     23  N   UNL     1       1.998   8.221  19.698  0.00  0.00    +0.000 NA
BRANCH  22  24
ATOM     24  N   UNL     1       3.282   7.400  17.831  0.00  0.00    +0.000 N 
ATOM     25  H   UNL     1       3.867   8.223  17.960  0.00  0.00    +0.000 HD
BRANCH  24  26
ATOM     26  C   UNL     1       4.004   6.264  17.263  0.00  0.00    +0.000 C 
BRANCH  26  27
ATOM     27  C   UNL     1       5.250   6.789  16.503  0.00  0.00    +0.000 C 
ATOM     28  C   UNL     1       6.549   6.852  17.322  0.00  0.00    +0.000 C 
ATOM     29  C   UNL     1       7.327   5.549  17.324  0.00  0.00    +0.000 C 
ATOM     30  O   UNL     1       7.594   5.115  15.996  0.00  0.00    +0.000 OA
ATOM     31  C   UNL     1       6.429   4.837  15.211  0.00  0.00    +0.000 C 
ATOM     32  C   UNL     1       6.948   4.558  13.788  0.00  0.00    +0.000 C 
ATOM     33  C   UNL     1       5.742   3.560  15.711  0.00  0.00    +0.000 C 
ATOM     34  C   UNL     1       5.490   6.062  15.165  0.00  0.00    +0.000 C 
ENDBRANCH  26  27
ENDBRANCH  24  26
ENDBRANCH  22  24
ENDBRANCH   4  18
TORSDOF 5
ENDMDL
