MODEL 1
REMARK VINA RESULT:      -9.5      0.000      0.000
REMARK  Name = 
REMARK  5 active torsions:
REMARK  status: ('A' for Active; 'I' for Inactive)
REMARK    1  A    between atoms: C_1  and  C_2
REMARK    2  A    between atoms: C_6  and  N_7
REMARK    3  A    between atoms: N_7  and  S_8
REMARK    4  A    between atoms: S_8  and  C_11
REMARK    5  A    between atoms: C_16  and  C_18
REMARK                            x       y       z     vdW  Elec       q    Type
REMARK                         _______ _______ _______ _____ _____    ______ ____
ROOT
ATOM      1  C   UNL     1       6.434   5.150  17.670  0.00  0.00    +0.000 A 
ATOM      2  N   UNL     1       7.393   4.667  18.430  0.00  0.00    +0.000 NA
ATOM      3  N   UNL     1       8.203   5.670  18.919  0.00  0.00    +0.000 NA
ATOM      4  C   UNL     1       7.858   6.853  18.454  0.00  0.00    +0.000 A 
ATOM      5  N   UNL     1       8.516   7.998  18.839  0.00  0.00    +0.000 N 
ATOM      6  C   UNL     1       8.406   9.226  18.233  0.00  0.00    +0.000 C 
ATOM      7  O   UNL     1       7.689   9.500  17.276  0.00  0.00    +0.000 OA
ATOM      8  S   UNL     1       6.512   6.833  17.402  0.00  0.00    +0.000 S 
ATOM      9  H   UNL     1       9.230   7.829  19.532  0.00  0.00    +0.000 HD
ENDROOT
BRANCH   6  10
ATOM     10  C   UNL     1       9.296  10.306  18.760  0.00  0.00    +0.000 A 
ATOM     11  C   UNL     1       9.985  11.091  17.822  0.00  0.00    +0.000 A 
ATOM     12  C   UNL     1      10.801  12.142  18.234  0.00  0.00    +0.000 A 
ATOM     13  C   UNL     1      10.930  12.427  19.589  0.00  0.00    +0.000 A 
ATOM     14 CL   UNL     1      11.910  13.744  20.098  0.00  0.00    +0.000 Cl
ATOM     15  C   UNL     1      10.253  11.654  20.535  0.00  0.00    +0.000 A 
ATOM     16  C   UNL     1       9.437  10.590  20.125  0.00  0.00    +0.000 A 
ENDBRANCH   6  10
BRANCH   1  17
ATOM     17  S   UNL     1       5.107   4.230  16.966  0.00  0.00    +0.000 S 
ATOM     18  O   UNL     1       5.625   3.663  15.736  0.00  0.00    +0.000 OA
ATOM     19  O   UNL     1       3.959   5.114  16.945  0.00  0.00    +0.000 OA
BRANCH  17  20
ATOM     20  N   UNL     1       4.748   2.898  17.962  0.00  0.00    +0.000 N 
ATOM     21  H   UNL     1       5.052   2.038  17.510  0.00  0.00    +0.000 HD
BRANCH  20  27
ATOM     22  C   UNL     1       1.993   3.189  22.035  0.00  0.00    +0.000 C 
ATOM     23  C   UNL     1       2.086   2.963  20.556  0.00  0.00    +0.000 A 
ATOM     24  C   UNL     1       0.957   2.642  19.794  0.00  0.00    +0.000 A 
ATOM     25  C   UNL     1       1.073   2.434  18.416  0.00  0.00    +0.000 A 
ATOM     26  C   UNL     1       2.319   2.537  17.791  0.00  0.00    +0.000 A 
ATOM     27  C   UNL     1       3.449   2.839  18.550  0.00  0.00    +0.000 A 
ATOM     28  C   UNL     1       3.329   3.062  19.920  0.00  0.00    +0.000 A 
ENDBRANCH  20  27
ENDBRANCH  17  20
ENDBRANCH   1  17
TORSDOF 4
ENDMDL
MODEL 2
REMARK VINA RESULT:      -8.8      1.190      1.658
REMARK  Name = 
REMARK  5 active torsions:
REMARK  status: ('A' for Active; 'I' for Inactive)
REMARK    1  A    between atoms: C_1  and  C_2
REMARK    2  A    between atoms: C_6  and  N_7
REMARK    3  A    between atoms: N_7  and  S_8
REMARK    4  A    between atoms: S_8  and  C_11
REMARK    5  A    between atoms: C_16  and  C_18
REMARK                            x       y       z     vdW  Elec       q    Type
REMARK                         _______ _______ _______ _____ _____    ______ ____
ROOT
ATOM      1  C   UNL     1       6.549   5.276  17.755  0.00  0.00    +0.000 A 
ATOM      2  N   UNL     1       7.506   4.804  18.526  0.00  0.00    +0.000 NA
ATOM      3  N   UNL     1       8.309   5.816  19.009  0.00  0.00    +0.000 NA
ATOM      4  C   UNL     1       7.961   6.992  18.529  0.00  0.00    +0.000 A 
ATOM      5  N   UNL     1       8.613   8.144  18.906  0.00  0.00    +0.000 N 
ATOM      6  C   UNL     1       8.501   9.365  18.286  0.00  0.00    +0.000 C 
ATOM      7  O   UNL     1       7.789   9.626  17.322  0.00  0.00    +0.000 OA
ATOM      8  S   UNL     1       6.622   6.955  17.470  0.00  0.00    +0.000 S 
ATOM      9  H   UNL     1       9.325   7.985  19.604  0.00  0.00    +0.000 HD
ENDROOT
BRANCH   6  10
ATOM     10  C   UNL     1       9.385  10.454  18.806  0.00  0.00    +0.000 A 
ATOM     11  C   UNL     1      10.038  11.263  17.862  0.00  0.00    +0.000 A 
ATOM     12  C   UNL     1      10.844  12.323  18.269  0.00  0.00    +0.000 A 
ATOM     13  C   UNL     1      10.999  12.594  19.624  0.00  0.00    +0.000 A 
ATOM     14 CL   UNL     1      11.968  13.922  20.127  0.00  0.00    +0.000 Cl
ATOM     15  C   UNL     1      10.358  11.797  20.575  0.00  0.00    +0.000 A 
ATOM     16  C   UNL     1       9.552  10.724  20.171  0.00  0.00    +0.000 A 
ENDBRANCH   6  10
BRANCH   1  17
ATOM     17  S   UNL     1       5.229   4.342  17.055  0.00  0.00    +0.000 S 
ATOM     18  O   UNL     1       5.072   3.178  17.905  0.00  0.00    +0.000 OA
ATOM     19  O   UNL     1       5.534   4.191  15.646  0.00  0.00    +0.000 OA
BRANCH  17  20
ATOM     20  N   UNL     1       3.775   5.211  17.205  0.00  0.00    +0.000 N 
ATOM     21  H   UNL     1       3.956   6.207  17.090  0.00  0.00    +0.000 HD
BRANCH  20  27
ATOM     22  C   UNL     1       0.372   2.170  19.057  0.00  0.00    +0.000 C 
ATOM     23  C   UNL     1       1.221   3.396  19.205  0.00  0.00    +0.000 A 
ATOM     24  C   UNL     1       1.124   4.220  20.332  0.00  0.00    +0.000 A 
ATOM     25  C   UNL     1       1.926   5.359  20.443  0.00  0.00    +0.000 A 
ATOM     26  C   UNL     1       2.825   5.689  19.425  0.00  0.00    +0.000 A 
ATOM     27  C   UNL     1       2.912   4.881  18.292  0.00  0.00    +0.000 A 
ATOM     28  C   UNL     1       2.124   3.736  18.190  0.00  0.00    +0.000 A 
ENDBRANCH  20  27
ENDBRANCH  17  20
ENDBRANCH   1  17
TORSDOF 4
ENDMDL
MODEL 3
REMARK VINA RESULT:      -8.7      1.527      2.018
REMARK  Name = 
REMARK  5 active torsions:
REMARK  status: ('A' for Active; 'I' for Inactive)
REMARK    1  A    between atoms: C_1  and  C_2
REMARK    2  A    between atoms: C_6  and  N_7
REMARK    3  A    between atoms: N_7  and  S_8
REMARK    4  A    between atoms: S_8  and  C_11
REMARK    5  A    between atoms: C_16  and  C_18
REMARK                            x       y       z     vdW  Elec       q    Type
REMARK                         _______ _______ _______ _____ _____    ______ ____
ROOT
ATOM      1  C   UNL     1       6.476   4.972  17.844  0.00  0.00    +0.000 A 
ATOM      2  N   UNL     1       7.424   4.575  18.667  0.00  0.00    +0.000 NA
ATOM      3  N   UNL     1       8.198   5.633  19.092  0.00  0.00    +0.000 NA
ATOM      4  C   UNL     1       7.841   6.766  18.523  0.00  0.00    +0.000 A 
ATOM      5  N   UNL     1       8.465   7.953  18.829  0.00  0.00    +0.000 N 
ATOM      6  C   UNL     1       8.346   9.125  18.122  0.00  0.00    +0.000 C 
ATOM      7  O   UNL     1       7.651   9.304  17.127  0.00  0.00    +0.000 OA
ATOM      8  S   UNL     1       6.527   6.629  17.441  0.00  0.00    +0.000 S 
ATOM      9  H   UNL     1       9.163   7.858  19.553  0.00  0.00    +0.000 HD
ENDROOT
BRANCH   6  10
ATOM     10  C   UNL     1       9.199  10.265  18.581  0.00  0.00    +0.000 A 
ATOM     11  C   UNL     1       9.315  10.469  19.965  0.00  0.00    +0.000 A 
ATOM     12  C   UNL     1      10.123  11.484  20.470  0.00  0.00    +0.000 A 
ATOM     13  C   UNL     1      10.834  12.301  19.597  0.00  0.00    +0.000 A 
ATOM     14 CL   UNL     1      11.858  13.533  20.220  0.00  0.00    +0.000 Cl
ATOM     15  C   UNL     1      10.728  12.112  18.218  0.00  0.00    +0.000 A 
ATOM     16  C   UNL     1       9.909  11.096  17.705  0.00  0.00    +0.000 A 
ENDBRANCH   6  10
BRANCH   1  17
ATOM     17  S   UNL     1       5.188   3.967  17.184  0.00  0.00    +0.000 S 
ATOM     18  O   UNL     1       4.930   2.948  18.183  0.00  0.00    +0.000 OA
ATOM     19  O   UNL     1       5.599   3.599  15.844  0.00  0.00    +0.000 OA
BRANCH  17  20
ATOM     20  N   UNL     1       3.754   4.875  17.082  0.00  0.00    +0.000 N 
ATOM     21  H   UNL     1       3.895   5.674  16.466  0.00  0.00    +0.000 HD
BRANCH  20  27
ATOM     22  C   UNL     1       0.967   3.239  20.800  0.00  0.00    +0.000 C 
ATOM     23  C   UNL     1       1.676   4.374  20.123  0.00  0.00    +0.000 A 
ATOM     24  C   UNL     1       1.610   5.679  20.624  0.00  0.00    +0.000 A 
ATOM     25  C   UNL     1       2.279   6.718  19.972  0.00  0.00    +0.000 A 
ATOM     26  C   UNL     1       3.012   6.464  18.809  0.00  0.00    +0.000 A 
ATOM     27  C   UNL     1       3.065   5.168  18.296  0.00  0.00    +0.000 A 
ATOM     28  C   UNL     1       2.411   4.130  18.957  0.00  0.00    +0.000 A 
ENDBRANCH  20  27
ENDBRANCH  17  20
ENDBRANCH   1  17
TORSDOF 4
ENDMDL
MODEL 4
REMARK VINA RESULT:      -8.7      5.501      7.560
REMARK  Name = 
REMARK  5 active torsions:
REMARK  status: ('A' for Active; 'I' for Inactive)
REMARK    1  A    between atoms: C_1  and  C_2
REMARK    2  A    between atoms: C_6  and  N_7
REMARK    3  A    between atoms: N_7  and  S_8
REMARK    4  A    between atoms: S_8  and  C_11
REMARK    5  A    between atoms: C_16  and  C_18
REMARK                            x       y       z     vdW  Elec       q    Type
REMARK                         _______ _______ _______ _____ _____    ______ ____
ROOT
ATOM      1  C   UNL     1       2.771   3.853  19.419  0.00  0.00    +0.000 A 
ATOM      2  N   UNL     1       2.595   3.570  20.693  0.00  0.00    +0.000 NA
ATOM      3  N   UNL     1       2.029   4.629  21.371  0.00  0.00    +0.000 NA
ATOM      4  C   UNL     1       1.865   5.681  20.595  0.00  0.00    +0.000 A 
ATOM      5  N   UNL     1       1.288   6.838  21.063  0.00  0.00    +0.000 N 
ATOM      6  C   UNL     1       1.301   8.054  20.424  0.00  0.00    +0.000 C 
ATOM      7  O   UNL     1       1.804   8.293  19.331  0.00  0.00    +0.000 OA
ATOM      8  S   UNL     1       2.371   5.452  18.980  0.00  0.00    +0.000 S 
ATOM      9  H   UNL     1       0.973   6.763  22.020  0.00  0.00    +0.000 HD
ENDROOT
BRANCH   6  10
ATOM     10  C   UNL     1       0.698   9.201  21.171  0.00  0.00    +0.000 A 
ATOM     11  C   UNL     1       0.757  10.468  20.568  0.00  0.00    +0.000 A 
ATOM     12  C   UNL     1       0.181  11.576  21.183  0.00  0.00    +0.000 A 
ATOM     13  C   UNL     1      -0.470  11.430  22.403  0.00  0.00    +0.000 A 
ATOM     14 CL   UNL     1      -1.210  12.792  23.148  0.00  0.00    +0.000 Cl
ATOM     15  C   UNL     1      -0.535  10.178  23.017  0.00  0.00    +0.000 A 
ATOM     16  C   UNL     1       0.050   9.060  22.405  0.00  0.00    +0.000 A 
ENDBRANCH   6  10
BRANCH   1  17
ATOM     17  S   UNL     1       3.330   2.735  18.178  0.00  0.00    +0.000 S 
ATOM     18  O   UNL     1       2.544   3.028  16.996  0.00  0.00    +0.000 OA
ATOM     19  O   UNL     1       3.304   1.413  18.773  0.00  0.00    +0.000 OA
BRANCH  17  20
ATOM     20  N   UNL     1       4.936   3.109  17.759  0.00  0.00    +0.000 N 
ATOM     21  H   UNL     1       5.470   3.325  18.599  0.00  0.00    +0.000 HD
BRANCH  20  27
ATOM     22  C   UNL     1       6.246   3.713  13.049  0.00  0.00    +0.000 C 
ATOM     23  C   UNL     1       5.808   4.313  14.352  0.00  0.00    +0.000 A 
ATOM     24  C   UNL     1       5.676   5.696  14.511  0.00  0.00    +0.000 A 
ATOM     25  C   UNL     1       5.269   6.228  15.738  0.00  0.00    +0.000 A 
ATOM     26  C   UNL     1       4.998   5.382  16.817  0.00  0.00    +0.000 A 
ATOM     27  C   UNL     1       5.146   4.003  16.668  0.00  0.00    +0.000 A 
ATOM     28  C   UNL     1       5.537   3.474  15.439  0.00  0.00    +0.000 A 
ENDBRANCH  20  27
ENDBRANCH  17  20
ENDBRANCH   1  17
TORSDOF 4
ENDMDL
MODEL 5
REMARK VINA RESULT:      -8.5      5.213      7.332
REMARK  Name = 
REMARK  5 active torsions:
REMARK  status: ('A' for Active; 'I' for Inactive)
REMARK    1  A    between atoms: C_1  and  C_2
REMARK    2  A    between atoms: C_6  and  N_7
REMARK    3  A    between atoms: N_7  and  S_8
REMARK    4  A    between atoms: S_8  and  C_11
REMARK    5  A    between atoms: C_16  and  C_18
REMARK                            x       y       z     vdW  Elec       q    Type
REMARK                         _______ _______ _______ _____ _____    ______ ____
ROOT
ATOM      1  C   UNL     1       2.799   3.931  19.271  0.00  0.00    +0.000 A 
ATOM      2  N   UNL     1       2.752   3.675  20.562  0.00  0.00    +0.000 NA
ATOM      3  N   UNL     1       2.213   4.730  21.266  0.00  0.00    +0.000 NA
ATOM      4  C   UNL     1       1.939   5.755  20.486  0.00  0.00    +0.000 A 
ATOM      5  N   UNL     1       1.365   6.903  20.980  0.00  0.00    +0.000 N 
ATOM      6  C   UNL     1       1.274   8.103  20.316  0.00  0.00    +0.000 C 
ATOM      7  O   UNL     1       1.665   8.331  19.176  0.00  0.00    +0.000 OA
ATOM      8  S   UNL     1       2.302   5.503  18.836  0.00  0.00    +0.000 S 
ATOM      9  H   UNL     1       1.142   6.842  21.963  0.00  0.00    +0.000 HD
ENDROOT
BRANCH   6  10
ATOM     10  C   UNL     1       0.700   9.246  21.090  0.00  0.00    +0.000 A 
ATOM     11  C   UNL     1       0.724  10.513  20.486  0.00  0.00    +0.000 A 
ATOM     12  C   UNL     1       0.172  11.618  21.127  0.00  0.00    +0.000 A 
ATOM     13  C   UNL     1      -0.421  11.469  22.377  0.00  0.00    +0.000 A 
ATOM     14 CL   UNL     1      -1.132  12.827  23.155  0.00  0.00    +0.000 Cl
ATOM     15  C   UNL     1      -0.451  10.216  22.992  0.00  0.00    +0.000 A 
ATOM     16  C   UNL     1       0.111   9.101  22.353  0.00  0.00    +0.000 A 
ENDBRANCH   6  10
BRANCH   1  17
ATOM     17  S   UNL     1       3.283   2.802  18.008  0.00  0.00    +0.000 S 
ATOM     18  O   UNL     1       2.567   3.210  16.815  0.00  0.00    +0.000 OA
ATOM     19  O   UNL     1       3.107   1.472  18.556  0.00  0.00    +0.000 OA
BRANCH  17  20
ATOM     20  N   UNL     1       4.930   3.026  17.646  0.00  0.00    +0.000 N 
ATOM     21  H   UNL     1       5.503   2.515  18.317  0.00  0.00    +0.000 HD
BRANCH  20  27
ATOM     22  C   UNL     1       8.002   6.718  18.741  0.00  0.00    +0.000 C 
ATOM     23  C   UNL     1       6.873   6.184  17.911  0.00  0.00    +0.000 A 
ATOM     24  C   UNL     1       6.237   6.975  16.949  0.00  0.00    +0.000 A 
ATOM     25  C   UNL     1       5.185   6.453  16.191  0.00  0.00    +0.000 A 
ATOM     26  C   UNL     1       4.755   5.139  16.395  0.00  0.00    +0.000 A 
ATOM     27  C   UNL     1       5.375   4.352  17.366  0.00  0.00    +0.000 A 
ATOM     28  C   UNL     1       6.434   4.870  18.110  0.00  0.00    +0.000 A 
ENDBRANCH  20  27
ENDBRANCH  17  20
ENDBRANCH   1  17
TORSDOF 4
ENDMDL
MODEL 6
REMARK VINA RESULT:      -8.5      2.964      4.308
REMARK  Name = 
REMARK  5 active torsions:
REMARK  status: ('A' for Active; 'I' for Inactive)
REMARK    1  A    between atoms: C_1  and  C_2
REMARK    2  A    between atoms: C_6  and  N_7
REMARK    3  A    between atoms: N_7  and  S_8
REMARK    4  A    between atoms: S_8  and  C_11
REMARK    5  A    between atoms: C_16  and  C_18
REMARK                            x       y       z     vdW  Elec       q    Type
REMARK                         _______ _______ _______ _____ _____    ______ ____
ROOT
ATOM      1  C   UNL     1       6.557   5.384  17.961  0.00  0.00    +0.000 A 
ATOM      2  N   UNL     1       7.509   4.926  18.746  0.00  0.00    +0.000 NA
ATOM      3  N   UNL     1       8.330   5.941  19.187  0.00  0.00    +0.000 NA
ATOM      4  C   UNL     1       8.001   7.104  18.664  0.00  0.00    +0.000 A 
ATOM      5  N   UNL     1       8.673   8.259  18.994  0.00  0.00    +0.000 N 
ATOM      6  C   UNL     1       8.579   9.457  18.329  0.00  0.00    +0.000 C 
ATOM      7  O   UNL     1       7.867   9.693  17.358  0.00  0.00    +0.000 OA
ATOM      8  S   UNL     1       6.656   7.050  17.612  0.00  0.00    +0.000 S 
ATOM      9  H   UNL     1       9.384   8.114  19.696  0.00  0.00    +0.000 HD
ENDROOT
BRANCH   6  10
ATOM     10  C   UNL     1       9.482  10.550  18.804  0.00  0.00    +0.000 A 
ATOM     11  C   UNL     1      10.097  11.351  17.828  0.00  0.00    +0.000 A 
ATOM     12  C   UNL     1      10.919  12.413  18.194  0.00  0.00    +0.000 A 
ATOM     13  C   UNL     1      11.128  12.696  19.539  0.00  0.00    +0.000 A 
ATOM     14 CL   UNL     1      12.116  14.028  19.992  0.00  0.00    +0.000 Cl
ATOM     15  C   UNL     1      10.525  11.908  20.522  0.00  0.00    +0.000 A 
ATOM     16  C   UNL     1       9.703  10.831  20.159  0.00  0.00    +0.000 A 
ENDBRANCH   6  10
BRANCH   1  17
ATOM     17  S   UNL     1       5.219   4.446  17.301  0.00  0.00    +0.000 S 
ATOM     18  O   UNL     1       4.440   5.373  16.504  0.00  0.00    +0.000 OA
ATOM     19  O   UNL     1       4.616   3.746  18.418  0.00  0.00    +0.000 OA
BRANCH  17  20
ATOM     20  N   UNL     1       5.819   3.296  16.200  0.00  0.00    +0.000 N 
ATOM     21  H   UNL     1       6.546   2.740  16.646  0.00  0.00    +0.000 HD
BRANCH  20  27
ATOM     22  C   UNL     1       4.756   3.143  11.393  0.00  0.00    +0.000 C 
ATOM     23  C   UNL     1       5.621   3.655  12.506  0.00  0.00    +0.000 A 
ATOM     24  C   UNL     1       6.724   4.478  12.254  0.00  0.00    +0.000 A 
ATOM     25  C   UNL     1       7.515   4.938  13.310  0.00  0.00    +0.000 A 
ATOM     26  C   UNL     1       7.215   4.573  14.626  0.00  0.00    +0.000 A 
ATOM     27  C   UNL     1       6.127   3.739  14.879  0.00  0.00    +0.000 A 
ATOM     28  C   UNL     1       5.329   3.294  13.827  0.00  0.00    +0.000 A 
ENDBRANCH  20  27
ENDBRANCH  17  20
ENDBRANCH   1  17
TORSDOF 4
ENDMDL
MODEL 7
REMARK VINA RESULT:      -8.5      0.628      1.060
REMARK  Name = 
REMARK  5 active torsions:
REMARK  status: ('A' for Active; 'I' for Inactive)
REMARK    1  A    between atoms: C_1  and  C_2
REMARK    2  A    between atoms: C_6  and  N_7
REMARK    3  A    between atoms: N_7  and  S_8
REMARK    4  A    between atoms: S_8  and  C_11
REMARK    5  A    between atoms: C_16  and  C_18
REMARK                            x       y       z     vdW  Elec       q    Type
REMARK                         _______ _______ _______ _____ _____    ______ ____
ROOT
ATOM      1  C   UNL     1       6.754   5.468  18.017  0.00  0.00    +0.000 A 
ATOM      2  N   UNL     1       7.712   5.123  18.851  0.00  0.00    +0.000 NA
ATOM      3  N   UNL     1       8.459   6.214  19.240  0.00  0.00    +0.000 NA
ATOM      4  C   UNL     1       8.072   7.318  18.636  0.00  0.00    +0.000 A 
ATOM      5  N   UNL     1       8.663   8.531  18.903  0.00  0.00    +0.000 N 
ATOM      6  C   UNL     1       8.513   9.676  18.158  0.00  0.00    +0.000 C 
ATOM      7  O   UNL     1       7.812   9.804  17.159  0.00  0.00    +0.000 OA
ATOM      8  S   UNL     1       6.760   7.112  17.561  0.00  0.00    +0.000 S 
ATOM      9  H   UNL     1       9.365   8.478  19.627  0.00  0.00    +0.000 HD
ENDROOT
BRANCH   6  10
ATOM     10  C   UNL     1       9.335  10.852  18.579  0.00  0.00    +0.000 A 
ATOM     11  C   UNL     1      10.077  10.732  19.765  0.00  0.00    +0.000 A 
ATOM     12  C   UNL     1      10.897  11.768  20.200  0.00  0.00    +0.000 A 
ATOM     13  C   UNL     1      10.996  12.935  19.449  0.00  0.00    +0.000 A 
ATOM     14 CL   UNL     1      12.035  14.202  19.967  0.00  0.00    +0.000 Cl
ATOM     15  C   UNL     1      10.264  13.071  18.267  0.00  0.00    +0.000 A 
ATOM     16  C   UNL     1       9.430  12.033  17.830  0.00  0.00    +0.000 A 
ENDBRANCH   6  10
BRANCH   1  17
ATOM     17  S   UNL     1       5.493   4.408  17.393  0.00  0.00    +0.000 S 
ATOM     18  O   UNL     1       6.068   3.743  16.240  0.00  0.00    +0.000 OA
ATOM     19  O   UNL     1       4.301   5.222  17.256  0.00  0.00    +0.000 OA
BRANCH  17  20
ATOM     20  N   UNL     1       5.180   3.172  18.519  0.00  0.00    +0.000 N 
ATOM     21  H   UNL     1       5.766   2.365  18.315  0.00  0.00    +0.000 HD
BRANCH  20  27
ATOM     22  C   UNL     1       1.604   2.812  21.887  0.00  0.00    +0.000 C 
ATOM     23  C   UNL     1       2.052   2.668  20.464  0.00  0.00    +0.000 A 
ATOM     24  C   UNL     1       1.190   2.189  19.471  0.00  0.00    +0.000 A 
ATOM     25  C   UNL     1       1.635   2.063  18.153  0.00  0.00    +0.000 A 
ATOM     26  C   UNL     1       2.948   2.406  17.817  0.00  0.00    +0.000 A 
ATOM     27  C   UNL     1       3.816   2.866  18.807  0.00  0.00    +0.000 A 
ATOM     28  C   UNL     1       3.366   3.007  20.118  0.00  0.00    +0.000 A 
ENDBRANCH  20  27
ENDBRANCH  17  20
ENDBRANCH   1  17
TORSDOF 4
ENDMDL
MODEL 8
REMARK VINA RESULT:      -8.3      2.191      2.633
REMARK  Name = 
REMARK  5 active torsions:
REMARK  status: ('A' for Active; 'I' for Inactive)
REMARK    1  A    between atoms: C_1  and  C_2
REMARK    2  A    between atoms: C_6  and  N_7
REMARK    3  A    between atoms: N_7  and  S_8
REMARK    4  A    between atoms: S_8  and  C_11
REMARK    5  A    between atoms: C_16  and  C_18
REMARK                            x       y       z     vdW  Elec       q    Type
REMARK                         _______ _______ _______ _____ _____    ______ ____
ROOT
ATOM      1  C   UNL     1       7.096   6.268  17.427  0.00  0.00    +0.000 A 
ATOM      2  N   UNL     1       6.274   7.008  16.712  0.00  0.00    +0.000 NA
ATOM      3  N   UNL     1       6.595   8.346  16.800  0.00  0.00    +0.000 NA
ATOM      4  C   UNL     1       7.600   8.559  17.625  0.00  0.00    +0.000 A 
ATOM      5  N   UNL     1       8.102   9.822  17.837  0.00  0.00    +0.000 N 
ATOM      6  C   UNL     1       8.961  10.182  18.847  0.00  0.00    +0.000 C 
ATOM      7  O   UNL     1       9.432   9.435  19.698  0.00  0.00    +0.000 OA
ATOM      8  S   UNL     1       8.238   7.145  18.340  0.00  0.00    +0.000 S 
ATOM      9  H   UNL     1       7.657  10.525  17.265  0.00  0.00    +0.000 HD
ENDROOT
BRANCH   6  10
ATOM     10  C   UNL     1       9.295  11.637  18.945  0.00  0.00    +0.000 A 
ATOM     11  C   UNL     1       9.440  12.182  20.230  0.00  0.00    +0.000 A 
ATOM     12  C   UNL     1       9.790  13.519  20.401  0.00  0.00    +0.000 A 
ATOM     13  C   UNL     1      10.009  14.324  19.289  0.00  0.00    +0.000 A 
ATOM     14 CL   UNL     1      10.474  15.966  19.498  0.00  0.00    +0.000 Cl
ATOM     15  C   UNL     1       9.866  13.798  18.003  0.00  0.00    +0.000 A 
ATOM     16  C   UNL     1       9.506  12.454  17.826  0.00  0.00    +0.000 A 
ENDBRANCH   6  10
BRANCH   1  17
ATOM     17  S   UNL     1       7.125   4.507  17.477  0.00  0.00    +0.000 S 
ATOM     18  O   UNL     1       8.445   4.145  17.954  0.00  0.00    +0.000 OA
ATOM     19  O   UNL     1       6.657   4.051  16.183  0.00  0.00    +0.000 OA
BRANCH  17  20
ATOM     20  N   UNL     1       6.046   3.954  18.670  0.00  0.00    +0.000 N 
ATOM     21  H   UNL     1       6.251   2.983  18.897  0.00  0.00    +0.000 HD
BRANCH  20  27
ATOM     22  C   UNL     1       2.225   6.846  19.814  0.00  0.00    +0.000 C 
ATOM     23  C   UNL     1       2.767   5.660  19.074  0.00  0.00    +0.000 A 
ATOM     24  C   UNL     1       1.937   4.838  18.303  0.00  0.00    +0.000 A 
ATOM     25  C   UNL     1       2.469   3.737  17.626  0.00  0.00    +0.000 A 
ATOM     26  C   UNL     1       3.833   3.445  17.719  0.00  0.00    +0.000 A 
ATOM     27  C   UNL     1       4.660   4.251  18.501  0.00  0.00    +0.000 A 
ATOM     28  C   UNL     1       4.131   5.357  19.163  0.00  0.00    +0.000 A 
ENDBRANCH  20  27
ENDBRANCH  17  20
ENDBRANCH   1  17
TORSDOF 4
ENDMDL
MODEL 9
REMARK VINA RESULT:      -8.3      2.020      2.580
REMARK  Name = 
REMARK  5 active torsions:
REMARK  status: ('A' for Active; 'I' for Inactive)
REMARK    1  A    between atoms: C_1  and  C_2
REMARK    2  A    between atoms: C_6  and  N_7
REMARK    3  A    between atoms: N_7  and  S_8
REMARK    4  A    between atoms: S_8  and  C_11
REMARK    5  A    between atoms: C_16  and  C_18
REMARK                            x       y       z     vdW  Elec       q    Type
REMARK                         _______ _______ _______ _____ _____    ______ ____
ROOT
ATOM      1  C   UNL     1       6.983   6.307  17.513  0.00  0.00    +0.000 A 
ATOM      2  N   UNL     1       6.205   7.056  16.761  0.00  0.00    +0.000 NA
ATOM      3  N   UNL     1       6.592   8.378  16.795  0.00  0.00    +0.000 NA
ATOM      4  C   UNL     1       7.600   8.576  17.619  0.00  0.00    +0.000 A 
ATOM      5  N   UNL     1       8.164   9.821  17.781  0.00  0.00    +0.000 N 
ATOM      6  C   UNL     1       9.033  10.181  18.783  0.00  0.00    +0.000 C 
ATOM      7  O   UNL     1       9.460   9.448  19.669  0.00  0.00    +0.000 OA
ATOM      8  S   UNL     1       8.161   7.164  18.399  0.00  0.00    +0.000 S 
ATOM      9  H   UNL     1       7.759  10.520  17.176  0.00  0.00    +0.000 HD
ENDROOT
BRANCH   6  10
ATOM     10  C   UNL     1       9.438  11.620  18.822  0.00  0.00    +0.000 A 
ATOM     11  C   UNL     1      10.548  11.957  19.612  0.00  0.00    +0.000 A 
ATOM     12  C   UNL     1      11.011  13.270  19.666  0.00  0.00    +0.000 A 
ATOM     13  C   UNL     1      10.376  14.258  18.923  0.00  0.00    +0.000 A 
ATOM     14 CL   UNL     1      10.966  15.872  18.963  0.00  0.00    +0.000 Cl
ATOM     15  C   UNL     1       9.269  13.939  18.133  0.00  0.00    +0.000 A 
ATOM     16  C   UNL     1       8.795  12.621  18.082  0.00  0.00    +0.000 A 
ENDBRANCH   6  10
BRANCH   1  17
ATOM     17  S   UNL     1       6.923   4.551  17.638  0.00  0.00    +0.000 S 
ATOM     18  O   UNL     1       8.294   4.120  17.834  0.00  0.00    +0.000 OA
ATOM     19  O   UNL     1       6.158   4.083  16.500  0.00  0.00    +0.000 OA
BRANCH  17  20
ATOM     20  N   UNL     1       6.103   4.110  19.062  0.00  0.00    +0.000 N 
ATOM     21  H   UNL     1       6.418   3.192  19.371  0.00  0.00    +0.000 HD
BRANCH  20  27
ATOM     22  C   UNL     1       1.609   2.179  18.477  0.00  0.00    +0.000 C 
ATOM     23  C   UNL     1       2.471   3.364  18.797  0.00  0.00    +0.000 A 
ATOM     24  C   UNL     1       1.916   4.622  19.057  0.00  0.00    +0.000 A 
ATOM     25  C   UNL     1       2.743   5.709  19.350  0.00  0.00    +0.000 A 
ATOM     26  C   UNL     1       4.132   5.550  19.378  0.00  0.00    +0.000 A 
ATOM     27  C   UNL     1       4.690   4.302  19.101  0.00  0.00    +0.000 A 
ATOM     28  C   UNL     1       3.862   3.216  18.825  0.00  0.00    +0.000 A 
ENDBRANCH  20  27
ENDBRANCH  17  20
ENDBRANCH   1  17
TORSDOF 4
ENDMDL
