MODEL 1
REMARK VINA RESULT:      -7.9      0.000      0.000
REMARK  Name = 
REMARK  6 active torsions:
REMARK  status: ('A' for Active; 'I' for Inactive)
REMARK    1  A    between atoms: C_1  and  O_2
REMARK    2  A    between atoms: O_2  and  C_3
REMARK    3  A    between atoms: C_7  and  N_8
REMARK    4  A    between atoms: C_10  and  C_11
REMARK    5  A    between atoms: C_15  and  C_16
REMARK    6  A    between atoms: C_18  and  C_19
REMARK                            x       y       z     vdW  Elec       q    Type
REMARK                         _______ _______ _______ _____ _____    ______ ____
ROOT
ATOM      1  N   UNL     1       0.794   9.710  20.082  0.00  0.00    +0.000 N 
ATOM      2  N   UNL     1       0.485  10.669  19.149  0.00  0.00    +0.000 NA
ATOM      3  C   UNL     1      -0.224  11.692  19.520  0.00  0.00    +0.000 A 
ATOM      4  C   UNL     1      -0.983  11.688  20.773  0.00  0.00    +0.000 A 
ATOM      5  C   UNL     1      -2.176  12.378  20.999  0.00  0.00    +0.000 A 
ATOM      6  C   UNL     1      -2.745  12.352  22.274  0.00  0.00    +0.000 A 
ATOM      7  C   UNL     1      -2.107  11.658  23.315  0.00  0.00    +0.000 A 
ATOM      8  C   UNL     1      -0.933  10.955  23.070  0.00  0.00    +0.000 A 
ATOM      9  C   UNL     1      -0.402  10.937  21.785  0.00  0.00    +0.000 A 
ATOM     10  C   UNL     1       0.734  10.058  21.442  0.00  0.00    +0.000 A 
ATOM     11  O   UNL     1       1.456   9.688  22.359  0.00  0.00    +0.000 OA
ENDROOT
BRANCH   3  12
ATOM     12  C   UNL     1       0.001  13.018  18.789  0.00  0.00    +0.000 C 
ATOM     13  O   UNL     1      -0.636  13.219  17.759  0.00  0.00    +0.000 OA
ATOM     14  N   UNL     1       0.739  14.004  19.434  0.00  0.00    +0.000 N 
ATOM     15  C   UNL     1       1.755  13.756  20.449  0.00  0.00    +0.000 C 
ATOM     16  C   UNL     1       3.025  14.546  20.148  0.00  0.00    +0.000 C 
ATOM     17  C   UNL     1       4.056  14.313  21.242  0.00  0.00    +0.000 C 
ATOM     18  C   UNL     1       2.705  16.033  19.957  0.00  0.00    +0.000 C 
ATOM     19  C   UNL     1       1.640  16.201  18.858  0.00  0.00    +0.000 C 
ATOM     20  C   UNL     1       1.315  17.669  18.623  0.00  0.00    +0.000 C 
ATOM     21  C   UNL     1       0.389  15.403  19.221  0.00  0.00    +0.000 C 
ENDBRANCH   3  12
BRANCH   1  26
ATOM     22  C   UNL     1       2.487   6.355  19.783  0.00  0.00    +0.000 A 
ATOM     23  C   UNL     1       3.073   6.472  18.527  0.00  0.00    +0.000 A 
ATOM     24  C   UNL     1       2.950   7.648  17.799  0.00  0.00    +0.000 A 
ATOM     25  C   UNL     1       2.223   8.719  18.322  0.00  0.00    +0.000 A 
ATOM     26  C   UNL     1       1.566   8.619  19.550  0.00  0.00    +0.000 A 
ATOM     27  C   UNL     1       1.723   7.417  20.284  0.00  0.00    +0.000 A 
BRANCH  22  29
ATOM     28  C   UNL     1       1.657   4.357  20.789  0.00  0.00    +0.000 C 
ATOM     29  O   UNL     1       2.755   5.167  20.407  0.00  0.00    +0.000 OA
ENDBRANCH  22  29
ENDBRANCH   1  26
TORSDOF 3
ENDMDL
MODEL 2
REMARK VINA RESULT:      -7.7      2.433      4.925
REMARK  Name = 
REMARK  6 active torsions:
REMARK  status: ('A' for Active; 'I' for Inactive)
REMARK    1  A    between atoms: C_1  and  O_2
REMARK    2  A    between atoms: O_2  and  C_3
REMARK    3  A    between atoms: C_7  and  N_8
REMARK    4  A    between atoms: C_10  and  C_11
REMARK    5  A    between atoms: C_15  and  C_16
REMARK    6  A    between atoms: C_18  and  C_19
REMARK                            x       y       z     vdW  Elec       q    Type
REMARK                         _______ _______ _______ _____ _____    ______ ____
ROOT
ATOM      1  N   UNL     1       1.570   9.205  19.437  0.00  0.00    +0.000 N 
ATOM      2  N   UNL     1       0.570   9.628  20.276  0.00  0.00    +0.000 NA
ATOM      3  C   UNL     1       0.252  10.888  20.280  0.00  0.00    +0.000 A 
ATOM      4  C   UNL     1       1.132  11.904  19.698  0.00  0.00    +0.000 A 
ATOM      5  C   UNL     1       1.236  13.228  20.130  0.00  0.00    +0.000 A 
ATOM      6  C   UNL     1       2.055  14.111  19.423  0.00  0.00    +0.000 A 
ATOM      7  C   UNL     1       2.742  13.672  18.280  0.00  0.00    +0.000 A 
ATOM      8  C   UNL     1       2.648  12.344  17.876  0.00  0.00    +0.000 A 
ATOM      9  C   UNL     1       1.878  11.457  18.617  0.00  0.00    +0.000 A 
ATOM     10  C   UNL     1       1.898  10.008  18.331  0.00  0.00    +0.000 A 
ATOM     11  O   UNL     1       2.241   9.660  17.208  0.00  0.00    +0.000 OA
ENDROOT
BRANCH   3  12
ATOM     12  C   UNL     1      -1.196  11.256  20.613  0.00  0.00    +0.000 C 
ATOM     13  O   UNL     1      -1.479  11.457  21.791  0.00  0.00    +0.000 OA
ATOM     14  N   UNL     1      -2.053  11.557  19.561  0.00  0.00    +0.000 N 
ATOM     15  C   UNL     1      -1.912  11.053  18.200  0.00  0.00    +0.000 C 
ATOM     16  C   UNL     1      -3.242  10.511  17.683  0.00  0.00    +0.000 C 
ATOM     17  C   UNL     1      -3.088  10.034  16.247  0.00  0.00    +0.000 C 
ATOM     18  C   UNL     1      -4.348  11.562  17.833  0.00  0.00    +0.000 C 
ATOM     19  C   UNL     1      -4.438  12.022  19.298  0.00  0.00    +0.000 C 
ATOM     20  C   UNL     1      -5.544  13.049  19.490  0.00  0.00    +0.000 C 
ATOM     21  C   UNL     1      -3.085  12.568  19.755  0.00  0.00    +0.000 C 
ENDBRANCH   3  12
BRANCH   1  26
ATOM     22  C   UNL     1       2.726   5.728  18.546  0.00  0.00    +0.000 A 
ATOM     23  C   UNL     1       2.388   5.038  19.706  0.00  0.00    +0.000 A 
ATOM     24  C   UNL     1       1.755   5.692  20.755  0.00  0.00    +0.000 A 
ATOM     25  C   UNL     1       1.464   7.053  20.655  0.00  0.00    +0.000 A 
ATOM     26  C   UNL     1       1.844   7.796  19.535  0.00  0.00    +0.000 A 
ATOM     27  C   UNL     1       2.471   7.104  18.468  0.00  0.00    +0.000 A 
BRANCH  22  29
ATOM     28  C   UNL     1       2.714   3.652  17.372  0.00  0.00    +0.000 C 
ATOM     29  O   UNL     1       3.277   4.936  17.577  0.00  0.00    +0.000 OA
ENDBRANCH  22  29
ENDBRANCH   1  26
TORSDOF 3
ENDMDL
MODEL 3
REMARK VINA RESULT:      -7.6      3.485      6.073
REMARK  Name = 
REMARK  6 active torsions:
REMARK  status: ('A' for Active; 'I' for Inactive)
REMARK    1  A    between atoms: C_1  and  O_2
REMARK    2  A    between atoms: O_2  and  C_3
REMARK    3  A    between atoms: C_7  and  N_8
REMARK    4  A    between atoms: C_10  and  C_11
REMARK    5  A    between atoms: C_15  and  C_16
REMARK    6  A    between atoms: C_18  and  C_19
REMARK                            x       y       z     vdW  Elec       q    Type
REMARK                         _______ _______ _______ _____ _____    ______ ____
ROOT
ATOM      1  N   UNL     1      -1.723  10.827  18.884  0.00  0.00    +0.000 N 
ATOM      2  N   UNL     1      -2.051  11.763  19.834  0.00  0.00    +0.000 NA
ATOM      3  C   UNL     1      -1.368  11.794  20.938  0.00  0.00    +0.000 A 
ATOM      4  C   UNL     1      -0.515  10.675  21.347  0.00  0.00    +0.000 A 
ATOM      5  C   UNL     1      -0.235  10.310  22.665  0.00  0.00    +0.000 A 
ATOM      6  C   UNL     1       0.667   9.272  22.905  0.00  0.00    +0.000 A 
ATOM      7  C   UNL     1       1.298   8.624  21.831  0.00  0.00    +0.000 A 
ATOM      8  C   UNL     1       0.991   8.982  20.523  0.00  0.00    +0.000 A 
ATOM      9  C   UNL     1       0.049   9.977  20.289  0.00  0.00    +0.000 A 
ATOM     10  C   UNL     1      -0.439  10.257  18.924  0.00  0.00    +0.000 A 
ATOM     11  O   UNL     1       0.279   9.925  17.989  0.00  0.00    +0.000 OA
ENDROOT
BRANCH   3  12
ATOM     12  C   UNL     1      -1.217  13.144  21.644  0.00  0.00    +0.000 C 
ATOM     13  O   UNL     1      -0.213  13.807  21.401  0.00  0.00    +0.000 OA
ATOM     14  N   UNL     1      -2.310  13.643  22.343  0.00  0.00    +0.000 N 
ATOM     15  C   UNL     1      -3.366  12.828  22.933  0.00  0.00    +0.000 C 
ATOM     16  C   UNL     1      -3.641  13.258  24.371  0.00  0.00    +0.000 C 
ATOM     17  C   UNL     1      -4.777  12.431  24.954  0.00  0.00    +0.000 C 
ATOM     18  C   UNL     1      -3.922  14.763  24.441  0.00  0.00    +0.000 C 
ATOM     19  C   UNL     1      -2.753  15.543  23.815  0.00  0.00    +0.000 C 
ATOM     20  C   UNL     1      -2.985  17.045  23.889  0.00  0.00    +0.000 C 
ATOM     21  C   UNL     1      -2.534  15.083  22.374  0.00  0.00    +0.000 C 
ENDBRANCH   3  12
BRANCH   1  26
ATOM     22  C   UNL     1      -2.920  10.389  15.336  0.00  0.00    +0.000 A 
ATOM     23  C   UNL     1      -4.183  10.967  15.415  0.00  0.00    +0.000 A 
ATOM     24  C   UNL     1      -4.626  11.529  16.606  0.00  0.00    +0.000 A 
ATOM     25  C   UNL     1      -3.808  11.505  17.736  0.00  0.00    +0.000 A 
ATOM     26  C   UNL     1      -2.561  10.878  17.715  0.00  0.00    +0.000 A 
ATOM     27  C   UNL     1      -2.120  10.329  16.484  0.00  0.00    +0.000 A 
BRANCH  22  29
ATOM     28  C   UNL     1      -3.644   9.820  13.135  0.00  0.00    +0.000 C 
ATOM     29  O   UNL     1      -2.598   9.944  14.083  0.00  0.00    +0.000 OA
ENDBRANCH  22  29
ENDBRANCH   1  26
TORSDOF 3
ENDMDL
MODEL 4
REMARK VINA RESULT:      -7.5      0.911      1.558
REMARK  Name = 
REMARK  6 active torsions:
REMARK  status: ('A' for Active; 'I' for Inactive)
REMARK    1  A    between atoms: C_1  and  O_2
REMARK    2  A    between atoms: O_2  and  C_3
REMARK    3  A    between atoms: C_7  and  N_8
REMARK    4  A    between atoms: C_10  and  C_11
REMARK    5  A    between atoms: C_15  and  C_16
REMARK    6  A    between atoms: C_18  and  C_19
REMARK                            x       y       z     vdW  Elec       q    Type
REMARK                         _______ _______ _______ _____ _____    ______ ____
ROOT
ATOM      1  N   UNL     1       0.576   9.673  20.349  0.00  0.00    +0.000 N 
ATOM      2  N   UNL     1       0.332  10.564  19.334  0.00  0.00    +0.000 NA
ATOM      3  C   UNL     1      -0.373  11.623  19.591  0.00  0.00    +0.000 A 
ATOM      4  C   UNL     1      -1.192  11.726  20.802  0.00  0.00    +0.000 A 
ATOM      5  C   UNL     1      -2.380  12.451  20.916  0.00  0.00    +0.000 A 
ATOM      6  C   UNL     1      -3.010  12.530  22.160  0.00  0.00    +0.000 A 
ATOM      7  C   UNL     1      -2.438  11.907  23.280  0.00  0.00    +0.000 A 
ATOM      8  C   UNL     1      -1.268  11.168  23.146  0.00  0.00    +0.000 A 
ATOM      9  C   UNL     1      -0.676  11.045  21.895  0.00  0.00    +0.000 A 
ATOM     10  C   UNL     1       0.457  10.124  21.675  0.00  0.00    +0.000 A 
ATOM     11  O   UNL     1       1.127   9.811  22.652  0.00  0.00    +0.000 OA
ENDROOT
BRANCH   3  12
ATOM     12  C   UNL     1      -0.086  12.886  18.775  0.00  0.00    +0.000 C 
ATOM     13  O   UNL     1      -0.680  13.026  17.710  0.00  0.00    +0.000 OA
ATOM     14  N   UNL     1       0.653  13.899  19.376  0.00  0.00    +0.000 N 
ATOM     15  C   UNL     1       1.624  13.702  20.445  0.00  0.00    +0.000 C 
ATOM     16  C   UNL     1       2.925  14.438  20.136  0.00  0.00    +0.000 C 
ATOM     17  C   UNL     1       3.909  14.261  21.284  0.00  0.00    +0.000 C 
ATOM     18  C   UNL     1       2.652  15.913  19.826  0.00  0.00    +0.000 C 
ATOM     19  C   UNL     1       1.633  16.027  18.678  0.00  0.00    +0.000 C 
ATOM     20  C   UNL     1       1.356  17.480  18.324  0.00  0.00    +0.000 C 
ATOM     21  C   UNL     1       0.348  15.287  19.048  0.00  0.00    +0.000 C 
ENDBRANCH   3  12
BRANCH   1  26
ATOM     22  C   UNL     1       2.826   7.441  18.307  0.00  0.00    +0.000 A 
ATOM     23  C   UNL     1       2.872   6.310  19.116  0.00  0.00    +0.000 A 
ATOM     24  C   UNL     1       2.145   6.260  20.299  0.00  0.00    +0.000 A 
ATOM     25  C   UNL     1       1.373   7.355  20.689  0.00  0.00    +0.000 A 
ATOM     26  C   UNL     1       1.351   8.532  19.939  0.00  0.00    +0.000 A 
ATOM     27  C   UNL     1       2.083   8.553  18.725  0.00  0.00    +0.000 A 
BRANCH  22  29
ATOM     28  C   UNL     1       4.784   6.646  17.199  0.00  0.00    +0.000 C 
ATOM     29  O   UNL     1       3.535   7.314  17.144  0.00  0.00    +0.000 OA
ENDBRANCH  22  29
ENDBRANCH   1  26
TORSDOF 3
ENDMDL
MODEL 5
REMARK VINA RESULT:      -7.5      3.399      6.208
REMARK  Name = 
REMARK  6 active torsions:
REMARK  status: ('A' for Active; 'I' for Inactive)
REMARK    1  A    between atoms: C_1  and  O_2
REMARK    2  A    between atoms: O_2  and  C_3
REMARK    3  A    between atoms: C_7  and  N_8
REMARK    4  A    between atoms: C_10  and  C_11
REMARK    5  A    between atoms: C_15  and  C_16
REMARK    6  A    between atoms: C_18  and  C_19
REMARK                            x       y       z     vdW  Elec       q    Type
REMARK                         _______ _______ _______ _____ _____    ______ ____
ROOT
ATOM      1  N   UNL     1      -1.596  10.732  18.952  0.00  0.00    +0.000 N 
ATOM      2  N   UNL     1      -1.928  11.663  19.906  0.00  0.00    +0.000 NA
ATOM      3  C   UNL     1      -1.241  11.696  21.007  0.00  0.00    +0.000 A 
ATOM      4  C   UNL     1      -0.378  10.582  21.410  0.00  0.00    +0.000 A 
ATOM      5  C   UNL     1      -0.091  10.216  22.726  0.00  0.00    +0.000 A 
ATOM      6  C   UNL     1       0.820   9.184  22.961  0.00  0.00    +0.000 A 
ATOM      7  C   UNL     1       1.452   8.544  21.883  0.00  0.00    +0.000 A 
ATOM      8  C   UNL     1       1.138   8.903  20.576  0.00  0.00    +0.000 A 
ATOM      9  C   UNL     1       0.187   9.891  20.348  0.00  0.00    +0.000 A 
ATOM     10  C   UNL     1      -0.308  10.172  18.986  0.00  0.00    +0.000 A 
ATOM     11  O   UNL     1       0.410   9.849  18.047  0.00  0.00    +0.000 OA
ENDROOT
BRANCH   3  12
ATOM     12  C   UNL     1      -1.098  13.045  21.717  0.00  0.00    +0.000 C 
ATOM     13  O   UNL     1      -0.076  13.693  21.512  0.00  0.00    +0.000 OA
ATOM     14  N   UNL     1      -2.210  13.561  22.372  0.00  0.00    +0.000 N 
ATOM     15  C   UNL     1      -3.300  12.763  22.921  0.00  0.00    +0.000 C 
ATOM     16  C   UNL     1      -3.625  13.200  24.347  0.00  0.00    +0.000 C 
ATOM     17  C   UNL     1      -4.795  12.390  24.887  0.00  0.00    +0.000 C 
ATOM     18  C   UNL     1      -3.886  14.709  24.404  0.00  0.00    +0.000 C 
ATOM     19  C   UNL     1      -2.682  15.470  23.823  0.00  0.00    +0.000 C 
ATOM     20  C   UNL     1      -2.895  16.976  23.886  0.00  0.00    +0.000 C 
ATOM     21  C   UNL     1      -2.414  15.004  22.392  0.00  0.00    +0.000 C 
ENDBRANCH   3  12
BRANCH   1  26
ATOM     22  C   UNL     1      -4.462  11.594  16.658  0.00  0.00    +0.000 A 
ATOM     23  C   UNL     1      -4.101  10.886  15.516  0.00  0.00    +0.000 A 
ATOM     24  C   UNL     1      -2.953  10.104  15.506  0.00  0.00    +0.000 A 
ATOM     25  C   UNL     1      -2.146  10.035  16.642  0.00  0.00    +0.000 A 
ATOM     26  C   UNL     1      -2.438  10.780  17.786  0.00  0.00    +0.000 A 
ATOM     27  C   UNL     1      -3.625  11.555  17.781  0.00  0.00    +0.000 A 
BRANCH  22  29
ATOM     28  C   UNL     1      -6.561  12.187  17.625  0.00  0.00    +0.000 C 
ATOM     29  O   UNL     1      -5.651  12.259  16.540  0.00  0.00    +0.000 OA
ENDBRANCH  22  29
ENDBRANCH   1  26
TORSDOF 3
ENDMDL
MODEL 6
REMARK VINA RESULT:      -7.4      6.569     10.418
REMARK  Name = 
REMARK  6 active torsions:
REMARK  status: ('A' for Active; 'I' for Inactive)
REMARK    1  A    between atoms: C_1  and  O_2
REMARK    2  A    between atoms: O_2  and  C_3
REMARK    3  A    between atoms: C_7  and  N_8
REMARK    4  A    between atoms: C_10  and  C_11
REMARK    5  A    between atoms: C_15  and  C_16
REMARK    6  A    between atoms: C_18  and  C_19
REMARK                            x       y       z     vdW  Elec       q    Type
REMARK                         _______ _______ _______ _____ _____    ______ ____
ROOT
ATOM      1  N   UNL     1       5.927   4.303  15.008  0.00  0.00    +0.000 N 
ATOM      2  N   UNL     1       5.385   3.370  15.857  0.00  0.00    +0.000 NA
ATOM      3  C   UNL     1       5.403   3.605  17.134  0.00  0.00    +0.000 A 
ATOM      4  C   UNL     1       6.270   4.635  17.714  0.00  0.00    +0.000 A 
ATOM      5  C   UNL     1       6.827   4.596  18.993  0.00  0.00    +0.000 A 
ATOM      6  C   UNL     1       7.564   5.692  19.446  0.00  0.00    +0.000 A 
ATOM      7  C   UNL     1       7.718   6.823  18.629  0.00  0.00    +0.000 A 
ATOM      8  C   UNL     1       7.178   6.838  17.347  0.00  0.00    +0.000 A 
ATOM      9  C   UNL     1       6.495   5.721  16.880  0.00  0.00    +0.000 A 
ATOM     10  C   UNL     1       6.068   5.623  15.470  0.00  0.00    +0.000 A 
ATOM     11  O   UNL     1       5.936   6.669  14.848  0.00  0.00    +0.000 OA
ENDROOT
BRANCH   3  12
ATOM     12  C   UNL     1       4.276   3.013  17.983  0.00  0.00    +0.000 C 
ATOM     13  O   UNL     1       4.050   1.811  17.877  0.00  0.00    +0.000 OA
ATOM     14  N   UNL     1       3.720   3.809  18.978  0.00  0.00    +0.000 N 
ATOM     15  C   UNL     1       3.690   5.267  18.961  0.00  0.00    +0.000 C 
ATOM     16  C   UNL     1       2.294   5.783  19.297  0.00  0.00    +0.000 C 
ATOM     17  C   UNL     1       2.293   7.305  19.323  0.00  0.00    +0.000 C 
ATOM     18  C   UNL     1       1.796   5.178  20.614  0.00  0.00    +0.000 C 
ATOM     19  C   UNL     1       1.844   3.642  20.536  0.00  0.00    +0.000 C 
ATOM     20  C   UNL     1       1.332   3.005  21.820  0.00  0.00    +0.000 C 
ATOM     21  C   UNL     1       3.266   3.183  20.214  0.00  0.00    +0.000 C 
ENDBRANCH   3  12
BRANCH   1  26
ATOM     22  C   UNL     1       4.548   3.289  11.649  0.00  0.00    +0.000 A 
ATOM     23  C   UNL     1       5.722   3.178  10.910  0.00  0.00    +0.000 A 
ATOM     24  C   UNL     1       6.956   3.394  11.511  0.00  0.00    +0.000 A 
ATOM     25  C   UNL     1       7.022   3.739  12.862  0.00  0.00    +0.000 A 
ATOM     26  C   UNL     1       5.866   3.923  13.622  0.00  0.00    +0.000 A 
ATOM     27  C   UNL     1       4.619   3.677  12.993  0.00  0.00    +0.000 A 
BRANCH  22  29
ATOM     28  C   UNL     1       3.042   3.844   9.884  0.00  0.00    +0.000 C 
ATOM     29  O   UNL     1       3.421   2.977  10.939  0.00  0.00    +0.000 OA
ENDBRANCH  22  29
ENDBRANCH   1  26
TORSDOF 3
ENDMDL
MODEL 7
REMARK VINA RESULT:      -7.4      2.306      4.779
REMARK  Name = 
REMARK  6 active torsions:
REMARK  status: ('A' for Active; 'I' for Inactive)
REMARK    1  A    between atoms: C_1  and  O_2
REMARK    2  A    between atoms: O_2  and  C_3
REMARK    3  A    between atoms: C_7  and  N_8
REMARK    4  A    between atoms: C_10  and  C_11
REMARK    5  A    between atoms: C_15  and  C_16
REMARK    6  A    between atoms: C_18  and  C_19
REMARK                            x       y       z     vdW  Elec       q    Type
REMARK                         _______ _______ _______ _____ _____    ______ ____
ROOT
ATOM      1  N   UNL     1       1.621   9.258  19.296  0.00  0.00    +0.000 N 
ATOM      2  N   UNL     1       0.597   9.600  20.144  0.00  0.00    +0.000 NA
ATOM      3  C   UNL     1       0.275  10.853  20.258  0.00  0.00    +0.000 A 
ATOM      4  C   UNL     1       1.167  11.921  19.799  0.00  0.00    +0.000 A 
ATOM      5  C   UNL     1       1.255  13.197  20.357  0.00  0.00    +0.000 A 
ATOM      6  C   UNL     1       2.089  14.144  19.758  0.00  0.00    +0.000 A 
ATOM      7  C   UNL     1       2.808  13.816  18.598  0.00  0.00    +0.000 A 
ATOM      8  C   UNL     1       2.729  12.532  18.067  0.00  0.00    +0.000 A 
ATOM      9  C   UNL     1       1.942  11.578  18.701  0.00  0.00    +0.000 A 
ATOM     10  C   UNL     1       1.975  10.163  18.280  0.00  0.00    +0.000 A 
ATOM     11  O   UNL     1       2.350   9.922  17.139  0.00  0.00    +0.000 OA
ENDROOT
BRANCH   3  12
ATOM     12  C   UNL     1      -1.182  11.187  20.586  0.00  0.00    +0.000 C 
ATOM     13  O   UNL     1      -1.479  11.358  21.764  0.00  0.00    +0.000 OA
ATOM     14  N   UNL     1      -2.036  11.493  19.532  0.00  0.00    +0.000 N 
ATOM     15  C   UNL     1      -1.873  11.020  18.162  0.00  0.00    +0.000 C 
ATOM     16  C   UNL     1      -3.188  10.465  17.622  0.00  0.00    +0.000 C 
ATOM     17  C   UNL     1      -3.013  10.021  16.177  0.00  0.00    +0.000 C 
ATOM     18  C   UNL     1      -4.316  11.490  17.783  0.00  0.00    +0.000 C 
ATOM     19  C   UNL     1      -4.427  11.919  19.257  0.00  0.00    +0.000 C 
ATOM     20  C   UNL     1      -5.554  12.920  19.460  0.00  0.00    +0.000 C 
ATOM     21  C   UNL     1      -3.089  12.480  19.737  0.00  0.00    +0.000 C 
ENDBRANCH   3  12
BRANCH   1  26
ATOM     22  C   UNL     1       2.088   5.695  20.437  0.00  0.00    +0.000 A 
ATOM     23  C   UNL     1       2.435   5.082  19.236  0.00  0.00    +0.000 A 
ATOM     24  C   UNL     1       2.552   5.831  18.072  0.00  0.00    +0.000 A 
ATOM     25  C   UNL     1       2.309   7.205  18.099  0.00  0.00    +0.000 A 
ATOM     26  C   UNL     1       1.897   7.846  19.268  0.00  0.00    +0.000 A 
ATOM     27  C   UNL     1       1.804   7.067  20.449  0.00  0.00    +0.000 A 
BRANCH  22  29
ATOM     28  C   UNL     1       2.106   3.451  21.244  0.00  0.00    +0.000 C 
ATOM     29  O   UNL     1       2.083   4.843  21.507  0.00  0.00    +0.000 OA
ENDBRANCH  22  29
ENDBRANCH   1  26
TORSDOF 3
ENDMDL
MODEL 8
REMARK VINA RESULT:      -7.2      2.402      5.027
REMARK  Name = 
REMARK  6 active torsions:
REMARK  status: ('A' for Active; 'I' for Inactive)
REMARK    1  A    between atoms: C_1  and  O_2
REMARK    2  A    between atoms: O_2  and  C_3
REMARK    3  A    between atoms: C_7  and  N_8
REMARK    4  A    between atoms: C_10  and  C_11
REMARK    5  A    between atoms: C_15  and  C_16
REMARK    6  A    between atoms: C_18  and  C_19
REMARK                            x       y       z     vdW  Elec       q    Type
REMARK                         _______ _______ _______ _____ _____    ______ ____
ROOT
ATOM      1  N   UNL     1       1.072  10.439  18.980  0.00  0.00    +0.000 N 
ATOM      2  N   UNL     1      -0.293  10.592  18.974  0.00  0.00    +0.000 NA
ATOM      3  C   UNL     1      -0.786  11.771  18.744  0.00  0.00    +0.000 A 
ATOM      4  C   UNL     1       0.037  12.980  18.836  0.00  0.00    +0.000 A 
ATOM      5  C   UNL     1      -0.423  14.246  19.203  0.00  0.00    +0.000 A 
ATOM      6  C   UNL     1       0.460  15.327  19.163  0.00  0.00    +0.000 A 
ATOM      7  C   UNL     1       1.784  15.139  18.736  0.00  0.00    +0.000 A 
ATOM      8  C   UNL     1       2.235  13.868  18.397  0.00  0.00    +0.000 A 
ATOM      9  C   UNL     1       1.368  12.787  18.494  0.00  0.00    +0.000 A 
ATOM     10  C   UNL     1       1.854  11.403  18.322  0.00  0.00    +0.000 A 
ATOM     11  O   UNL     1       2.890  11.244  17.688  0.00  0.00    +0.000 OA
ENDROOT
BRANCH   3  12
ATOM     12  C   UNL     1      -2.154  11.850  18.063  0.00  0.00    +0.000 C 
ATOM     13  O   UNL     1      -2.203  11.657  16.852  0.00  0.00    +0.000 OA
ATOM     14  N   UNL     1      -3.284  11.918  18.872  0.00  0.00    +0.000 N 
ATOM     15  C   UNL     1      -3.310  12.457  20.226  0.00  0.00    +0.000 C 
ATOM     16  C   UNL     1      -4.475  13.428  20.399  0.00  0.00    +0.000 C 
ATOM     17  C   UNL     1      -4.515  13.943  21.830  0.00  0.00    +0.000 C 
ATOM     18  C   UNL     1      -5.794  12.770  19.980  0.00  0.00    +0.000 C 
ATOM     19  C   UNL     1      -5.682  12.247  18.537  0.00  0.00    +0.000 C 
ATOM     20  C   UNL     1      -6.984  11.608  18.077  0.00  0.00    +0.000 C 
ATOM     21  C   UNL     1      -4.512  11.270  18.427  0.00  0.00    +0.000 C 
ENDBRANCH   3  12
BRANCH   1  26
ATOM     22  C   UNL     1       2.562   7.004  18.539  0.00  0.00    +0.000 A 
ATOM     23  C   UNL     1       2.338   6.460  19.800  0.00  0.00    +0.000 A 
ATOM     24  C   UNL     1       1.673   7.194  20.775  0.00  0.00    +0.000 A 
ATOM     25  C   UNL     1       1.236   8.489  20.495  0.00  0.00    +0.000 A 
ATOM     26  C   UNL     1       1.497   9.094  19.265  0.00  0.00    +0.000 A 
ATOM     27  C   UNL     1       2.159   8.320  18.278  0.00  0.00    +0.000 A 
BRANCH  22  29
ATOM     28  C   UNL     1       4.004   5.132  18.206  0.00  0.00    +0.000 C 
ATOM     29  O   UNL     1       3.163   6.138  17.667  0.00  0.00    +0.000 OA
ENDBRANCH  22  29
ENDBRANCH   1  26
TORSDOF 3
ENDMDL
MODEL 9
REMARK VINA RESULT:      -7.2      3.787      7.873
REMARK  Name = 
REMARK  6 active torsions:
REMARK  status: ('A' for Active; 'I' for Inactive)
REMARK    1  A    between atoms: C_1  and  O_2
REMARK    2  A    between atoms: O_2  and  C_3
REMARK    3  A    between atoms: C_7  and  N_8
REMARK    4  A    between atoms: C_10  and  C_11
REMARK    5  A    between atoms: C_15  and  C_16
REMARK    6  A    between atoms: C_18  and  C_19
REMARK                            x       y       z     vdW  Elec       q    Type
REMARK                         _______ _______ _______ _____ _____    ______ ____
ROOT
ATOM      1  N   UNL     1      -2.151  13.569  22.282  0.00  0.00    +0.000 N 
ATOM      2  N   UNL     1      -1.714  13.699  20.987  0.00  0.00    +0.000 NA
ATOM      3  C   UNL     1      -1.085  12.703  20.440  0.00  0.00    +0.000 A 
ATOM      4  C   UNL     1      -0.530  11.609  21.242  0.00  0.00    +0.000 A 
ATOM      5  C   UNL     1       0.603  10.861  20.917  0.00  0.00    +0.000 A 
ATOM      6  C   UNL     1       0.966   9.789  21.735  0.00  0.00    +0.000 A 
ATOM      7  C   UNL     1       0.184   9.460  22.853  0.00  0.00    +0.000 A 
ATOM      8  C   UNL     1      -0.929  10.228  23.178  0.00  0.00    +0.000 A 
ATOM      9  C   UNL     1      -1.252  11.329  22.394  0.00  0.00    +0.000 A 
ATOM     10  C   UNL     1      -2.308  12.275  22.807  0.00  0.00    +0.000 A 
ATOM     11  O   UNL     1      -3.159  11.864  23.585  0.00  0.00    +0.000 OA
ENDROOT
BRANCH   3  12
ATOM     12  C   UNL     1      -1.212  12.526  18.925  0.00  0.00    +0.000 C 
ATOM     13  O   UNL     1      -0.262  12.869  18.227  0.00  0.00    +0.000 OA
ATOM     14  N   UNL     1      -2.289  11.794  18.439  0.00  0.00    +0.000 N 
ATOM     15  C   UNL     1      -3.569  11.642  19.120  0.00  0.00    +0.000 C 
ATOM     16  C   UNL     1      -4.727  11.904  18.160  0.00  0.00    +0.000 C 
ATOM     17  C   UNL     1      -6.054  11.693  18.875  0.00  0.00    +0.000 C 
ATOM     18  C   UNL     1      -4.597  11.033  16.906  0.00  0.00    +0.000 C 
ATOM     19  C   UNL     1      -3.228  11.270  16.244  0.00  0.00    +0.000 C 
ATOM     20  C   UNL     1      -3.073  10.440  14.978  0.00  0.00    +0.000 C 
ATOM     21  C   UNL     1      -2.110  10.978  17.244  0.00  0.00    +0.000 C 
ENDBRANCH   3  12
BRANCH   1  26
ATOM     22  C   UNL     1      -2.802  16.751  24.196  0.00  0.00    +0.000 A 
ATOM     23  C   UNL     1      -4.097  17.044  23.779  0.00  0.00    +0.000 A 
ATOM     24  C   UNL     1      -4.766  16.191  22.910  0.00  0.00    +0.000 A 
ATOM     25  C   UNL     1      -4.135  15.039  22.440  0.00  0.00    +0.000 A 
ATOM     26  C   UNL     1      -2.815  14.743  22.784  0.00  0.00    +0.000 A 
ATOM     27  C   UNL     1      -2.158  15.616  23.688  0.00  0.00    +0.000 A 
BRANCH  22  29
ATOM     28  C   UNL     1      -1.394  17.158  26.079  0.00  0.00    +0.000 C 
ATOM     29  O   UNL     1      -2.303  17.644  25.105  0.00  0.00    +0.000 OA
ENDBRANCH  22  29
ENDBRANCH   1  26
TORSDOF 3
ENDMDL
