MODEL 1
REMARK VINA RESULT:      -9.3      0.000      0.000
REMARK  Name = 
REMARK  5 active torsions:
REMARK  status: ('A' for Active; 'I' for Inactive)
REMARK    1  A    between atoms: C_1  and  C_2
REMARK    2  A    between atoms: C_8  and  N_9
REMARK    3  A    between atoms: N_12  and  C_13
REMARK    4  A    between atoms: C_17  and  C_18
REMARK    5  A    between atoms: C_18  and  N_19
REMARK                            x       y       z     vdW  Elec       q    Type
REMARK                         _______ _______ _______ _____ _____    ______ ____
ROOT
ATOM      1  N   UNL     1       9.043   8.970  18.905  0.00  0.00    +0.000 N 
ATOM      2  C   UNL     1       8.009   8.418  18.173  0.00  0.00    +0.000 C 
ATOM      3  O   UNL     1       7.256   9.133  17.524  0.00  0.00    +0.000 OA
ATOM      4  N   UNL     1       7.943   7.046  18.275  0.00  0.00    +0.000 N 
ATOM      5  H   UNL     1       9.380   8.409  19.672  0.00  0.00    +0.000 HD
ATOM      6  H   UNL     1       8.476   6.601  19.007  0.00  0.00    +0.000 HD
ENDROOT
BRANCH   1  14
ATOM      7  C   UNL     1      11.582  13.310  16.402  0.00  0.00    +0.000 C 
ATOM      8  C   UNL     1      11.025  13.471  17.762  0.00  0.00    +0.000 A 
ATOM      9  N   UNL     1      11.079  14.561  18.501  0.00  0.00    +0.000 NA
ATOM     10  N   UNL     1      10.462  14.302  19.702  0.00  0.00    +0.000 NA
ATOM     11  C   UNL     1      10.046  13.058  19.678  0.00  0.00    +0.000 A 
ATOM     12  N   UNL     1      10.371  12.500  18.472  0.00  0.00    +0.000 N 
ATOM     13  C   UNL     1      10.099  11.125  18.104  0.00  0.00    +0.000 C 
ATOM     14  C   UNL     1       9.098  10.432  19.068  0.00  0.00    +0.000 C 
ATOM     15  C   UNL     1       9.421  10.805  20.524  0.00  0.00    +0.000 C 
ATOM     16  C   UNL     1       9.308  12.317  20.728  0.00  0.00    +0.000 C 
ENDBRANCH   1  14
BRANCH   4  17
ATOM     17  C   UNL     1       6.976   6.237  17.622  0.00  0.00    +0.000 A 
ATOM     18  C   UNL     1       7.287   5.442  16.514  0.00  0.00    +0.000 A 
ATOM     19  C   UNL     1       6.303   4.699  15.867  0.00  0.00    +0.000 A 
ATOM     20  C   UNL     1       4.984   4.749  16.311  0.00  0.00    +0.000 A 
ATOM     21  C   UNL     1       4.642   5.530  17.423  0.00  0.00    +0.000 A 
ATOM     22  C   UNL     1       5.654   6.247  18.094  0.00  0.00    +0.000 A 
BRANCH  21  23
ATOM     23  C   UNL     1       3.195   5.639  17.846  0.00  0.00    +0.000 C 
BRANCH  23  24
ATOM     24  N   UNL     1       2.735   4.460  18.581  0.00  0.00    +0.000 N 
ATOM     25  C   UNL     1       3.424   4.126  19.824  0.00  0.00    +0.000 C 
ATOM     26  C   UNL     1       3.125   2.723  20.323  0.00  0.00    +0.000 C 
ATOM     27  C   UNL     1       1.621   2.557  20.405  0.00  0.00    +0.000 C 
ATOM     28  C   UNL     1       1.007   2.716  19.026  0.00  0.00    +0.000 C 
ATOM     29  C   UNL     1       1.570   3.836  18.168  0.00  0.00    +0.000 C 
ATOM     30  O   UNL     1       1.001   4.134  17.115  0.00  0.00    +0.000 OA
ENDBRANCH  23  24
ENDBRANCH  21  23
ENDBRANCH   4  17
TORSDOF 4
ENDMDL
MODEL 2
REMARK VINA RESULT:      -8.7      0.888      1.192
REMARK  Name = 
REMARK  5 active torsions:
REMARK  status: ('A' for Active; 'I' for Inactive)
REMARK    1  A    between atoms: C_1  and  C_2
REMARK    2  A    between atoms: C_8  and  N_9
REMARK    3  A    between atoms: N_12  and  C_13
REMARK    4  A    between atoms: C_17  and  C_18
REMARK    5  A    between atoms: C_18  and  N_19
REMARK                            x       y       z     vdW  Elec       q    Type
REMARK                         _______ _______ _______ _____ _____    ______ ____
ROOT
ATOM      1  N   UNL     1       9.011   8.904  18.934  0.00  0.00    +0.000 N 
ATOM      2  C   UNL     1       7.999   8.321  18.196  0.00  0.00    +0.000 C 
ATOM      3  O   UNL     1       7.246   9.012  17.521  0.00  0.00    +0.000 OA
ATOM      4  N   UNL     1       7.953   6.951  18.322  0.00  0.00    +0.000 N 
ATOM      5  H   UNL     1       9.345   8.363  19.717  0.00  0.00    +0.000 HD
ATOM      6  H   UNL     1       8.481   6.528  19.070  0.00  0.00    +0.000 HD
ENDROOT
BRANCH   1  14
ATOM      7  C   UNL     1      11.533  13.237  16.401  0.00  0.00    +0.000 C 
ATOM      8  C   UNL     1      10.945  13.414  17.746  0.00  0.00    +0.000 A 
ATOM      9  N   UNL     1      10.967  14.518  18.465  0.00  0.00    +0.000 NA
ATOM     10  N   UNL     1      10.330  14.272  19.659  0.00  0.00    +0.000 NA
ATOM     11  C   UNL     1       9.935  13.021  19.650  0.00  0.00    +0.000 A 
ATOM     12  N   UNL     1      10.293  12.446  18.461  0.00  0.00    +0.000 N 
ATOM     13  C   UNL     1      10.050  11.060  18.113  0.00  0.00    +0.000 C 
ATOM     14  C   UNL     1       9.041  10.369  19.071  0.00  0.00    +0.000 C 
ATOM     15  C   UNL     1       9.328  10.774  20.525  0.00  0.00    +0.000 C 
ATOM     16  C   UNL     1       9.187  12.288  20.698  0.00  0.00    +0.000 C 
ENDBRANCH   1  14
BRANCH   4  17
ATOM     17  C   UNL     1       7.010   6.115  17.669  0.00  0.00    +0.000 A 
ATOM     18  C   UNL     1       7.384   5.162  16.716  0.00  0.00    +0.000 A 
ATOM     19  C   UNL     1       6.429   4.392  16.058  0.00  0.00    +0.000 A 
ATOM     20  C   UNL     1       5.075   4.572  16.334  0.00  0.00    +0.000 A 
ATOM     21  C   UNL     1       4.669   5.514  17.289  0.00  0.00    +0.000 A 
ATOM     22  C   UNL     1       5.648   6.259  17.977  0.00  0.00    +0.000 A 
BRANCH  21  23
ATOM     23  C   UNL     1       3.195   5.756  17.522  0.00  0.00    +0.000 C 
BRANCH  23  24
ATOM     24  N   UNL     1       2.583   4.727  18.365  0.00  0.00    +0.000 N 
ATOM     25  C   UNL     1       2.234   3.457  17.734  0.00  0.00    +0.000 C 
ATOM     26  C   UNL     1       1.303   2.602  18.576  0.00  0.00    +0.000 C 
ATOM     27  C   UNL     1       1.915   2.443  19.953  0.00  0.00    +0.000 C 
ATOM     28  C   UNL     1       2.050   3.800  20.619  0.00  0.00    +0.000 C 
ATOM     29  C   UNL     1       2.536   4.934  19.732  0.00  0.00    +0.000 C 
ATOM     30  O   UNL     1       2.837   6.015  20.246  0.00  0.00    +0.000 OA
ENDBRANCH  23  24
ENDBRANCH  21  23
ENDBRANCH   4  17
TORSDOF 4
ENDMDL
MODEL 3
REMARK VINA RESULT:      -8.6      5.589      6.983
REMARK  Name = 
REMARK  5 active torsions:
REMARK  status: ('A' for Active; 'I' for Inactive)
REMARK    1  A    between atoms: C_1  and  C_2
REMARK    2  A    between atoms: C_8  and  N_9
REMARK    3  A    between atoms: N_12  and  C_13
REMARK    4  A    between atoms: C_17  and  C_18
REMARK    5  A    between atoms: C_18  and  N_19
REMARK                            x       y       z     vdW  Elec       q    Type
REMARK                         _______ _______ _______ _____ _____    ______ ____
ROOT
ATOM      1  N   UNL     1       2.612   9.228  18.320  0.00  0.00    +0.000 N 
ATOM      2  C   UNL     1       2.727   7.949  17.810  0.00  0.00    +0.000 C 
ATOM      3  O   UNL     1       1.730   7.262  17.625  0.00  0.00    +0.000 OA
ATOM      4  N   UNL     1       4.029   7.577  17.561  0.00  0.00    +0.000 N 
ATOM      5  H   UNL     1       3.436   9.589  18.776  0.00  0.00    +0.000 HD
ATOM      6  H   UNL     1       4.765   8.143  17.957  0.00  0.00    +0.000 HD
ENDROOT
BRANCH   1  14
ATOM      7  C   UNL     1      -0.288  14.029  18.623  0.00  0.00    +0.000 C 
ATOM      8  C   UNL     1      -0.658  12.892  19.494  0.00  0.00    +0.000 A 
ATOM      9  N   UNL     1      -1.620  12.883  20.394  0.00  0.00    +0.000 NA
ATOM     10  N   UNL     1      -1.634  11.649  21.002  0.00  0.00    +0.000 NA
ATOM     11  C   UNL     1      -0.677  10.929  20.466  0.00  0.00    +0.000 A 
ATOM     12  N   UNL     1      -0.043  11.669  19.505  0.00  0.00    +0.000 N 
ATOM     13  C   UNL     1       1.090  11.208  18.728  0.00  0.00    +0.000 C 
ATOM     14  C   UNL     1       1.308   9.674  18.838  0.00  0.00    +0.000 C 
ATOM     15  C   UNL     1       1.115   9.214  20.292  0.00  0.00    +0.000 C 
ATOM     16  C   UNL     1      -0.305   9.527  20.769  0.00  0.00    +0.000 C 
ENDBRANCH   1  14
BRANCH   4  17
ATOM     17  C   UNL     1       4.419   6.317  17.036  0.00  0.00    +0.000 A 
ATOM     18  C   UNL     1       5.220   6.195  15.897  0.00  0.00    +0.000 A 
ATOM     19  C   UNL     1       5.544   4.943  15.380  0.00  0.00    +0.000 A 
ATOM     20  C   UNL     1       5.059   3.788  15.989  0.00  0.00    +0.000 A 
ATOM     21  C   UNL     1       4.260   3.878  17.137  0.00  0.00    +0.000 A 
ATOM     22  C   UNL     1       3.973   5.149  17.674  0.00  0.00    +0.000 A 
BRANCH  21  23
ATOM     23  C   UNL     1       3.676   2.623  17.742  0.00  0.00    +0.000 C 
BRANCH  23  24
ATOM     24  N   UNL     1       2.941   2.886  18.981  0.00  0.00    +0.000 N 
ATOM     25  C   UNL     1       1.531   3.246  18.867  0.00  0.00    +0.000 C 
ATOM     26  C   UNL     1       0.953   3.834  20.143  0.00  0.00    +0.000 C 
ATOM     27  C   UNL     1       1.241   2.878  21.282  0.00  0.00    +0.000 C 
ATOM     28  C   UNL     1       2.740   2.725  21.463  0.00  0.00    +0.000 C 
ATOM     29  C   UNL     1       3.558   2.606  20.188  0.00  0.00    +0.000 C 
ATOM     30  O   UNL     1       4.751   2.302  20.263  0.00  0.00    +0.000 OA
ENDBRANCH  23  24
ENDBRANCH  21  23
ENDBRANCH   4  17
TORSDOF 4
ENDMDL
MODEL 4
REMARK VINA RESULT:      -8.6      5.539      7.652
REMARK  Name = 
REMARK  5 active torsions:
REMARK  status: ('A' for Active; 'I' for Inactive)
REMARK    1  A    between atoms: C_1  and  C_2
REMARK    2  A    between atoms: C_8  and  N_9
REMARK    3  A    between atoms: N_12  and  C_13
REMARK    4  A    between atoms: C_17  and  C_18
REMARK    5  A    between atoms: C_18  and  N_19
REMARK                            x       y       z     vdW  Elec       q    Type
REMARK                         _______ _______ _______ _____ _____    ______ ____
ROOT
ATOM      1  N   UNL     1       2.212   9.433  18.349  0.00  0.00    +0.000 N 
ATOM      2  C   UNL     1       2.413   8.162  17.846  0.00  0.00    +0.000 C 
ATOM      3  O   UNL     1       1.461   7.421  17.632  0.00  0.00    +0.000 OA
ATOM      4  N   UNL     1       3.741   7.861  17.641  0.00  0.00    +0.000 N 
ATOM      5  H   UNL     1       2.999   9.839  18.830  0.00  0.00    +0.000 HD
ATOM      6  H   UNL     1       4.431   8.466  18.059  0.00  0.00    +0.000 HD
ENDROOT
BRANCH   1  14
ATOM      7  C   UNL     1      -2.806  10.544  16.084  0.00  0.00    +0.000 C 
ATOM      8  C   UNL     1      -2.515  10.975  17.468  0.00  0.00    +0.000 A 
ATOM      9  N   UNL     1      -3.327  11.643  18.262  0.00  0.00    +0.000 NA
ATOM     10  N   UNL     1      -2.681  11.864  19.456  0.00  0.00    +0.000 NA
ATOM     11  C   UNL     1      -1.485  11.331  19.369  0.00  0.00    +0.000 A 
ATOM     12  N   UNL     1      -1.341  10.752  18.137  0.00  0.00    +0.000 N 
ATOM     13  C   UNL     1      -0.135  10.098  17.674  0.00  0.00    +0.000 C 
ATOM     14  C   UNL     1       0.870   9.808  18.823  0.00  0.00    +0.000 C 
ATOM     15  C   UNL     1       0.946  11.011  19.776  0.00  0.00    +0.000 C 
ATOM     16  C   UNL     1      -0.423  11.289  20.401  0.00  0.00    +0.000 C 
ENDBRANCH   1  14
BRANCH   4  17
ATOM     17  C   UNL     1       4.215   6.624  17.133  0.00  0.00    +0.000 A 
ATOM     18  C   UNL     1       5.160   6.548  16.104  0.00  0.00    +0.000 A 
ATOM     19  C   UNL     1       5.567   5.317  15.596  0.00  0.00    +0.000 A 
ATOM     20  C   UNL     1       5.025   4.138  16.100  0.00  0.00    +0.000 A 
ATOM     21  C   UNL     1       4.082   4.181  17.136  0.00  0.00    +0.000 A 
ATOM     22  C   UNL     1       3.707   5.430  17.670  0.00  0.00    +0.000 A 
BRANCH  21  23
ATOM     23  C   UNL     1       3.443   2.900  17.620  0.00  0.00    +0.000 C 
BRANCH  23  24
ATOM     24  N   UNL     1       2.811   3.048  18.932  0.00  0.00    +0.000 N 
ATOM     25  C   UNL     1       1.382   3.342  18.964  0.00  0.00    +0.000 C 
ATOM     26  C   UNL     1       0.894   3.821  20.321  0.00  0.00    +0.000 C 
ATOM     27  C   UNL     1       1.325   2.812  21.366  0.00  0.00    +0.000 C 
ATOM     28  C   UNL     1       2.840   2.724  21.406  0.00  0.00    +0.000 C 
ATOM     29  C   UNL     1       3.545   2.726  20.060  0.00  0.00    +0.000 C 
ATOM     30  O   UNL     1       4.753   2.478  20.012  0.00  0.00    +0.000 OA
ENDBRANCH  23  24
ENDBRANCH  21  23
ENDBRANCH   4  17
TORSDOF 4
ENDMDL
MODEL 5
REMARK VINA RESULT:      -8.5      5.219      7.566
REMARK  Name = 
REMARK  5 active torsions:
REMARK  status: ('A' for Active; 'I' for Inactive)
REMARK    1  A    between atoms: C_1  and  C_2
REMARK    2  A    between atoms: C_8  and  N_9
REMARK    3  A    between atoms: N_12  and  C_13
REMARK    4  A    between atoms: C_17  and  C_18
REMARK    5  A    between atoms: C_18  and  N_19
REMARK                            x       y       z     vdW  Elec       q    Type
REMARK                         _______ _______ _______ _____ _____    ______ ____
ROOT
ATOM      1  N   UNL     1       1.585   9.042  17.618  0.00  0.00    +0.000 N 
ATOM      2  C   UNL     1       2.441   8.096  18.148  0.00  0.00    +0.000 C 
ATOM      3  O   UNL     1       2.327   7.738  19.314  0.00  0.00    +0.000 OA
ATOM      4  N   UNL     1       3.381   7.646  17.248  0.00  0.00    +0.000 N 
ATOM      5  H   UNL     1       1.935   9.544  16.817  0.00  0.00    +0.000 HD
ATOM      6  H   UNL     1       3.508   8.172  16.397  0.00  0.00    +0.000 HD
ENDROOT
BRANCH   1  14
ATOM      7  C   UNL     1      -3.797  10.648  17.654  0.00  0.00    +0.000 C 
ATOM      8  C   UNL     1      -2.834  11.288  18.577  0.00  0.00    +0.000 A 
ATOM      9  N   UNL     1      -3.101  12.255  19.431  0.00  0.00    +0.000 NA
ATOM     10  N   UNL     1      -1.940  12.583  20.091  0.00  0.00    +0.000 NA
ATOM     11  C   UNL     1      -0.984  11.814  19.625  0.00  0.00    +0.000 A 
ATOM     12  N   UNL     1      -1.505  10.976  18.676  0.00  0.00    +0.000 N 
ATOM     13  C   UNL     1      -0.733  10.011  17.920  0.00  0.00    +0.000 C 
ATOM     14  C   UNL     1       0.679   9.769  18.522  0.00  0.00    +0.000 C 
ATOM     15  C   UNL     1       1.304  11.102  18.961  0.00  0.00    +0.000 C 
ATOM     16  C   UNL     1       0.440  11.773  20.032  0.00  0.00    +0.000 C 
ENDBRANCH   1  14
BRANCH   4  17
ATOM     17  C   UNL     1       4.375   6.676  17.540  0.00  0.00    +0.000 A 
ATOM     18  C   UNL     1       5.743   6.959  17.475  0.00  0.00    +0.000 A 
ATOM     19  C   UNL     1       6.692   5.971  17.720  0.00  0.00    +0.000 A 
ATOM     20  C   UNL     1       6.287   4.673  18.023  0.00  0.00    +0.000 A 
ATOM     21  C   UNL     1       4.924   4.359  18.103  0.00  0.00    +0.000 A 
ATOM     22  C   UNL     1       3.973   5.378  17.892  0.00  0.00    +0.000 A 
BRANCH  21  23
ATOM     23  C   UNL     1       4.498   2.931  18.353  0.00  0.00    +0.000 C 
BRANCH  23  24
ATOM     24  N   UNL     1       3.263   2.842  19.134  0.00  0.00    +0.000 N 
ATOM     25  C   UNL     1       3.334   3.183  20.552  0.00  0.00    +0.000 C 
ATOM     26  C   UNL     1       2.118   2.732  21.343  0.00  0.00    +0.000 C 
ATOM     27  C   UNL     1       0.878   3.265  20.657  0.00  0.00    +0.000 C 
ATOM     28  C   UNL     1       0.775   2.693  19.255  0.00  0.00    +0.000 C 
ATOM     29  C   UNL     1       2.071   2.623  18.465  0.00  0.00    +0.000 C 
ATOM     30  O   UNL     1       2.032   2.337  17.265  0.00  0.00    +0.000 OA
ENDBRANCH  23  24
ENDBRANCH  21  23
ENDBRANCH   4  17
TORSDOF 4
ENDMDL
MODEL 6
REMARK VINA RESULT:      -8.5      5.274      7.653
REMARK  Name = 
REMARK  5 active torsions:
REMARK  status: ('A' for Active; 'I' for Inactive)
REMARK    1  A    between atoms: C_1  and  C_2
REMARK    2  A    between atoms: C_8  and  N_9
REMARK    3  A    between atoms: N_12  and  C_13
REMARK    4  A    between atoms: C_17  and  C_18
REMARK    5  A    between atoms: C_18  and  N_19
REMARK                            x       y       z     vdW  Elec       q    Type
REMARK                         _______ _______ _______ _____ _____    ______ ____
ROOT
ATOM      1  N   UNL     1       1.649   9.519  17.696  0.00  0.00    +0.000 N 
ATOM      2  C   UNL     1       2.351   8.382  18.048  0.00  0.00    +0.000 C 
ATOM      3  O   UNL     1       2.065   7.767  19.069  0.00  0.00    +0.000 OA
ATOM      4  N   UNL     1       3.352   8.062  17.159  0.00  0.00    +0.000 N 
ATOM      5  H   UNL     1       2.136  10.158  17.086  0.00  0.00    +0.000 HD
ATOM      6  H   UNL     1       3.626   8.762  16.486  0.00  0.00    +0.000 HD
ENDROOT
BRANCH   1  14
ATOM      7  C   UNL     1      -3.736  11.117  17.754  0.00  0.00    +0.000 C 
ATOM      8  C   UNL     1      -2.814  11.604  18.803  0.00  0.00    +0.000 A 
ATOM      9  N   UNL     1      -3.119  12.430  19.784  0.00  0.00    +0.000 NA
ATOM     10  N   UNL     1      -1.987  12.649  20.534  0.00  0.00    +0.000 NA
ATOM     11  C   UNL     1      -1.011  11.958  19.996  0.00  0.00    +0.000 A 
ATOM     12  N   UNL     1      -1.489  11.277  18.909  0.00  0.00    +0.000 N 
ATOM     13  C   UNL     1      -0.683  10.438  18.046  0.00  0.00    +0.000 C 
ATOM     14  C   UNL     1       0.704  10.101  18.662  0.00  0.00    +0.000 C 
ATOM     15  C   UNL     1       1.305  11.349  19.326  0.00  0.00    +0.000 C 
ATOM     16  C   UNL     1       0.395  11.850  20.450  0.00  0.00    +0.000 C 
ENDBRANCH   1  14
BRANCH   4  17
ATOM     17  C   UNL     1       4.217   6.945  17.290  0.00  0.00    +0.000 A 
ATOM     18  C   UNL     1       5.593   7.029  17.053  0.00  0.00    +0.000 A 
ATOM     19  C   UNL     1       6.406   5.902  17.142  0.00  0.00    +0.000 A 
ATOM     20  C   UNL     1       5.852   4.664  17.460  0.00  0.00    +0.000 A 
ATOM     21  C   UNL     1       4.478   4.549  17.711  0.00  0.00    +0.000 A 
ATOM     22  C   UNL     1       3.672   5.704  17.656  0.00  0.00    +0.000 A 
BRANCH  21  23
ATOM     23  C   UNL     1       3.877   3.188  17.977  0.00  0.00    +0.000 C 
BRANCH  23  24
ATOM     24  N   UNL     1       3.071   3.159  19.198  0.00  0.00    +0.000 N 
ATOM     25  C   UNL     1       1.664   3.533  19.089  0.00  0.00    +0.000 C 
ATOM     26  C   UNL     1       1.007   3.812  20.430  0.00  0.00    +0.000 C 
ATOM     27  C   UNL     1       1.245   2.620  21.334  0.00  0.00    +0.000 C 
ATOM     28  C   UNL     1       2.733   2.431  21.561  0.00  0.00    +0.000 C 
ATOM     29  C   UNL     1       3.623   2.610  20.342  0.00  0.00    +0.000 C 
ATOM     30  O   UNL     1       4.815   2.298  20.414  0.00  0.00    +0.000 OA
ENDBRANCH  23  24
ENDBRANCH  21  23
ENDBRANCH   4  17
TORSDOF 4
ENDMDL
MODEL 7
REMARK VINA RESULT:      -8.5      1.093      1.224
REMARK  Name = 
REMARK  5 active torsions:
REMARK  status: ('A' for Active; 'I' for Inactive)
REMARK    1  A    between atoms: C_1  and  C_2
REMARK    2  A    between atoms: C_8  and  N_9
REMARK    3  A    between atoms: N_12  and  C_13
REMARK    4  A    between atoms: C_17  and  C_18
REMARK    5  A    between atoms: C_18  and  N_19
REMARK                            x       y       z     vdW  Elec       q    Type
REMARK                         _______ _______ _______ _____ _____    ______ ____
ROOT
ATOM      1  N   UNL     1       9.115   8.963  18.960  0.00  0.00    +0.000 N 
ATOM      2  C   UNL     1       8.046   8.413  18.279  0.00  0.00    +0.000 C 
ATOM      3  O   UNL     1       7.272   9.130  17.657  0.00  0.00    +0.000 OA
ATOM      4  N   UNL     1       7.974   7.043  18.393  0.00  0.00    +0.000 N 
ATOM      5  H   UNL     1       9.482   8.404  19.716  0.00  0.00    +0.000 HD
ATOM      6  H   UNL     1       8.534   6.599  19.104  0.00  0.00    +0.000 HD
ENDROOT
BRANCH   1  14
ATOM      7  C   UNL     1      11.887  13.221  16.567  0.00  0.00    +0.000 C 
ATOM      8  C   UNL     1      11.251  13.410  17.889  0.00  0.00    +0.000 A 
ATOM      9  N   UNL     1      11.282  14.508  18.616  0.00  0.00    +0.000 NA
ATOM     10  N   UNL     1      10.588  14.276  19.781  0.00  0.00    +0.000 NA
ATOM     11  C   UNL     1      10.150  13.040  19.746  0.00  0.00    +0.000 A 
ATOM     12  N   UNL     1      10.537  12.460  18.568  0.00  0.00    +0.000 N 
ATOM     13  C   UNL     1      10.261  11.087  18.200  0.00  0.00    +0.000 C 
ATOM     14  C   UNL     1       9.190  10.425  19.110  0.00  0.00    +0.000 C 
ATOM     15  C   UNL     1       9.431  10.810  20.577  0.00  0.00    +0.000 C 
ATOM     16  C   UNL     1       9.335  12.327  20.757  0.00  0.00    +0.000 C 
ENDBRANCH   1  14
BRANCH   4  17
ATOM     17  C   UNL     1       6.972   6.238  17.789  0.00  0.00    +0.000 A 
ATOM     18  C   UNL     1       6.401   6.553  16.553  0.00  0.00    +0.000 A 
ATOM     19  C   UNL     1       5.386   5.768  16.012  0.00  0.00    +0.000 A 
ATOM     20  C   UNL     1       4.914   4.658  16.708  0.00  0.00    +0.000 A 
ATOM     21  C   UNL     1       5.471   4.312  17.946  0.00  0.00    +0.000 A 
ATOM     22  C   UNL     1       6.526   5.091  18.465  0.00  0.00    +0.000 A 
BRANCH  21  23
ATOM     23  C   UNL     1       4.898   3.153  18.728  0.00  0.00    +0.000 C 
BRANCH  23  24
ATOM     24  N   UNL     1       3.578   3.450  19.287  0.00  0.00    +0.000 N 
ATOM     25  C   UNL     1       3.476   4.566  20.223  0.00  0.00    +0.000 C 
ATOM     26  C   UNL     1       2.175   4.579  21.007  0.00  0.00    +0.000 C 
ATOM     27  C   UNL     1       1.024   4.511  20.023  0.00  0.00    +0.000 C 
ATOM     28  C   UNL     1       1.094   3.216  19.234  0.00  0.00    +0.000 C 
ATOM     29  C   UNL     1       2.477   2.790  18.769  0.00  0.00    +0.000 C 
ATOM     30  O   UNL     1       2.584   1.850  17.977  0.00  0.00    +0.000 OA
ENDBRANCH  23  24
ENDBRANCH  21  23
ENDBRANCH   4  17
TORSDOF 4
ENDMDL
MODEL 8
REMARK VINA RESULT:      -8.4      5.592      6.951
REMARK  Name = 
REMARK  5 active torsions:
REMARK  status: ('A' for Active; 'I' for Inactive)
REMARK    1  A    between atoms: C_1  and  C_2
REMARK    2  A    between atoms: C_8  and  N_9
REMARK    3  A    between atoms: N_12  and  C_13
REMARK    4  A    between atoms: C_17  and  C_18
REMARK    5  A    between atoms: C_18  and  N_19
REMARK                            x       y       z     vdW  Elec       q    Type
REMARK                         _______ _______ _______ _____ _____    ______ ____
ROOT
ATOM      1  N   UNL     1       2.003   9.057  18.610  0.00  0.00    +0.000 N 
ATOM      2  C   UNL     1       2.455   7.769  18.395  0.00  0.00    +0.000 C 
ATOM      3  O   UNL     1       1.957   6.827  18.998  0.00  0.00    +0.000 OA
ATOM      4  N   UNL     1       3.479   7.698  17.477  0.00  0.00    +0.000 N 
ATOM      5  H   UNL     1       2.657   9.790  18.384  0.00  0.00    +0.000 HD
ATOM      6  H   UNL     1       3.942   8.556  17.220  0.00  0.00    +0.000 HD
ENDROOT
BRANCH   1  14
ATOM      7  C   UNL     1      -0.314  13.511  21.128  0.00  0.00    +0.000 C 
ATOM      8  C   UNL     1      -0.304  12.202  21.816  0.00  0.00    +0.000 A 
ATOM      9  N   UNL     1      -0.778  11.952  23.020  0.00  0.00    +0.000 NA
ATOM     10  N   UNL     1      -0.566  10.623  23.303  0.00  0.00    +0.000 NA
ATOM     11  C   UNL     1       0.037  10.086  22.269  0.00  0.00    +0.000 A 
ATOM     12  N   UNL     1       0.213  11.041  21.306  0.00  0.00    +0.000 N 
ATOM     13  C   UNL     1       0.878  10.817  20.038  0.00  0.00    +0.000 C 
ATOM     14  C   UNL     1       1.071   9.308  19.721  0.00  0.00    +0.000 C 
ATOM     15  C   UNL     1       1.516   8.555  20.984  0.00  0.00    +0.000 C 
ATOM     16  C   UNL     1       0.457   8.677  22.083  0.00  0.00    +0.000 C 
ENDBRANCH   1  14
BRANCH   4  17
ATOM     17  C   UNL     1       4.119   6.495  17.078  0.00  0.00    +0.000 A 
ATOM     18  C   UNL     1       5.176   6.475  16.163  0.00  0.00    +0.000 A 
ATOM     19  C   UNL     1       5.749   5.273  15.756  0.00  0.00    +0.000 A 
ATOM     20  C   UNL     1       5.264   4.065  16.250  0.00  0.00    +0.000 A 
ATOM     21  C   UNL     1       4.210   4.052  17.174  0.00  0.00    +0.000 A 
ATOM     22  C   UNL     1       3.665   5.277  17.608  0.00  0.00    +0.000 A 
BRANCH  21  23
ATOM     23  C   UNL     1       3.640   2.733  17.642  0.00  0.00    +0.000 C 
BRANCH  23  24
ATOM     24  N   UNL     1       2.914   2.851  18.907  0.00  0.00    +0.000 N 
ATOM     25  C   UNL     1       3.694   2.802  20.141  0.00  0.00    +0.000 C 
ATOM     26  C   UNL     1       2.847   2.580  21.382  0.00  0.00    +0.000 C 
ATOM     27  C   UNL     1       1.749   3.624  21.404  0.00  0.00    +0.000 C 
ATOM     28  C   UNL     1       0.860   3.467  20.184  0.00  0.00    +0.000 C 
ATOM     29  C   UNL     1       1.572   3.185  18.871  0.00  0.00    +0.000 C 
ATOM     30  O   UNL     1       0.931   3.223  17.817  0.00  0.00    +0.000 OA
ENDBRANCH  23  24
ENDBRANCH  21  23
ENDBRANCH   4  17
TORSDOF 4
ENDMDL
MODEL 9
REMARK VINA RESULT:      -8.4      1.639      2.401
REMARK  Name = 
REMARK  5 active torsions:
REMARK  status: ('A' for Active; 'I' for Inactive)
REMARK    1  A    between atoms: C_1  and  C_2
REMARK    2  A    between atoms: C_8  and  N_9
REMARK    3  A    between atoms: N_12  and  C_13
REMARK    4  A    between atoms: C_17  and  C_18
REMARK    5  A    between atoms: C_18  and  N_19
REMARK                            x       y       z     vdW  Elec       q    Type
REMARK                         _______ _______ _______ _____ _____    ______ ____
ROOT
ATOM      1  N   UNL     1       8.973   8.974  18.937  0.00  0.00    +0.000 N 
ATOM      2  C   UNL     1       8.005   8.430  18.115  0.00  0.00    +0.000 C 
ATOM      3  O   UNL     1       7.325   9.150  17.395  0.00  0.00    +0.000 OA
ATOM      4  N   UNL     1       7.914   7.059  18.215  0.00  0.00    +0.000 N 
ATOM      5  H   UNL     1       9.231   8.413  19.735  0.00  0.00    +0.000 HD
ATOM      6  H   UNL     1       8.371   6.612  18.995  0.00  0.00    +0.000 HD
ENDROOT
BRANCH   1  14
ATOM      7  C   UNL     1      11.520  13.307  16.430  0.00  0.00    +0.000 C 
ATOM      8  C   UNL     1      10.962  13.471  17.790  0.00  0.00    +0.000 A 
ATOM      9  N   UNL     1      11.017  14.562  18.527  0.00  0.00    +0.000 NA
ATOM     10  N   UNL     1      10.399  14.305  19.729  0.00  0.00    +0.000 NA
ATOM     11  C   UNL     1       9.982  13.061  19.706  0.00  0.00    +0.000 A 
ATOM     12  N   UNL     1      10.307  12.501  18.500  0.00  0.00    +0.000 N 
ATOM     13  C   UNL     1      10.033  11.127  18.134  0.00  0.00    +0.000 C 
ATOM     14  C   UNL     1       9.031  10.436  19.099  0.00  0.00    +0.000 C 
ATOM     15  C   UNL     1       9.354  10.810  20.554  0.00  0.00    +0.000 C 
ATOM     16  C   UNL     1       9.243  12.323  20.757  0.00  0.00    +0.000 C 
ENDBRANCH   1  14
BRANCH   4  17
ATOM     17  C   UNL     1       7.002   6.259  17.479  0.00  0.00    +0.000 A 
ATOM     18  C   UNL     1       7.344   5.655  16.265  0.00  0.00    +0.000 A 
ATOM     19  C   UNL     1       6.409   4.917  15.544  0.00  0.00    +0.000 A 
ATOM     20  C   UNL     1       5.108   4.779  16.021  0.00  0.00    +0.000 A 
ATOM     21  C   UNL     1       4.737   5.365  17.238  0.00  0.00    +0.000 A 
ATOM     22  C   UNL     1       5.702   6.077  17.978  0.00  0.00    +0.000 A 
BRANCH  21  23
ATOM     23  C   UNL     1       3.303   5.276  17.706  0.00  0.00    +0.000 C 
BRANCH  23  24
ATOM     24  N   UNL     1       2.833   6.520  18.317  0.00  0.00    +0.000 N 
ATOM     25  C   UNL     1       2.611   7.663  17.438  0.00  0.00    +0.000 C 
ATOM     26  C   UNL     1       2.470   8.980  18.183  0.00  0.00    +0.000 C 
ATOM     27  C   UNL     1       1.398   8.817  19.241  0.00  0.00    +0.000 C 
ATOM     28  C   UNL     1       1.811   7.747  20.235  0.00  0.00    +0.000 C 
ATOM     29  C   UNL     1       2.450   6.499  19.647  0.00  0.00    +0.000 C 
ATOM     30  O   UNL     1       2.645   5.522  20.374  0.00  0.00    +0.000 OA
ENDBRANCH  23  24
ENDBRANCH  21  23
ENDBRANCH   4  17
TORSDOF 4
ENDMDL
