MODEL 1
REMARK VINA RESULT:      -7.1      0.000      0.000
REMARK  Name = 
REMARK  6 active torsions:
REMARK  status: ('A' for Active; 'I' for Inactive)
REMARK    1  A    between atoms: C_1  and  N_2
REMARK    2  A    between atoms: N_2  and  C_3
REMARK    3  A    between atoms: N_2  and  C_4
REMARK    4  A    between atoms: C_4  and  C_5
REMARK    5  A    between atoms: C_5  and  N_6
REMARK    6  A    between atoms: N_14  and  C_15
REMARK                            x       y       z     vdW  Elec       q    Type
REMARK                         _______ _______ _______ _____ _____    ______ ____
ROOT
ATOM      1  N   UNL     1       0.357  12.885  20.149  0.00  0.00    +0.000 N 
ATOM      2  C   UNL     1      -0.078  12.853  21.443  0.00  0.00    +0.000 A 
ATOM      3  N   UNL     1       0.009  11.646  21.951  0.00  0.00    +0.000 NA
ATOM      4  C   UNL     1       0.558  10.863  20.956  0.00  0.00    +0.000 A 
ATOM      5  C   UNL     1       0.938   9.510  20.926  0.00  0.00    +0.000 A 
ATOM      6 CL   UNL     1       0.595   8.673  22.387  0.00  0.00    +0.000 Cl
ATOM      7  C   UNL     1       1.535   8.930  19.766  0.00  0.00    +0.000 A 
ATOM      8  C   UNL     1       2.013   7.609  19.599  0.00  0.00    +0.000 A 
ATOM      9  N   UNL     1       2.059   6.696  20.680  0.00  0.00    +0.000 N 
ATOM     10  N   UNL     1       2.558   7.185  18.438  0.00  0.00    +0.000 NA
ATOM     11  C   UNL     1       2.622   8.053  17.433  0.00  0.00    +0.000 A 
ATOM     12  N   UNL     1       2.193   9.312  17.472  0.00  0.00    +0.000 NA
ATOM     13  C   UNL     1       1.671   9.739  18.620  0.00  0.00    +0.000 A 
ATOM     14  C   UNL     1       1.271  11.066  18.634  0.00  0.00    +0.000 A 
ATOM     15  C   UNL     1       0.753  11.618  19.805  0.00  0.00    +0.000 A 
ATOM     16  H   UNL     1       1.437   6.986  21.433  0.00  0.00    +0.000 HD
ENDROOT
BRANCH   9  17
ATOM     17  C   UNL     1       1.978   5.287  20.550  0.00  0.00    +0.000 A 
ATOM     18  C   UNL     1       0.725   4.694  20.356  0.00  0.00    +0.000 A 
ATOM     19  C   UNL     1       0.612   3.315  20.163  0.00  0.00    +0.000 A 
ATOM     20  C   UNL     1       1.757   2.519  20.129  0.00  0.00    +0.000 A 
ATOM     21  C   UNL     1       3.009   3.109  20.283  0.00  0.00    +0.000 A 
ATOM     22 BR   UNL     1       4.568   2.042  20.210  0.00  0.00    +0.000 Br
ATOM     23  C   UNL     1       3.123   4.484  20.482  0.00  0.00    +0.000 A 
ENDBRANCH   9  17
BRANCH   1  24
ATOM     24  C   UNL     1       0.495  14.084  19.344  0.00  0.00    +0.000 C 
BRANCH  24  25
ATOM     25  C   UNL     1       1.885  14.719  19.474  0.00  0.00    +0.000 C 
BRANCH  25  27
ATOM     26  C   UNL     1       1.642  16.895  18.469  0.00  0.00    +0.000 C 
ATOM     27  N   UNL     1       2.263  15.573  18.330  0.00  0.00    +0.000 NA
ATOM     28  C   UNL     1       3.714  15.728  18.196  0.00  0.00    +0.000 C 
ENDBRANCH  25  27
ENDBRANCH  24  25
ENDBRANCH   1  24
TORSDOF 4
ENDMDL
MODEL 2
REMARK VINA RESULT:      -7.0      0.791      1.131
REMARK  Name = 
REMARK  6 active torsions:
REMARK  status: ('A' for Active; 'I' for Inactive)
REMARK    1  A    between atoms: C_1  and  N_2
REMARK    2  A    between atoms: N_2  and  C_3
REMARK    3  A    between atoms: N_2  and  C_4
REMARK    4  A    between atoms: C_4  and  C_5
REMARK    5  A    between atoms: C_5  and  N_6
REMARK    6  A    between atoms: N_14  and  C_15
REMARK                            x       y       z     vdW  Elec       q    Type
REMARK                         _______ _______ _______ _____ _____    ______ ____
ROOT
ATOM      1  N   UNL     1       0.291  12.681  19.654  0.00  0.00    +0.000 N 
ATOM      2  C   UNL     1      -0.292  12.686  20.889  0.00  0.00    +0.000 A 
ATOM      3  N   UNL     1      -0.242  11.501  21.449  0.00  0.00    +0.000 NA
ATOM      4  C   UNL     1       0.434  10.695  20.556  0.00  0.00    +0.000 A 
ATOM      5  C   UNL     1       0.841   9.351  20.623  0.00  0.00    +0.000 A 
ATOM      6 CL   UNL     1       0.345   8.560  22.066  0.00  0.00    +0.000 Cl
ATOM      7  C   UNL     1       1.581   8.743  19.564  0.00  0.00    +0.000 A 
ATOM      8  C   UNL     1       2.101   7.428  19.506  0.00  0.00    +0.000 A 
ATOM      9  N   UNL     1       2.036   6.557  20.620  0.00  0.00    +0.000 N 
ATOM     10  N   UNL     1       2.785   6.976  18.434  0.00  0.00    +0.000 NA
ATOM     11  C   UNL     1       2.950   7.808  17.410  0.00  0.00    +0.000 A 
ATOM     12  N   UNL     1       2.496   9.057  17.350  0.00  0.00    +0.000 NA
ATOM     13  C   UNL     1       1.834   9.514  18.412  0.00  0.00    +0.000 A 
ATOM     14  C   UNL     1       1.411  10.830  18.327  0.00  0.00    +0.000 A 
ATOM     15  C   UNL     1       0.749  11.412  19.408  0.00  0.00    +0.000 A 
ATOM     16  H   UNL     1       1.325   6.860  21.283  0.00  0.00    +0.000 HD
ENDROOT
BRANCH   9  17
ATOM     17  C   UNL     1       1.999   5.143  20.536  0.00  0.00    +0.000 A 
ATOM     18  C   UNL     1       0.764   4.506  20.359  0.00  0.00    +0.000 A 
ATOM     19  C   UNL     1       0.693   3.119  20.211  0.00  0.00    +0.000 A 
ATOM     20  C   UNL     1       1.861   2.357  20.206  0.00  0.00    +0.000 A 
ATOM     21  C   UNL     1       3.094   2.989  20.343  0.00  0.00    +0.000 A 
ATOM     22 BR   UNL     1       4.685   1.968  20.309  0.00  0.00    +0.000 Br
ATOM     23  C   UNL     1       3.167   4.373  20.497  0.00  0.00    +0.000 A 
ENDBRANCH   9  17
BRANCH   1  24
ATOM     24  C   UNL     1       0.500  13.853  18.824  0.00  0.00    +0.000 C 
BRANCH  24  25
ATOM     25  C   UNL     1      -0.421  15.017  19.214  0.00  0.00    +0.000 C 
BRANCH  25  27
ATOM     26  C   UNL     1       1.600  16.197  18.647  0.00  0.00    +0.000 C 
ATOM     27  N   UNL     1       0.206  16.347  19.079  0.00  0.00    +0.000 NA
ATOM     28  C   UNL     1      -0.506  17.214  18.136  0.00  0.00    +0.000 C 
ENDBRANCH  25  27
ENDBRANCH  24  25
ENDBRANCH   1  24
TORSDOF 4
ENDMDL
MODEL 3
REMARK VINA RESULT:      -6.8      3.907      8.818
REMARK  Name = 
REMARK  6 active torsions:
REMARK  status: ('A' for Active; 'I' for Inactive)
REMARK    1  A    between atoms: C_1  and  N_2
REMARK    2  A    between atoms: N_2  and  C_3
REMARK    3  A    between atoms: N_2  and  C_4
REMARK    4  A    between atoms: C_4  and  C_5
REMARK    5  A    between atoms: C_5  and  N_6
REMARK    6  A    between atoms: N_14  and  C_15
REMARK                            x       y       z     vdW  Elec       q    Type
REMARK                         _______ _______ _______ _____ _____    ______ ____
ROOT
ATOM      1  N   UNL     1       2.438   7.449  18.782  0.00  0.00    +0.000 N 
ATOM      2  C   UNL     1       2.631   8.113  17.605  0.00  0.00    +0.000 A 
ATOM      3  N   UNL     1       2.075   9.302  17.627  0.00  0.00    +0.000 NA
ATOM      4  C   UNL     1       1.526   9.434  18.886  0.00  0.00    +0.000 A 
ATOM      5  C   UNL     1       0.857  10.498  19.514  0.00  0.00    +0.000 A 
ATOM      6 CL   UNL     1       0.636  11.862  18.491  0.00  0.00    +0.000 Cl
ATOM      7  C   UNL     1       0.412  10.403  20.867  0.00  0.00    +0.000 A 
ATOM      8  C   UNL     1      -0.226  11.397  21.648  0.00  0.00    +0.000 A 
ATOM      9  N   UNL     1      -0.392  12.719  21.170  0.00  0.00    +0.000 N 
ATOM     10  N   UNL     1      -0.601  11.173  22.925  0.00  0.00    +0.000 NA
ATOM     11  C   UNL     1      -0.364   9.968  23.436  0.00  0.00    +0.000 A 
ATOM     12  N   UNL     1       0.215   8.958  22.793  0.00  0.00    +0.000 NA
ATOM     13  C   UNL     1       0.602   9.179  21.538  0.00  0.00    +0.000 A 
ATOM     14  C   UNL     1       1.235   8.116  20.915  0.00  0.00    +0.000 A 
ATOM     15  C   UNL     1       1.717   8.266  19.615  0.00  0.00    +0.000 A 
ATOM     16  H   UNL     1      -0.312  12.756  20.155  0.00  0.00    +0.000 HD
ENDROOT
BRANCH   9  17
ATOM     17  C   UNL     1      -1.432  13.595  21.569  0.00  0.00    +0.000 A 
ATOM     18  C   UNL     1      -1.114  14.721  22.338  0.00  0.00    +0.000 A 
ATOM     19  C   UNL     1      -2.102  15.640  22.698  0.00  0.00    +0.000 A 
ATOM     20  C   UNL     1      -3.415  15.460  22.264  0.00  0.00    +0.000 A 
ATOM     21  C   UNL     1      -3.730  14.363  21.466  0.00  0.00    +0.000 A 
ATOM     22 BR   UNL     1      -5.501  14.125  20.849  0.00  0.00    +0.000 Br
ATOM     23  C   UNL     1      -2.747  13.441  21.111  0.00  0.00    +0.000 A 
ENDBRANCH   9  17
BRANCH   1  24
ATOM     24  C   UNL     1       3.018   6.163  19.120  0.00  0.00    +0.000 C 
BRANCH  24  25
ATOM     25  C   UNL     1       2.261   4.994  18.478  0.00  0.00    +0.000 C 
BRANCH  25  27
ATOM     26  C   UNL     1       1.361   2.839  19.068  0.00  0.00    +0.000 C 
ATOM     27  N   UNL     1       1.381   4.265  19.413  0.00  0.00    +0.000 NA
ATOM     28  C   UNL     1       1.789   4.422  20.812  0.00  0.00    +0.000 C 
ENDBRANCH  25  27
ENDBRANCH  24  25
ENDBRANCH   1  24
TORSDOF 4
ENDMDL
MODEL 4
REMARK VINA RESULT:      -6.7      1.466      1.733
REMARK  Name = 
REMARK  6 active torsions:
REMARK  status: ('A' for Active; 'I' for Inactive)
REMARK    1  A    between atoms: C_1  and  N_2
REMARK    2  A    between atoms: N_2  and  C_3
REMARK    3  A    between atoms: N_2  and  C_4
REMARK    4  A    between atoms: C_4  and  C_5
REMARK    5  A    between atoms: C_5  and  N_6
REMARK    6  A    between atoms: N_14  and  C_15
REMARK                            x       y       z     vdW  Elec       q    Type
REMARK                         _______ _______ _______ _____ _____    ______ ____
ROOT
ATOM      1  N   UNL     1      -1.256  13.078  21.513  0.00  0.00    +0.000 N 
ATOM      2  C   UNL     1      -1.456  12.761  22.826  0.00  0.00    +0.000 A 
ATOM      3  N   UNL     1      -1.004  11.561  23.105  0.00  0.00    +0.000 NA
ATOM      4  C   UNL     1      -0.453  11.088  21.932  0.00  0.00    +0.000 A 
ATOM      5  C   UNL     1       0.228   9.898  21.625  0.00  0.00    +0.000 A 
ATOM      6 CL   UNL     1       0.334   8.812  22.953  0.00  0.00    +0.000 Cl
ATOM      7  C   UNL     1       0.751   9.654  20.319  0.00  0.00    +0.000 A 
ATOM      8  C   UNL     1       1.496   8.538  19.871  0.00  0.00    +0.000 A 
ATOM      9  N   UNL     1       1.931   7.532  20.767  0.00  0.00    +0.000 N 
ATOM     10  N   UNL     1       1.931   8.430  18.598  0.00  0.00    +0.000 NA
ATOM     11  C   UNL     1       1.623   9.412  17.755  0.00  0.00    +0.000 A 
ATOM     12  N   UNL     1       0.920  10.499  18.061  0.00  0.00    +0.000 NA
ATOM     13  C   UNL     1       0.503  10.617  19.320  0.00  0.00    +0.000 A 
ATOM     14  C   UNL     1      -0.192  11.780  19.609  0.00  0.00    +0.000 A 
ATOM     15  C   UNL     1      -0.631  12.016  20.912  0.00  0.00    +0.000 A 
ATOM     16  H   UNL     1       1.387   7.546  21.629  0.00  0.00    +0.000 HD
ENDROOT
BRANCH   9  17
ATOM     17  C   UNL     1       2.168   6.181  20.410  0.00  0.00    +0.000 A 
ATOM     18  C   UNL     1       1.170   5.229  20.654  0.00  0.00    +0.000 A 
ATOM     19  C   UNL     1       1.342   3.900  20.260  0.00  0.00    +0.000 A 
ATOM     20  C   UNL     1       2.502   3.516  19.587  0.00  0.00    +0.000 A 
ATOM     21  C   UNL     1       3.481   4.466  19.308  0.00  0.00    +0.000 A 
ATOM     22 BR   UNL     1       5.043   3.961  18.371  0.00  0.00    +0.000 Br
ATOM     23  C   UNL     1       3.314   5.792  19.705  0.00  0.00    +0.000 A 
ENDBRANCH   9  17
BRANCH   1  24
ATOM     24  C   UNL     1      -1.539  14.369  20.913  0.00  0.00    +0.000 C 
BRANCH  24  25
ATOM     25  C   UNL     1      -0.267  15.190  20.667  0.00  0.00    +0.000 C 
BRANCH  25  27
ATOM     26  C   UNL     1      -0.418  16.675  18.777  0.00  0.00    +0.000 C 
ATOM     27  N   UNL     1       0.064  15.369  19.239  0.00  0.00    +0.000 NA
ATOM     28  C   UNL     1       1.500  15.257  18.973  0.00  0.00    +0.000 C 
ENDBRANCH  25  27
ENDBRANCH  24  25
ENDBRANCH   1  24
TORSDOF 4
ENDMDL
MODEL 5
REMARK VINA RESULT:      -6.7      1.160      1.377
REMARK  Name = 
REMARK  6 active torsions:
REMARK  status: ('A' for Active; 'I' for Inactive)
REMARK    1  A    between atoms: C_1  and  N_2
REMARK    2  A    between atoms: N_2  and  C_3
REMARK    3  A    between atoms: N_2  and  C_4
REMARK    4  A    between atoms: C_4  and  C_5
REMARK    5  A    between atoms: C_5  and  N_6
REMARK    6  A    between atoms: N_14  and  C_15
REMARK                            x       y       z     vdW  Elec       q    Type
REMARK                         _______ _______ _______ _____ _____    ______ ____
ROOT
ATOM      1  N   UNL     1      -0.696  12.849  20.700  0.00  0.00    +0.000 N 
ATOM      2  C   UNL     1      -1.231  12.550  21.920  0.00  0.00    +0.000 A 
ATOM      3  N   UNL     1      -1.004  11.301  22.252  0.00  0.00    +0.000 NA
ATOM      4  C   UNL     1      -0.258  10.771  21.219  0.00  0.00    +0.000 A 
ATOM      5  C   UNL     1       0.326   9.506  21.034  0.00  0.00    +0.000 A 
ATOM      6 CL   UNL     1      -0.009   8.406  22.311  0.00  0.00    +0.000 Cl
ATOM      7  C   UNL     1       1.104   9.208  19.873  0.00  0.00    +0.000 A 
ATOM      8  C   UNL     1       1.791   8.009  19.568  0.00  0.00    +0.000 A 
ATOM      9  N   UNL     1       1.883   6.950  20.503  0.00  0.00    +0.000 N 
ATOM     10  N   UNL     1       2.493   7.857  18.425  0.00  0.00    +0.000 NA
ATOM     11  C   UNL     1       2.509   8.876  17.570  0.00  0.00    +0.000 A 
ATOM     12  N   UNL     1       1.891  10.040  17.746  0.00  0.00    +0.000 NA
ATOM     13  C   UNL     1       1.212  10.201  18.880  0.00  0.00    +0.000 A 
ATOM     14  C   UNL     1       0.614  11.440  19.044  0.00  0.00    +0.000 A 
ATOM     15  C   UNL     1      -0.082  11.721  20.219  0.00  0.00    +0.000 A 
ATOM     16  H   UNL     1       1.161   7.027  21.218  0.00  0.00    +0.000 HD
ENDROOT
BRANCH   9  17
ATOM     17  C   UNL     1       2.031   5.583  20.161  0.00  0.00    +0.000 A 
ATOM     18  C   UNL     1       1.171   4.641  20.740  0.00  0.00    +0.000 A 
ATOM     19  C   UNL     1       1.246   3.293  20.381  0.00  0.00    +0.000 A 
ATOM     20  C   UNL     1       2.161   2.878  19.414  0.00  0.00    +0.000 A 
ATOM     21  C   UNL     1       2.993   3.816  18.808  0.00  0.00    +0.000 A 
ATOM     22 BR   UNL     1       4.216   3.268  17.475  0.00  0.00    +0.000 Br
ATOM     23  C   UNL     1       2.924   5.161  19.168  0.00  0.00    +0.000 A 
ENDBRANCH   9  17
BRANCH   1  24
ATOM     24  C   UNL     1      -0.675  14.169  20.098  0.00  0.00    +0.000 C 
BRANCH  24  25
ATOM     25  C   UNL     1       0.545  14.991  20.534  0.00  0.00    +0.000 C 
BRANCH  25  27
ATOM     26  C   UNL     1       2.037  14.985  18.643  0.00  0.00    +0.000 C 
ATOM     27  N   UNL     1       1.133  15.809  19.455  0.00  0.00    +0.000 NA
ATOM     28  C   UNL     1       0.119  16.417  18.590  0.00  0.00    +0.000 C 
ENDBRANCH  25  27
ENDBRANCH  24  25
ENDBRANCH   1  24
TORSDOF 4
ENDMDL
MODEL 6
REMARK VINA RESULT:      -6.7      4.040      8.735
REMARK  Name = 
REMARK  6 active torsions:
REMARK  status: ('A' for Active; 'I' for Inactive)
REMARK    1  A    between atoms: C_1  and  N_2
REMARK    2  A    between atoms: N_2  and  C_3
REMARK    3  A    between atoms: N_2  and  C_4
REMARK    4  A    between atoms: C_4  and  C_5
REMARK    5  A    between atoms: C_5  and  N_6
REMARK    6  A    between atoms: N_14  and  C_15
REMARK                            x       y       z     vdW  Elec       q    Type
REMARK                         _______ _______ _______ _____ _____    ______ ____
ROOT
ATOM      1  N   UNL     1       2.548   7.481  18.651  0.00  0.00    +0.000 N 
ATOM      2  C   UNL     1       2.671   8.201  17.497  0.00  0.00    +0.000 A 
ATOM      3  N   UNL     1       2.066   9.362  17.589  0.00  0.00    +0.000 NA
ATOM      4  C   UNL     1       1.556   9.417  18.869  0.00  0.00    +0.000 A 
ATOM      5  C   UNL     1       0.864  10.424  19.564  0.00  0.00    +0.000 A 
ATOM      6 CL   UNL     1       0.548  11.818  18.609  0.00  0.00    +0.000 Cl
ATOM      7  C   UNL     1       0.470  10.253  20.926  0.00  0.00    +0.000 A 
ATOM      8  C   UNL     1      -0.182  11.184  21.769  0.00  0.00    +0.000 A 
ATOM      9  N   UNL     1      -0.422  12.516  21.354  0.00  0.00    +0.000 N 
ATOM     10  N   UNL     1      -0.502  10.891  23.047  0.00  0.00    +0.000 NA
ATOM     11  C   UNL     1      -0.196   9.678  23.498  0.00  0.00    +0.000 A 
ATOM     12  N   UNL     1       0.403   8.722  22.794  0.00  0.00    +0.000 NA
ATOM     13  C   UNL     1       0.736   9.012  21.538  0.00  0.00    +0.000 A 
ATOM     14  C   UNL     1       1.392   8.005  20.850  0.00  0.00    +0.000 A 
ATOM     15  C   UNL     1       1.822   8.230  19.542  0.00  0.00    +0.000 A 
ATOM     16  H   UNL     1      -0.379  12.599  20.339  0.00  0.00    +0.000 HD
ENDROOT
BRANCH   9  17
ATOM     17  C   UNL     1      -1.485  13.328  21.824  0.00  0.00    +0.000 A 
ATOM     18  C   UNL     1      -2.732  13.248  21.192  0.00  0.00    +0.000 A 
ATOM     19  C   UNL     1      -3.819  13.986  21.665  0.00  0.00    +0.000 A 
ATOM     20  C   UNL     1      -3.678  14.789  22.797  0.00  0.00    +0.000 A 
ATOM     21  C   UNL     1      -2.450  14.843  23.452  0.00  0.00    +0.000 A 
ATOM     22 BR   UNL     1      -2.257  15.906  25.003  0.00  0.00    +0.000 Br
ATOM     23  C   UNL     1      -1.362  14.112  22.978  0.00  0.00    +0.000 A 
ENDBRANCH   9  17
BRANCH   1  24
ATOM     24  C   UNL     1       3.195   6.210  18.915  0.00  0.00    +0.000 C 
BRANCH  24  25
ATOM     25  C   UNL     1       2.240   5.022  18.743  0.00  0.00    +0.000 C 
BRANCH  25  27
ATOM     26  C   UNL     1       1.829   4.255  20.988  0.00  0.00    +0.000 C 
ATOM     27  N   UNL     1       2.465   3.927  19.708  0.00  0.00    +0.000 NA
ATOM     28  C   UNL     1       1.961   2.638  19.228  0.00  0.00    +0.000 C 
ENDBRANCH  25  27
ENDBRANCH  24  25
ENDBRANCH   1  24
TORSDOF 4
ENDMDL
MODEL 7
REMARK VINA RESULT:      -6.7      4.034      8.703
REMARK  Name = 
REMARK  6 active torsions:
REMARK  status: ('A' for Active; 'I' for Inactive)
REMARK    1  A    between atoms: C_1  and  N_2
REMARK    2  A    between atoms: N_2  and  C_3
REMARK    3  A    between atoms: N_2  and  C_4
REMARK    4  A    between atoms: C_4  and  C_5
REMARK    5  A    between atoms: C_5  and  N_6
REMARK    6  A    between atoms: N_14  and  C_15
REMARK                            x       y       z     vdW  Elec       q    Type
REMARK                         _______ _______ _______ _____ _____    ______ ____
ROOT
ATOM      1  N   UNL     1       2.524   7.539  18.791  0.00  0.00    +0.000 N 
ATOM      2  C   UNL     1       2.585   8.175  17.584  0.00  0.00    +0.000 A 
ATOM      3  N   UNL     1       1.886   9.286  17.591  0.00  0.00    +0.000 NA
ATOM      4  C   UNL     1       1.376   9.397  18.868  0.00  0.00    +0.000 A 
ATOM      5  C   UNL     1       0.604  10.394  19.489  0.00  0.00    +0.000 A 
ATOM      6 CL   UNL     1       0.174  11.680  18.433  0.00  0.00    +0.000 Cl
ATOM      7  C   UNL     1       0.228  10.298  20.863  0.00  0.00    +0.000 A 
ATOM      8  C   UNL     1      -0.497  11.234  21.638  0.00  0.00    +0.000 A 
ATOM      9  N   UNL     1      -0.847  12.506  21.124  0.00  0.00    +0.000 N 
ATOM     10  N   UNL     1      -0.790  11.015  22.937  0.00  0.00    +0.000 NA
ATOM     11  C   UNL     1      -0.384   9.870  23.477  0.00  0.00    +0.000 A 
ATOM     12  N   UNL     1       0.291   8.915  22.843  0.00  0.00    +0.000 NA
ATOM     13  C   UNL     1       0.597   9.133  21.566  0.00  0.00    +0.000 A 
ATOM     14  C   UNL     1       1.333   8.133  20.952  0.00  0.00    +0.000 A 
ATOM     15  C   UNL     1       1.740   8.291  19.627  0.00  0.00    +0.000 A 
ATOM     16  H   UNL     1      -0.812  12.514  20.105  0.00  0.00    +0.000 HD
ENDROOT
BRANCH   9  17
ATOM     17  C   UNL     1      -1.972  13.262  21.539  0.00  0.00    +0.000 A 
ATOM     18  C   UNL     1      -1.767  14.513  22.133  0.00  0.00    +0.000 A 
ATOM     19  C   UNL     1      -2.852  15.314  22.499  0.00  0.00    +0.000 A 
ATOM     20  C   UNL     1      -4.154  14.884  22.243  0.00  0.00    +0.000 A 
ATOM     21  C   UNL     1      -4.362  13.658  21.618  0.00  0.00    +0.000 A 
ATOM     22 BR   UNL     1      -6.122  13.080  21.241  0.00  0.00    +0.000 Br
ATOM     23  C   UNL     1      -3.281  12.854  21.257  0.00  0.00    +0.000 A 
ENDBRANCH   9  17
BRANCH   1  24
ATOM     24  C   UNL     1       3.274   6.348  19.146  0.00  0.00    +0.000 C 
BRANCH  24  25
ATOM     25  C   UNL     1       2.438   5.069  19.010  0.00  0.00    +0.000 C 
BRANCH  25  27
ATOM     26  C   UNL     1       3.966   4.467  17.248  0.00  0.00    +0.000 C 
ATOM     27  N   UNL     1       2.571   4.403  17.699  0.00  0.00    +0.000 NA
ATOM     28  C   UNL     1       2.132   3.006  17.727  0.00  0.00    +0.000 C 
ENDBRANCH  25  27
ENDBRANCH  24  25
ENDBRANCH   1  24
TORSDOF 4
ENDMDL
MODEL 8
REMARK VINA RESULT:      -6.6      1.206      1.364
REMARK  Name = 
REMARK  6 active torsions:
REMARK  status: ('A' for Active; 'I' for Inactive)
REMARK    1  A    between atoms: C_1  and  N_2
REMARK    2  A    between atoms: N_2  and  C_3
REMARK    3  A    between atoms: N_2  and  C_4
REMARK    4  A    between atoms: C_4  and  C_5
REMARK    5  A    between atoms: C_5  and  N_6
REMARK    6  A    between atoms: N_14  and  C_15
REMARK                            x       y       z     vdW  Elec       q    Type
REMARK                         _______ _______ _______ _____ _____    ______ ____
ROOT
ATOM      1  N   UNL     1      -0.335  12.438  19.438  0.00  0.00    +0.000 N 
ATOM      2  C   UNL     1      -1.029  12.350  20.611  0.00  0.00    +0.000 A 
ATOM      3  N   UNL     1      -0.880  11.173  21.171  0.00  0.00    +0.000 NA
ATOM      4  C   UNL     1      -0.024  10.473  20.345  0.00  0.00    +0.000 A 
ATOM      5  C   UNL     1       0.544   9.192  20.448  0.00  0.00    +0.000 A 
ATOM      6 CL   UNL     1       0.019   8.323  21.834  0.00  0.00    +0.000 Cl
ATOM      7  C   UNL     1       1.454   8.700  19.463  0.00  0.00    +0.000 A 
ATOM      8  C   UNL     1       2.142   7.463  19.452  0.00  0.00    +0.000 A 
ATOM      9  N   UNL     1       2.085   6.575  20.553  0.00  0.00    +0.000 N 
ATOM     10  N   UNL     1       2.978   7.118  18.450  0.00  0.00    +0.000 NA
ATOM     11  C   UNL     1       3.131   7.979  17.449  0.00  0.00    +0.000 A 
ATOM     12  N   UNL     1       2.528   9.161  17.349  0.00  0.00    +0.000 NA
ATOM     13  C   UNL     1       1.715   9.513  18.342  0.00  0.00    +0.000 A 
ATOM     14  C   UNL     1       1.136  10.765  18.221  0.00  0.00    +0.000 A 
ATOM     15  C   UNL     1       0.304  11.242  19.234  0.00  0.00    +0.000 A 
ATOM     16  H   UNL     1       1.280   6.774  21.145  0.00  0.00    +0.000 HD
ENDROOT
BRANCH   9  17
ATOM     17  C   UNL     1       2.237   5.168  20.463  0.00  0.00    +0.000 A 
ATOM     18  C   UNL     1       2.107   4.396  21.623  0.00  0.00    +0.000 A 
ATOM     19  C   UNL     1       2.190   3.003  21.564  0.00  0.00    +0.000 A 
ATOM     20  C   UNL     1       2.371   2.365  20.337  0.00  0.00    +0.000 A 
ATOM     21  C   UNL     1       2.463   3.127  19.175  0.00  0.00    +0.000 A 
ATOM     22 BR   UNL     1       2.679   2.271  17.503  0.00  0.00    +0.000 Br
ATOM     23  C   UNL     1       2.386   4.518  19.232  0.00  0.00    +0.000 A 
ENDBRANCH   9  17
BRANCH   1  24
ATOM     24  C   UNL     1      -0.201  13.639  18.635  0.00  0.00    +0.000 C 
BRANCH  24  25
ATOM     25  C   UNL     1       0.493  14.776  19.395  0.00  0.00    +0.000 C 
BRANCH  25  27
ATOM     26  C   UNL     1       2.653  15.199  18.415  0.00  0.00    +0.000 C 
ATOM     27  N   UNL     1       1.950  14.591  19.551  0.00  0.00    +0.000 NA
ATOM     28  C   UNL     1       2.461  15.158  20.801  0.00  0.00    +0.000 C 
ENDBRANCH  25  27
ENDBRANCH  24  25
ENDBRANCH   1  24
TORSDOF 4
ENDMDL
MODEL 9
REMARK VINA RESULT:      -6.6      3.979      8.782
REMARK  Name = 
REMARK  6 active torsions:
REMARK  status: ('A' for Active; 'I' for Inactive)
REMARK    1  A    between atoms: C_1  and  N_2
REMARK    2  A    between atoms: N_2  and  C_3
REMARK    3  A    between atoms: N_2  and  C_4
REMARK    4  A    between atoms: C_4  and  C_5
REMARK    5  A    between atoms: C_5  and  N_6
REMARK    6  A    between atoms: N_14  and  C_15
REMARK                            x       y       z     vdW  Elec       q    Type
REMARK                         _______ _______ _______ _____ _____    ______ ____
ROOT
ATOM      1  N   UNL     1       2.594   7.156  19.106  0.00  0.00    +0.000 N 
ATOM      2  C   UNL     1       2.790   7.668  17.855  0.00  0.00    +0.000 A 
ATOM      3  N   UNL     1       2.139   8.796  17.690  0.00  0.00    +0.000 NA
ATOM      4  C   UNL     1       1.519   9.049  18.897  0.00  0.00    +0.000 A 
ATOM      5  C   UNL     1       0.735  10.126  19.344  0.00  0.00    +0.000 A 
ATOM      6 CL   UNL     1       0.455  11.314  18.134  0.00  0.00    +0.000 Cl
ATOM      7  C   UNL     1       0.232  10.177  20.679  0.00  0.00    +0.000 A 
ATOM      8  C   UNL     1      -0.522  11.208  21.289  0.00  0.00    +0.000 A 
ATOM      9  N   UNL     1      -0.772  12.433  20.625  0.00  0.00    +0.000 N 
ATOM     10  N   UNL     1      -0.940  11.127  22.569  0.00  0.00    +0.000 NA
ATOM     11  C   UNL     1      -0.633  10.029  23.253  0.00  0.00    +0.000 A 
ATOM     12  N   UNL     1       0.058   8.995  22.779  0.00  0.00    +0.000 NA
ATOM     13  C   UNL     1       0.487   9.077  21.522  0.00  0.00    +0.000 A 
ATOM     14  C   UNL     1       1.235   7.998  21.078  0.00  0.00    +0.000 A 
ATOM     15  C   UNL     1       1.767   8.012  19.789  0.00  0.00    +0.000 A 
ATOM     16  H   UNL     1      -0.644  12.339  19.619  0.00  0.00    +0.000 HD
ENDROOT
BRANCH   9  17
ATOM     17  C   UNL     1      -1.898  13.261  20.858  0.00  0.00    +0.000 A 
ATOM     18  C   UNL     1      -1.699  14.553  21.361  0.00  0.00    +0.000 A 
ATOM     19  C   UNL     1      -2.779  15.420  21.546  0.00  0.00    +0.000 A 
ATOM     20  C   UNL     1      -4.067  15.014  21.197  0.00  0.00    +0.000 A 
ATOM     21  C   UNL     1      -4.266  13.745  20.660  0.00  0.00    +0.000 A 
ATOM     22 BR   UNL     1      -6.004  13.197  20.157  0.00  0.00    +0.000 Br
ATOM     23  C   UNL     1      -3.190  12.876  20.480  0.00  0.00    +0.000 A 
ENDBRANCH   9  17
BRANCH   1  24
ATOM     24  C   UNL     1       3.259   5.984  19.642  0.00  0.00    +0.000 C 
BRANCH  24  25
ATOM     25  C   UNL     1       3.134   4.766  18.717  0.00  0.00    +0.000 C 
BRANCH  25  27
ATOM     26  C   UNL     1       5.525   4.706  18.996  0.00  0.00    +0.000 C 
ATOM     27  N   UNL     1       4.333   3.905  18.694  0.00  0.00    +0.000 NA
ATOM     28  C   UNL     1       4.245   2.788  19.638  0.00  0.00    +0.000 C 
ENDBRANCH  25  27
ENDBRANCH  24  25
ENDBRANCH   1  24
TORSDOF 4
ENDMDL
