MODEL 1
REMARK VINA RESULT:      -8.1      0.000      0.000
REMARK  Name = 
REMARK  2 active torsions:
REMARK  status: ('A' for Active; 'I' for Inactive)
REMARK    1  A    between atoms: C_4  and  C_5
REMARK    2  A    between atoms: N_25  and  C_26
REMARK                            x       y       z     vdW  Elec       q    Type
REMARK                         _______ _______ _______ _____ _____    ______ ____
ROOT
ATOM      1  O   UNL     1       1.866  12.506  21.604  0.00  0.00    +0.000 OA
ATOM      2  C   UNL     1       1.163  12.648  20.617  0.00  0.00    +0.000 C 
ATOM      3  C   UNL     1      -0.137  11.968  20.458  0.00  0.00    +0.000 C 
ATOM      4  C   UNL     1      -0.267  10.466  20.469  0.00  0.00    +0.000 C 
ATOM      5  N   UNL     1      -1.656  10.373  19.900  0.00  0.00    +0.000 NA
ATOM      6  C   UNL     1      -1.910  11.627  19.031  0.00  0.00    +0.000 C 
ATOM      7  C   UNL     1      -3.138  12.401  19.638  0.00  0.00    +0.000 C 
ATOM      8  O   UNL     1      -3.200  12.928  20.738  0.00  0.00    +0.000 OA
ATOM      9  N   UNL     1      -4.209  12.238  18.762  0.00  0.00    +0.000 N 
ATOM     10  C   UNL     1      -3.835  11.518  17.637  0.00  0.00    +0.000 A 
ATOM     11  C   UNL     1      -4.645  11.131  16.587  0.00  0.00    +0.000 A 
ATOM     12  C   UNL     1      -4.071  10.354  15.577  0.00  0.00    +0.000 A 
ATOM     13  C   UNL     1      -2.713  10.006  15.632  0.00  0.00    +0.000 A 
ATOM     14  C   UNL     1      -1.909  10.438  16.689  0.00  0.00    +0.000 A 
ATOM     15  C   UNL     1      -2.484  11.180  17.707  0.00  0.00    +0.000 A 
ATOM     16  C   UNL     1      -0.563  12.308  19.045  0.00  0.00    +0.000 C 
ATOM     17  C   UNL     1       0.060  13.681  18.903  0.00  0.00    +0.000 C 
ATOM     18  O   UNL     1      -0.370  14.605  18.233  0.00  0.00    +0.000 OA
ATOM     19  N   UNL     1       1.291  13.530  19.561  0.00  0.00    +0.000 N 
ATOM     20  H   UNL     1      -2.313  10.418  20.686  0.00  0.00    +0.000 HD
ATOM     21  H   UNL     1      -5.143  12.567  18.959  0.00  0.00    +0.000 HD
ENDROOT
BRANCH  19  22
ATOM     22  C   UNL     1       2.560  14.097  19.255  0.00  0.00    +0.000 A 
ATOM     23  C   UNL     1       3.079  15.071  20.143  0.00  0.00    +0.000 A 
ATOM     24  C   UNL     1       4.295  15.718  19.936  0.00  0.00    +0.000 A 
ATOM     25  C   UNL     1       5.035  15.395  18.817  0.00  0.00    +0.000 A 
ATOM     26 CL   UNL     1       6.498  16.241  18.505  0.00  0.00    +0.000 Cl
ATOM     27  C   UNL     1       4.587  14.393  17.951  0.00  0.00    +0.000 A 
ATOM     28  C   UNL     1       3.362  13.723  18.180  0.00  0.00    +0.000 A 
ENDBRANCH  19  22
BRANCH   4  29
ATOM     29  C   UNL     1       0.784   9.710  19.637  0.00  0.00    +0.000 A 
ATOM     30  C   UNL     1       1.140  10.130  18.344  0.00  0.00    +0.000 A 
ATOM     31  C   UNL     1       1.926   9.336  17.500  0.00  0.00    +0.000 A 
ATOM     32  C   UNL     1       2.437   8.131  17.961  0.00  0.00    +0.000 A 
ATOM     33  C   UNL     1       2.209   7.756  19.280  0.00  0.00    +0.000 A 
ATOM     34  C   UNL     1       1.415   8.553  20.114  0.00  0.00    +0.000 A 
ENDBRANCH   4  29
TORSDOF 2
ENDMDL
MODEL 2
REMARK VINA RESULT:      -7.9      5.250      8.487
REMARK  Name = 
REMARK  2 active torsions:
REMARK  status: ('A' for Active; 'I' for Inactive)
REMARK    1  A    between atoms: C_4  and  C_5
REMARK    2  A    between atoms: N_25  and  C_26
REMARK                            x       y       z     vdW  Elec       q    Type
REMARK                         _______ _______ _______ _____ _____    ______ ____
ROOT
ATOM      1  O   UNL     1      -6.774  10.701  18.913  0.00  0.00    +0.000 OA
ATOM      2  C   UNL     1      -5.993  11.512  19.384  0.00  0.00    +0.000 C 
ATOM      3  C   UNL     1      -6.352  12.416  20.492  0.00  0.00    +0.000 C 
ATOM      4  C   UNL     1      -7.486  13.405  20.390  0.00  0.00    +0.000 C 
ATOM      5  N   UNL     1      -7.131  14.253  21.580  0.00  0.00    +0.000 NA
ATOM      6  C   UNL     1      -5.606  14.145  21.816  0.00  0.00    +0.000 C 
ATOM      7  C   UNL     1      -5.376  13.550  23.254  0.00  0.00    +0.000 C 
ATOM      8  O   UNL     1      -5.698  12.440  23.647  0.00  0.00    +0.000 OA
ATOM      9  N   UNL     1      -4.883  14.577  24.057  0.00  0.00    +0.000 N 
ATOM     10  C   UNL     1      -4.700  15.743  23.329  0.00  0.00    +0.000 A 
ATOM     11  C   UNL     1      -4.272  16.967  23.807  0.00  0.00    +0.000 A 
ATOM     12  C   UNL     1      -4.216  18.031  22.903  0.00  0.00    +0.000 A 
ATOM     13  C   UNL     1      -4.565  17.843  21.557  0.00  0.00    +0.000 A 
ATOM     14  C   UNL     1      -4.964  16.588  21.095  0.00  0.00    +0.000 A 
ATOM     15  C   UNL     1      -5.052  15.539  21.994  0.00  0.00    +0.000 A 
ATOM     16  C   UNL     1      -5.152  13.331  20.628  0.00  0.00    +0.000 C 
ATOM     17  C   UNL     1      -4.049  12.384  20.207  0.00  0.00    +0.000 C 
ATOM     18  O   UNL     1      -2.896  12.392  20.607  0.00  0.00    +0.000 OA
ATOM     19  N   UNL     1      -4.640  11.671  19.152  0.00  0.00    +0.000 N 
ATOM     20  H   UNL     1      -7.588  13.840  22.399  0.00  0.00    +0.000 HD
ATOM     21  H   UNL     1      -4.729  14.480  25.050  0.00  0.00    +0.000 HD
ENDROOT
BRANCH  19  22
ATOM     22  C   UNL     1      -4.059  11.181  17.949  0.00  0.00    +0.000 A 
ATOM     23  C   UNL     1      -4.567  11.674  16.721  0.00  0.00    +0.000 A 
ATOM     24  C   UNL     1      -4.100  11.249  15.480  0.00  0.00    +0.000 A 
ATOM     25  C   UNL     1      -3.091  10.308  15.438  0.00  0.00    +0.000 A 
ATOM     26 CL   UNL     1      -2.560   9.715  13.915  0.00  0.00    +0.000 Cl
ATOM     27  C   UNL     1      -2.520   9.846  16.628  0.00  0.00    +0.000 A 
ATOM     28  C   UNL     1      -2.984  10.300  17.885  0.00  0.00    +0.000 A 
ENDBRANCH  19  22
BRANCH   4  29
ATOM     29  C   UNL     1      -7.549  14.198  19.073  0.00  0.00    +0.000 A 
ATOM     30  C   UNL     1      -7.625  13.552  17.827  0.00  0.00    +0.000 A 
ATOM     31  C   UNL     1      -7.465  14.249  16.623  0.00  0.00    +0.000 A 
ATOM     32  C   UNL     1      -7.298  15.627  16.637  0.00  0.00    +0.000 A 
ATOM     33  C   UNL     1      -7.350  16.305  17.849  0.00  0.00    +0.000 A 
ATOM     34  C   UNL     1      -7.503  15.599  19.048  0.00  0.00    +0.000 A 
ENDBRANCH   4  29
TORSDOF 2
ENDMDL
MODEL 3
REMARK VINA RESULT:      -7.7      3.474      4.716
REMARK  Name = 
REMARK  2 active torsions:
REMARK  status: ('A' for Active; 'I' for Inactive)
REMARK    1  A    between atoms: C_4  and  C_5
REMARK    2  A    between atoms: N_25  and  C_26
REMARK                            x       y       z     vdW  Elec       q    Type
REMARK                         _______ _______ _______ _____ _____    ______ ____
ROOT
ATOM      1  O   UNL     1       1.053  14.270  22.135  0.00  0.00    +0.000 OA
ATOM      2  C   UNL     1      -0.145  14.454  21.993  0.00  0.00    +0.000 C 
ATOM      3  C   UNL     1      -1.164  13.675  22.722  0.00  0.00    +0.000 C 
ATOM      4  C   UNL     1      -1.269  12.175  22.603  0.00  0.00    +0.000 C 
ATOM      5  N   UNL     1      -2.638  12.015  23.204  0.00  0.00    +0.000 NA
ATOM      6  C   UNL     1      -3.424  13.328  22.981  0.00  0.00    +0.000 C 
ATOM      7  C   UNL     1      -3.815  13.908  24.390  0.00  0.00    +0.000 C 
ATOM      8  O   UNL     1      -3.051  14.300  25.258  0.00  0.00    +0.000 OA
ATOM      9  N   UNL     1      -5.190  13.742  24.543  0.00  0.00    +0.000 N 
ATOM     10  C   UNL     1      -5.762  13.192  23.406  0.00  0.00    +0.000 A 
ATOM     11  C   UNL     1      -7.087  12.849  23.221  0.00  0.00    +0.000 A 
ATOM     12  C   UNL     1      -7.438  12.249  22.008  0.00  0.00    +0.000 A 
ATOM     13  C   UNL     1      -6.471  12.028  21.016  0.00  0.00    +0.000 A 
ATOM     14  C   UNL     1      -5.144  12.414  21.218  0.00  0.00    +0.000 A 
ATOM     15  C   UNL     1      -4.787  12.979  22.431  0.00  0.00    +0.000 A 
ATOM     16  C   UNL     1      -2.478  14.129  22.119  0.00  0.00    +0.000 C 
ATOM     17  C   UNL     1      -2.131  15.561  21.776  0.00  0.00    +0.000 C 
ATOM     18  O   UNL     1      -2.898  16.509  21.766  0.00  0.00    +0.000 OA
ATOM     19  N   UNL     1      -0.810  15.456  21.313  0.00  0.00    +0.000 N 
ATOM     20  H   UNL     1      -2.519  11.908  24.217  0.00  0.00    +0.000 HD
ATOM     21  H   UNL     1      -5.684  13.957  25.398  0.00  0.00    +0.000 HD
ENDROOT
BRANCH  19  22
ATOM     22  C   UNL     1      -0.151  16.173  20.275  0.00  0.00    +0.000 A 
ATOM     23  C   UNL     1      -0.779  16.221  19.005  0.00  0.00    +0.000 A 
ATOM     24  C   UNL     1      -0.219  16.866  17.905  0.00  0.00    +0.000 A 
ATOM     25  C   UNL     1       1.001  17.495  18.055  0.00  0.00    +0.000 A 
ATOM     26 CL   UNL     1       1.741  18.227  16.687  0.00  0.00    +0.000 Cl
ATOM     27  C   UNL     1       1.619  17.525  19.308  0.00  0.00    +0.000 A 
ATOM     28  C   UNL     1       1.034  16.887  20.428  0.00  0.00    +0.000 A 
ENDBRANCH  19  22
BRANCH   4  29
ATOM     29  C   UNL     1      -1.163  11.621  21.172  0.00  0.00    +0.000 A 
ATOM     30  C   UNL     1      -1.964  12.118  20.129  0.00  0.00    +0.000 A 
ATOM     31  C   UNL     1      -2.032  11.483  18.883  0.00  0.00    +0.000 A 
ATOM     32  C   UNL     1      -1.240  10.372  18.628  0.00  0.00    +0.000 A 
ATOM     33  C   UNL     1      -0.343   9.940  19.598  0.00  0.00    +0.000 A 
ATOM     34  C   UNL     1      -0.288  10.577  20.843  0.00  0.00    +0.000 A 
ENDBRANCH   4  29
TORSDOF 2
ENDMDL
MODEL 4
REMARK VINA RESULT:      -7.7      5.109      8.296
REMARK  Name = 
REMARK  2 active torsions:
REMARK  status: ('A' for Active; 'I' for Inactive)
REMARK    1  A    between atoms: C_4  and  C_5
REMARK    2  A    between atoms: N_25  and  C_26
REMARK                            x       y       z     vdW  Elec       q    Type
REMARK                         _______ _______ _______ _____ _____    ______ ____
ROOT
ATOM      1  O   UNL     1      -6.538  10.866  18.619  0.00  0.00    +0.000 OA
ATOM      2  C   UNL     1      -5.674  11.592  19.083  0.00  0.00    +0.000 C 
ATOM      3  C   UNL     1      -5.928  12.519  20.202  0.00  0.00    +0.000 C 
ATOM      4  C   UNL     1      -6.961  13.615  20.122  0.00  0.00    +0.000 C 
ATOM      5  N   UNL     1      -6.507  14.415  21.312  0.00  0.00    +0.000 NA
ATOM      6  C   UNL     1      -4.998  14.156  21.525  0.00  0.00    +0.000 C 
ATOM      7  C   UNL     1      -4.807  13.531  22.956  0.00  0.00    +0.000 C 
ATOM      8  O   UNL     1      -5.232  12.455  23.347  0.00  0.00    +0.000 OA
ATOM      9  N   UNL     1      -4.205  14.499  23.758  0.00  0.00    +0.000 N 
ATOM     10  C   UNL     1      -3.919  15.647  23.035  0.00  0.00    +0.000 A 
ATOM     11  C   UNL     1      -3.366  16.819  23.514  0.00  0.00    +0.000 A 
ATOM     12  C   UNL     1      -3.218  17.880  22.616  0.00  0.00    +0.000 A 
ATOM     13  C   UNL     1      -3.602  17.737  21.274  0.00  0.00    +0.000 A 
ATOM     14  C   UNL     1      -4.129  16.530  20.810  0.00  0.00    +0.000 A 
ATOM     15  C   UNL     1      -4.307  15.488  21.704  0.00  0.00    +0.000 A 
ATOM     16  C   UNL     1      -4.642  13.311  20.326  0.00  0.00    +0.000 C 
ATOM     17  C   UNL     1      -3.643  12.264  19.884  0.00  0.00    +0.000 C 
ATOM     18  O   UNL     1      -2.490  12.155  20.267  0.00  0.00    +0.000 OA
ATOM     19  N   UNL     1      -4.315  11.620  18.833  0.00  0.00    +0.000 N 
ATOM     20  H   UNL     1      -6.992  14.043  22.135  0.00  0.00    +0.000 HD
ATOM     21  H   UNL     1      -4.048  14.380  24.749  0.00  0.00    +0.000 HD
ENDROOT
BRANCH  19  22
ATOM     22  C   UNL     1      -3.802  11.084  17.619  0.00  0.00    +0.000 A 
ATOM     23  C   UNL     1      -4.333  11.579  16.402  0.00  0.00    +0.000 A 
ATOM     24  C   UNL     1      -3.931  11.113  15.152  0.00  0.00    +0.000 A 
ATOM     25  C   UNL     1      -2.968  10.126  15.091  0.00  0.00    +0.000 A 
ATOM     26 CL   UNL     1      -2.520   9.485  13.561  0.00  0.00    +0.000 Cl
ATOM     27  C   UNL     1      -2.374   9.659  16.267  0.00  0.00    +0.000 A 
ATOM     28  C   UNL     1      -2.770  10.154  17.532  0.00  0.00    +0.000 A 
ENDBRANCH  19  22
BRANCH   4  29
ATOM     29  C   UNL     1      -6.963  14.420  18.811  0.00  0.00    +0.000 A 
ATOM     30  C   UNL     1      -6.823  15.819  18.806  0.00  0.00    +0.000 A 
ATOM     31  C   UNL     1      -7.038  16.579  17.650  0.00  0.00    +0.000 A 
ATOM     32  C   UNL     1      -7.329  15.945  16.449  0.00  0.00    +0.000 A 
ATOM     33  C   UNL     1      -7.343  14.556  16.400  0.00  0.00    +0.000 A 
ATOM     34  C   UNL     1      -7.134  13.806  17.563  0.00  0.00    +0.000 A 
ENDBRANCH   4  29
TORSDOF 2
ENDMDL
MODEL 5
REMARK VINA RESULT:      -7.5      3.353      4.567
REMARK  Name = 
REMARK  2 active torsions:
REMARK  status: ('A' for Active; 'I' for Inactive)
REMARK    1  A    between atoms: C_4  and  C_5
REMARK    2  A    between atoms: N_25  and  C_26
REMARK                            x       y       z     vdW  Elec       q    Type
REMARK                         _______ _______ _______ _____ _____    ______ ____
ROOT
ATOM      1  O   UNL     1       1.121  14.157  22.449  0.00  0.00    +0.000 OA
ATOM      2  C   UNL     1      -0.049  14.371  22.176  0.00  0.00    +0.000 C 
ATOM      3  C   UNL     1      -1.166  13.723  22.888  0.00  0.00    +0.000 C 
ATOM      4  C   UNL     1      -1.336  12.225  22.928  0.00  0.00    +0.000 C 
ATOM      5  N   UNL     1      -2.759  12.189  23.412  0.00  0.00    +0.000 NA
ATOM      6  C   UNL     1      -3.455  13.497  22.971  0.00  0.00    +0.000 C 
ATOM      7  C   UNL     1      -3.940  14.252  24.264  0.00  0.00    +0.000 C 
ATOM      8  O   UNL     1      -3.237  14.711  25.150  0.00  0.00    +0.000 OA
ATOM      9  N   UNL     1      -5.329  14.160  24.305  0.00  0.00    +0.000 N 
ATOM     10  C   UNL     1      -5.825  13.505  23.188  0.00  0.00    +0.000 A 
ATOM     11  C   UNL     1      -7.145  13.196  22.918  0.00  0.00    +0.000 A 
ATOM     12  C   UNL     1      -7.416  12.473  21.753  0.00  0.00    +0.000 A 
ATOM     13  C   UNL     1      -6.377  12.101  20.887  0.00  0.00    +0.000 A 
ATOM     14  C   UNL     1      -5.055  12.454  21.168  0.00  0.00    +0.000 A 
ATOM     15  C   UNL     1      -4.780  13.142  22.338  0.00  0.00    +0.000 A 
ATOM     16  C   UNL     1      -2.397  14.155  22.118  0.00  0.00    +0.000 C 
ATOM     17  C   UNL     1      -1.950  15.523  21.651  0.00  0.00    +0.000 C 
ATOM     18  O   UNL     1      -2.665  16.494  21.463  0.00  0.00    +0.000 OA
ATOM     19  N   UNL     1      -0.600  15.313  21.328  0.00  0.00    +0.000 N 
ATOM     20  H   UNL     1      -2.735  12.196  24.437  0.00  0.00    +0.000 HD
ATOM     21  H   UNL     1      -5.886  14.492  25.080  0.00  0.00    +0.000 HD
ENDROOT
BRANCH  19  22
ATOM     22  C   UNL     1       0.183  15.878  20.283  0.00  0.00    +0.000 A 
ATOM     23  C   UNL     1       0.738  14.996  19.323  0.00  0.00    +0.000 A 
ATOM     24  C   UNL     1       1.544  15.426  18.271  0.00  0.00    +0.000 A 
ATOM     25  C   UNL     1       1.814  16.774  18.152  0.00  0.00    +0.000 A 
ATOM     26 CL   UNL     1       2.871  17.311  16.908  0.00  0.00    +0.000 Cl
ATOM     27  C   UNL     1       1.232  17.682  19.042  0.00  0.00    +0.000 A 
ATOM     28  C   UNL     1       0.395  17.240  20.094  0.00  0.00    +0.000 A 
ENDBRANCH  19  22
BRANCH   4  29
ATOM     29  C   UNL     1      -1.131  11.505  21.584  0.00  0.00    +0.000 A 
ATOM     30  C   UNL     1      -0.316  10.364  21.476  0.00  0.00    +0.000 A 
ATOM     31  C   UNL     1       0.049   9.833  20.233  0.00  0.00    +0.000 A 
ATOM     32  C   UNL     1      -0.457  10.390  19.066  0.00  0.00    +0.000 A 
ATOM     33  C   UNL     1      -1.368  11.435  19.152  0.00  0.00    +0.000 A 
ATOM     34  C   UNL     1      -1.721  11.965  20.398  0.00  0.00    +0.000 A 
ENDBRANCH   4  29
TORSDOF 2
ENDMDL
MODEL 6
REMARK VINA RESULT:      -7.4      5.307      8.683
REMARK  Name = 
REMARK  2 active torsions:
REMARK  status: ('A' for Active; 'I' for Inactive)
REMARK    1  A    between atoms: C_4  and  C_5
REMARK    2  A    between atoms: N_25  and  C_26
REMARK                            x       y       z     vdW  Elec       q    Type
REMARK                         _______ _______ _______ _____ _____    ______ ____
ROOT
ATOM      1  O   UNL     1      -6.845  10.947  19.667  0.00  0.00    +0.000 OA
ATOM      2  C   UNL     1      -6.004  11.746  20.047  0.00  0.00    +0.000 C 
ATOM      3  C   UNL     1      -6.193  12.598  21.236  0.00  0.00    +0.000 C 
ATOM      4  C   UNL     1      -7.334  13.576  21.354  0.00  0.00    +0.000 C 
ATOM      5  N   UNL     1      -6.803  14.377  22.511  0.00  0.00    +0.000 NA
ATOM      6  C   UNL     1      -5.260  14.277  22.503  0.00  0.00    +0.000 C 
ATOM      7  C   UNL     1      -4.806  13.624  23.861  0.00  0.00    +0.000 C 
ATOM      8  O   UNL     1      -5.059  12.495  24.250  0.00  0.00    +0.000 OA
ATOM      9  N   UNL     1      -4.201  14.621  24.623  0.00  0.00    +0.000 N 
ATOM     10  C   UNL     1      -4.139  15.820  23.928  0.00  0.00    +0.000 A 
ATOM     11  C   UNL     1      -3.649  17.027  24.387  0.00  0.00    +0.000 A 
ATOM     12  C   UNL     1      -3.739  18.130  23.533  0.00  0.00    +0.000 A 
ATOM     13  C   UNL     1      -4.291  17.996  22.251  0.00  0.00    +0.000 A 
ATOM     14  C   UNL     1      -4.750  16.756  21.800  0.00  0.00    +0.000 A 
ATOM     15  C   UNL     1      -4.692  15.669  22.655  0.00  0.00    +0.000 A 
ATOM     16  C   UNL     1      -4.991  13.520  21.225  0.00  0.00    +0.000 C 
ATOM     17  C   UNL     1      -3.961  12.606  20.598  0.00  0.00    +0.000 C 
ATOM     18  O   UNL     1      -2.761  12.610  20.815  0.00  0.00    +0.000 OA
ATOM     19  N   UNL     1      -4.705  11.932  19.616  0.00  0.00    +0.000 N 
ATOM     20  H   UNL     1      -7.126  13.924  23.372  0.00  0.00    +0.000 HD
ATOM     21  H   UNL     1      -3.895  14.485  25.576  0.00  0.00    +0.000 HD
ENDROOT
BRANCH  19  22
ATOM     22  C   UNL     1      -4.315  11.500  18.317  0.00  0.00    +0.000 A 
ATOM     23  C   UNL     1      -3.418  10.406  18.227  0.00  0.00    +0.000 A 
ATOM     24  C   UNL     1      -2.942   9.912  17.015  0.00  0.00    +0.000 A 
ATOM     25  C   UNL     1      -3.364  10.509  15.844  0.00  0.00    +0.000 A 
ATOM     26 CL   UNL     1      -2.724   9.962  14.346  0.00  0.00    +0.000 Cl
ATOM     27  C   UNL     1      -4.298  11.548  15.890  0.00  0.00    +0.000 A 
ATOM     28  C   UNL     1      -4.795  12.030  17.124  0.00  0.00    +0.000 A 
ENDBRANCH  19  22
BRANCH   4  29
ATOM     29  C   UNL     1      -7.604  14.425  20.099  0.00  0.00    +0.000 A 
ATOM     30  C   UNL     1      -7.882  13.831  18.856  0.00  0.00    +0.000 A 
ATOM     31  C   UNL     1      -7.915  14.579  17.672  0.00  0.00    +0.000 A 
ATOM     32  C   UNL     1      -7.741  15.955  17.717  0.00  0.00    +0.000 A 
ATOM     33  C   UNL     1      -7.595  16.582  18.949  0.00  0.00    +0.000 A 
ATOM     34  C   UNL     1      -7.556  15.825  20.126  0.00  0.00    +0.000 A 
ENDBRANCH   4  29
TORSDOF 2
ENDMDL
MODEL 7
REMARK VINA RESULT:      -7.3      3.459      4.675
REMARK  Name = 
REMARK  2 active torsions:
REMARK  status: ('A' for Active; 'I' for Inactive)
REMARK    1  A    between atoms: C_4  and  C_5
REMARK    2  A    between atoms: N_25  and  C_26
REMARK                            x       y       z     vdW  Elec       q    Type
REMARK                         _______ _______ _______ _____ _____    ______ ____
ROOT
ATOM      1  O   UNL     1       0.249  14.928  23.118  0.00  0.00    +0.000 OA
ATOM      2  C   UNL     1      -0.801  14.921  22.496  0.00  0.00    +0.000 C 
ATOM      3  C   UNL     1      -2.058  14.394  23.060  0.00  0.00    +0.000 C 
ATOM      4  C   UNL     1      -2.197  12.967  23.526  0.00  0.00    +0.000 C 
ATOM      5  N   UNL     1      -3.698  12.920  23.608  0.00  0.00    +0.000 NA
ATOM      6  C   UNL     1      -4.272  13.953  22.611  0.00  0.00    +0.000 C 
ATOM      7  C   UNL     1      -5.119  14.999  23.425  0.00  0.00    +0.000 C 
ATOM      8  O   UNL     1      -4.705  15.776  24.271  0.00  0.00    +0.000 OA
ATOM      9  N   UNL     1      -6.461  14.771  23.129  0.00  0.00    +0.000 N 
ATOM     10  C   UNL     1      -6.607  13.762  22.188  0.00  0.00    +0.000 A 
ATOM     11  C   UNL     1      -7.789  13.243  21.696  0.00  0.00    +0.000 A 
ATOM     12  C   UNL     1      -7.703  12.182  20.791  0.00  0.00    +0.000 A 
ATOM     13  C   UNL     1      -6.454  11.686  20.390  0.00  0.00    +0.000 A 
ATOM     14  C   UNL     1      -5.274  12.251  20.879  0.00  0.00    +0.000 A 
ATOM     15  C   UNL     1      -5.356  13.281  21.800  0.00  0.00    +0.000 A 
ATOM     16  C   UNL     1      -3.032  14.440  21.900  0.00  0.00    +0.000 C 
ATOM     17  C   UNL     1      -2.503  15.648  21.158  0.00  0.00    +0.000 C 
ATOM     18  O   UNL     1      -3.158  16.433  20.493  0.00  0.00    +0.000 OA
ATOM     19  N   UNL     1      -1.112  15.501  21.282  0.00  0.00    +0.000 N 
ATOM     20  H   UNL     1      -3.965  13.234  24.547  0.00  0.00    +0.000 HD
ATOM     21  H   UNL     1      -7.221  15.254  23.587  0.00  0.00    +0.000 HD
ENDROOT
BRANCH  19  22
ATOM     22  C   UNL     1      -0.080  15.813  20.354  0.00  0.00    +0.000 A 
ATOM     23  C   UNL     1       0.453  14.753  19.578  0.00  0.00    +0.000 A 
ATOM     24  C   UNL     1       1.484  14.928  18.658  0.00  0.00    +0.000 A 
ATOM     25  C   UNL     1       2.012  16.192  18.487  0.00  0.00    +0.000 A 
ATOM     26 CL   UNL     1       3.338  16.409  17.415  0.00  0.00    +0.000 Cl
ATOM     27  C   UNL     1       1.469  17.274  19.187  0.00  0.00    +0.000 A 
ATOM     28  C   UNL     1       0.406  17.093  20.103  0.00  0.00    +0.000 A 
ENDBRANCH  19  22
BRANCH   4  29
ATOM     29  C   UNL     1      -1.605  11.907  22.581  0.00  0.00    +0.000 A 
ATOM     30  C   UNL     1      -0.989  10.743  23.073  0.00  0.00    +0.000 A 
ATOM     31  C   UNL     1      -0.262   9.884  22.241  0.00  0.00    +0.000 A 
ATOM     32  C   UNL     1      -0.195  10.134  20.877  0.00  0.00    +0.000 A 
ATOM     33  C   UNL     1      -0.905  11.205  20.347  0.00  0.00    +0.000 A 
ATOM     34  C   UNL     1      -1.624  12.062  21.188  0.00  0.00    +0.000 A 
ENDBRANCH   4  29
TORSDOF 2
ENDMDL
MODEL 8
REMARK VINA RESULT:      -7.3      4.763      7.508
REMARK  Name = 
REMARK  2 active torsions:
REMARK  status: ('A' for Active; 'I' for Inactive)
REMARK    1  A    between atoms: C_4  and  C_5
REMARK    2  A    between atoms: N_25  and  C_26
REMARK                            x       y       z     vdW  Elec       q    Type
REMARK                         _______ _______ _______ _____ _____    ______ ____
ROOT
ATOM      1  O   UNL     1      -5.277  12.447  23.255  0.00  0.00    +0.000 OA
ATOM      2  C   UNL     1      -5.089  13.294  22.397  0.00  0.00    +0.000 C 
ATOM      3  C   UNL     1      -6.134  14.243  21.970  0.00  0.00    +0.000 C 
ATOM      4  C   UNL     1      -7.448  13.787  21.388  0.00  0.00    +0.000 C 
ATOM      5  N   UNL     1      -7.890  15.105  20.814  0.00  0.00    +0.000 NA
ATOM      6  C   UNL     1      -6.631  15.947  20.506  0.00  0.00    +0.000 C 
ATOM      7  C   UNL     1      -6.708  17.269  21.356  0.00  0.00    +0.000 C 
ATOM      8  O   UNL     1      -6.691  17.358  22.574  0.00  0.00    +0.000 OA
ATOM      9  N   UNL     1      -6.967  18.318  20.476  0.00  0.00    +0.000 N 
ATOM     10  C   UNL     1      -7.008  17.875  19.162  0.00  0.00    +0.000 A 
ATOM     11  C   UNL     1      -7.284  18.627  18.036  0.00  0.00    +0.000 A 
ATOM     12  C   UNL     1      -7.331  17.961  16.808  0.00  0.00    +0.000 A 
ATOM     13  C   UNL     1      -7.085  16.582  16.735  0.00  0.00    +0.000 A 
ATOM     14  C   UNL     1      -6.777  15.852  17.885  0.00  0.00    +0.000 A 
ATOM     15  C   UNL     1      -6.760  16.503  19.107  0.00  0.00    +0.000 A 
ATOM     16  C   UNL     1      -5.512  14.977  20.800  0.00  0.00    +0.000 C 
ATOM     17  C   UNL     1      -4.057  14.955  21.216  0.00  0.00    +0.000 C 
ATOM     18  O   UNL     1      -3.218  15.801  20.960  0.00  0.00    +0.000 OA
ATOM     19  N   UNL     1      -3.916  13.674  21.774  0.00  0.00    +0.000 N 
ATOM     20  H   UNL     1      -8.408  15.601  21.548  0.00  0.00    +0.000 HD
ATOM     21  H   UNL     1      -7.147  19.265  20.777  0.00  0.00    +0.000 HD
ENDROOT
BRANCH  19  22
ATOM     22  C   UNL     1      -2.809  12.781  21.728  0.00  0.00    +0.000 A 
ATOM     23  C   UNL     1      -2.303  12.420  20.455  0.00  0.00    +0.000 A 
ATOM     24  C   UNL     1      -1.244  11.533  20.281  0.00  0.00    +0.000 A 
ATOM     25  C   UNL     1      -0.651  10.981  21.398  0.00  0.00    +0.000 A 
ATOM     26 CL   UNL     1       0.604   9.825  21.198  0.00  0.00    +0.000 Cl
ATOM     27  C   UNL     1      -1.080  11.363  22.674  0.00  0.00    +0.000 A 
ATOM     28  C   UNL     1      -2.142  12.282  22.843  0.00  0.00    +0.000 A 
ENDBRANCH  19  22
BRANCH   4  29
ATOM     29  C   UNL     1      -7.347  12.668  20.337  0.00  0.00    +0.000 A 
ATOM     30  C   UNL     1      -7.267  11.315  20.707  0.00  0.00    +0.000 A 
ATOM     31  C   UNL     1      -6.959  10.312  19.779  0.00  0.00    +0.000 A 
ATOM     32  C   UNL     1      -6.797  10.635  18.439  0.00  0.00    +0.000 A 
ATOM     33  C   UNL     1      -7.001  11.947  18.027  0.00  0.00    +0.000 A 
ATOM     34  C   UNL     1      -7.301  12.943  18.963  0.00  0.00    +0.000 A 
ENDBRANCH   4  29
TORSDOF 2
ENDMDL
MODEL 9
REMARK VINA RESULT:      -7.2      3.771      6.731
REMARK  Name = 
REMARK  2 active torsions:
REMARK  status: ('A' for Active; 'I' for Inactive)
REMARK    1  A    between atoms: C_4  and  C_5
REMARK    2  A    between atoms: N_25  and  C_26
REMARK                            x       y       z     vdW  Elec       q    Type
REMARK                         _______ _______ _______ _____ _____    ______ ____
ROOT
ATOM      1  O   UNL     1      -2.210  11.205  19.023  0.00  0.00    +0.000 OA
ATOM      2  C   UNL     1      -1.833  11.518  20.141  0.00  0.00    +0.000 C 
ATOM      3  C   UNL     1      -2.459  12.603  20.919  0.00  0.00    +0.000 C 
ATOM      4  C   UNL     1      -2.512  14.025  20.420  0.00  0.00    +0.000 C 
ATOM      5  N   UNL     1      -2.873  14.689  21.721  0.00  0.00    +0.000 NA
ATOM      6  C   UNL     1      -2.350  13.807  22.878  0.00  0.00    +0.000 C 
ATOM      7  C   UNL     1      -3.582  13.366  23.751  0.00  0.00    +0.000 C 
ATOM      8  O   UNL     1      -4.517  12.665  23.397  0.00  0.00    +0.000 OA
ATOM      9  N   UNL     1      -3.506  14.056  24.959  0.00  0.00    +0.000 N 
ATOM     10  C   UNL     1      -2.362  14.839  25.023  0.00  0.00    +0.000 A 
ATOM     11  C   UNL     1      -1.986  15.687  26.046  0.00  0.00    +0.000 A 
ATOM     12  C   UNL     1      -0.816  16.430  25.875  0.00  0.00    +0.000 A 
ATOM     13  C   UNL     1      -0.049  16.294  24.708  0.00  0.00    +0.000 A 
ATOM     14  C   UNL     1      -0.436  15.405  23.703  0.00  0.00    +0.000 A 
ATOM     15  C   UNL     1      -1.612  14.691  23.855  0.00  0.00    +0.000 A 
ATOM     16  C   UNL     1      -1.579  12.735  22.145  0.00  0.00    +0.000 C 
ATOM     17  C   UNL     1      -1.127  11.299  22.302  0.00  0.00    +0.000 C 
ATOM     18  O   UNL     1      -0.861  10.735  23.350  0.00  0.00    +0.000 OA
ATOM     19  N   UNL     1      -0.925  10.893  20.974  0.00  0.00    +0.000 N 
ATOM     20  H   UNL     1      -3.896  14.694  21.790  0.00  0.00    +0.000 HD
ATOM     21  H   UNL     1      -4.225  14.017  25.668  0.00  0.00    +0.000 HD
ENDROOT
BRANCH  19  22
ATOM     22  C   UNL     1       0.060  10.021  20.430  0.00  0.00    +0.000 A 
ATOM     23  C   UNL     1       0.586  10.333  19.152  0.00  0.00    +0.000 A 
ATOM     24  C   UNL     1       1.531   9.542  18.505  0.00  0.00    +0.000 A 
ATOM     25  C   UNL     1       1.985   8.401  19.136  0.00  0.00    +0.000 A 
ATOM     26 CL   UNL     1       3.091   7.372  18.317  0.00  0.00    +0.000 Cl
ATOM     27  C   UNL     1       1.538   8.094  20.425  0.00  0.00    +0.000 A 
ATOM     28  C   UNL     1       0.594   8.915  21.086  0.00  0.00    +0.000 A 
ENDBRANCH  19  22
BRANCH   4  29
ATOM     29  C   UNL     1      -1.203  14.556  19.809  0.00  0.00    +0.000 A 
ATOM     30  C   UNL     1      -0.467  13.802  18.878  0.00  0.00    +0.000 A 
ATOM     31  C   UNL     1       0.823  14.174  18.482  0.00  0.00    +0.000 A 
ATOM     32  C   UNL     1       1.379  15.355  18.955  0.00  0.00    +0.000 A 
ATOM     33  C   UNL     1       0.620  16.184  19.772  0.00  0.00    +0.000 A 
ATOM     34  C   UNL     1      -0.666  15.799  20.169  0.00  0.00    +0.000 A 
ENDBRANCH   4  29
TORSDOF 2
ENDMDL
