MODEL 1
REMARK VINA RESULT:      -9.0      0.000      0.000
REMARK  Name = 
REMARK  8 active torsions:
REMARK  status: ('A' for Active; 'I' for Inactive)
REMARK    1  A    between atoms: C_1  and  N_2
REMARK    2  A    between atoms: N_2  and  C_3
REMARK    3  A    between atoms: C_3  and  C_4
REMARK    4  A    between atoms: C_4  and  C_5
REMARK    5  A    between atoms: C_4  and  C_11
REMARK    6  A    between atoms: N_18  and  S_19
REMARK    7  A    between atoms: S_19  and  C_22
REMARK    8  A    between atoms: C_25  and  N_26
REMARK                            x       y       z     vdW  Elec       q    Type
REMARK                         _______ _______ _______ _____ _____    ______ ____
ROOT
ATOM      1  C   UNL     1       2.517   7.336  18.447  0.00  0.00    +0.000 A 
ATOM      2  C   UNL     1       2.053   8.494  17.801  0.00  0.00    +0.000 A 
ATOM      3  C   UNL     1       1.375   9.424  18.604  0.00  0.00    +0.000 A 
ATOM      4  C   UNL     1       0.965   9.064  19.890  0.00  0.00    +0.000 A 
ATOM      5  C   UNL     1       1.586   8.021  20.494  0.00  0.00    +0.000 A 
ATOM      6  N   UNL     1       2.357   7.173  19.801  0.00  0.00    +0.000 NA
ATOM      7  C   UNL     1       0.141  10.136  20.497  0.00  0.00    +0.000 C 
ATOM      8  N   UNL     1       0.887  11.291  20.008  0.00  0.00    +0.000 NA
ATOM      9  C   UNL     1       1.178  10.949  18.536  0.00  0.00    +0.000 C 
ENDROOT
BRANCH   8  10
ATOM     10  S   UNL     1       0.412  12.814  20.540  0.00  0.00    +0.000 S 
ATOM     11  O   UNL     1       1.165  13.104  21.734  0.00  0.00    +0.000 OA
ATOM     12  O   UNL     1       0.456  13.691  19.377  0.00  0.00    +0.000 OA
BRANCH  10  13
ATOM     13  C   UNL     1      -1.327  12.637  21.040  0.00  0.00    +0.000 A 
ATOM     14  C   UNL     1      -2.373  12.880  20.133  0.00  0.00    +0.000 A 
ATOM     15  C   UNL     1      -3.722  12.882  20.569  0.00  0.00    +0.000 A 
ATOM     16  C   UNL     1      -4.050  12.652  21.918  0.00  0.00    +0.000 A 
ATOM     17  C   UNL     1      -2.991  12.407  22.805  0.00  0.00    +0.000 A 
ATOM     18  F   UNL     1      -3.214  12.166  24.103  0.00  0.00    +0.000 F 
ATOM     19  C   UNL     1      -1.647  12.398  22.379  0.00  0.00    +0.000 A 
BRANCH  16  20
ATOM     20  N   UNL     1      -5.421  12.687  22.346  0.00  0.00    +0.000 N 
ATOM     21  C   UNL     1      -5.991  13.378  23.399  0.00  0.00    +0.000 A 
ATOM     22  C   UNL     1      -7.332  13.077  23.437  0.00  0.00    +0.000 A 
ATOM     23  C   UNL     1      -7.515  12.205  22.359  0.00  0.00    +0.000 A 
ATOM     24  N   UNL     1      -6.382  11.970  21.688  0.00  0.00    +0.000 NA
ENDBRANCH  16  20
ENDBRANCH  10  13
ENDBRANCH   8  10
BRANCH   1  25
ATOM     25  C   UNL     1       3.188   6.106  17.831  0.00  0.00    +0.000 C 
BRANCH  25  26
ATOM     26  C   UNL     1       2.783   4.690  18.249  0.00  0.00    +0.000 A 
ATOM     27  C   UNL     1       1.531   4.140  17.924  0.00  0.00    +0.000 A 
ATOM     28  C   UNL     1       1.044   3.015  18.601  0.00  0.00    +0.000 A 
ATOM     29  C   UNL     1       1.819   2.390  19.573  0.00  0.00    +0.000 A 
ATOM     30  C   UNL     1       3.099   2.863  19.843  0.00  0.00    +0.000 A 
ATOM     31  C   UNL     1       3.580   4.000  19.183  0.00  0.00    +0.000 A 
ENDBRANCH  25  26
BRANCH  25  32
ATOM     32  C   UNL     1       4.737   6.367  17.781  0.00  0.00    +0.000 C 
BRANCH  32  34
ATOM     33  C   UNL     1       5.409   5.508  15.618  0.00  0.00    +0.000 C 
ATOM     34  N   UNL     1       5.262   6.702  16.441  0.00  0.00    +0.000 NA
ATOM     35  H   UNL     1       4.651   7.374  15.978  0.00  0.00    +0.000 HD
ENDBRANCH  32  34
ENDBRANCH  25  32
ENDBRANCH   1  25
TORSDOF 7
ENDMDL
MODEL 2
REMARK VINA RESULT:      -8.7      0.984      1.111
REMARK  Name = 
REMARK  8 active torsions:
REMARK  status: ('A' for Active; 'I' for Inactive)
REMARK    1  A    between atoms: C_1  and  N_2
REMARK    2  A    between atoms: N_2  and  C_3
REMARK    3  A    between atoms: C_3  and  C_4
REMARK    4  A    between atoms: C_4  and  C_5
REMARK    5  A    between atoms: C_4  and  C_11
REMARK    6  A    between atoms: N_18  and  S_19
REMARK    7  A    between atoms: S_19  and  C_22
REMARK    8  A    between atoms: C_25  and  N_26
REMARK                            x       y       z     vdW  Elec       q    Type
REMARK                         _______ _______ _______ _____ _____    ______ ____
ROOT
ATOM      1  C   UNL     1       2.785   7.034  18.384  0.00  0.00    +0.000 A 
ATOM      2  C   UNL     1       2.303   8.171  17.713  0.00  0.00    +0.000 A 
ATOM      3  C   UNL     1       1.600   9.100  18.494  0.00  0.00    +0.000 A 
ATOM      4  C   UNL     1       1.186   8.756  19.783  0.00  0.00    +0.000 A 
ATOM      5  C   UNL     1       1.824   7.737  20.411  0.00  0.00    +0.000 A 
ATOM      6  N   UNL     1       2.617   6.892  19.739  0.00  0.00    +0.000 NA
ATOM      7  C   UNL     1       0.337   9.822  20.365  0.00  0.00    +0.000 C 
ATOM      8  N   UNL     1       1.063  10.983  19.860  0.00  0.00    +0.000 NA
ATOM      9  C   UNL     1       1.372  10.620  18.397  0.00  0.00    +0.000 C 
ENDROOT
BRANCH   8  10
ATOM     10  S   UNL     1       0.553  12.506  20.361  0.00  0.00    +0.000 S 
ATOM     11  O   UNL     1       1.050  12.704  21.699  0.00  0.00    +0.000 OA
ATOM     12  O   UNL     1       0.880  13.427  19.280  0.00  0.00    +0.000 OA
BRANCH  10  13
ATOM     13  C   UNL     1      -1.258  12.401  20.476  0.00  0.00    +0.000 A 
ATOM     14  C   UNL     1      -2.055  12.280  19.325  0.00  0.00    +0.000 A 
ATOM     15  C   UNL     1      -3.469  12.347  19.414  0.00  0.00    +0.000 A 
ATOM     16  C   UNL     1      -4.110  12.545  20.651  0.00  0.00    +0.000 A 
ATOM     17  C   UNL     1      -3.296  12.657  21.787  0.00  0.00    +0.000 A 
ATOM     18  F   UNL     1      -3.824  12.835  23.006  0.00  0.00    +0.000 F 
ATOM     19  C   UNL     1      -1.890  12.588  21.709  0.00  0.00    +0.000 A 
BRANCH  16  20
ATOM     20  N   UNL     1      -5.543  12.638  20.716  0.00  0.00    +0.000 N 
ATOM     21  C   UNL     1      -6.388  13.544  20.104  0.00  0.00    +0.000 A 
ATOM     22  C   UNL     1      -7.678  13.258  20.487  0.00  0.00    +0.000 A 
ATOM     23  C   UNL     1      -7.544  12.146  21.324  0.00  0.00    +0.000 A 
ATOM     24  N   UNL     1      -6.272  11.755  21.463  0.00  0.00    +0.000 NA
ENDBRANCH  16  20
ENDBRANCH  10  13
ENDBRANCH   8  10
BRANCH   1  25
ATOM     25  C   UNL     1       3.485   5.807  17.796  0.00  0.00    +0.000 C 
BRANCH  25  26
ATOM     26  C   UNL     1       2.876   4.409  17.925  0.00  0.00    +0.000 A 
ATOM     27  C   UNL     1       1.495   4.203  18.090  0.00  0.00    +0.000 A 
ATOM     28  C   UNL     1       1.003   2.979  18.558  0.00  0.00    +0.000 A 
ATOM     29  C   UNL     1       1.873   1.925  18.817  0.00  0.00    +0.000 A 
ATOM     30  C   UNL     1       3.234   2.078  18.571  0.00  0.00    +0.000 A 
ATOM     31  C   UNL     1       3.731   3.307  18.123  0.00  0.00    +0.000 A 
ENDBRANCH  25  26
BRANCH  25  32
ATOM     32  C   UNL     1       5.014   5.901  18.147  0.00  0.00    +0.000 C 
BRANCH  32  34
ATOM     33  C   UNL     1       5.236   6.324  15.773  0.00  0.00    +0.000 C 
ATOM     34  N   UNL     1       5.917   5.872  16.978  0.00  0.00    +0.000 NA
ATOM     35  H   UNL     1       6.742   6.447  17.152  0.00  0.00    +0.000 HD
ENDBRANCH  32  34
ENDBRANCH  25  32
ENDBRANCH   1  25
TORSDOF 7
ENDMDL
MODEL 3
REMARK VINA RESULT:      -8.7      1.030      1.195
REMARK  Name = 
REMARK  8 active torsions:
REMARK  status: ('A' for Active; 'I' for Inactive)
REMARK    1  A    between atoms: C_1  and  N_2
REMARK    2  A    between atoms: N_2  and  C_3
REMARK    3  A    between atoms: C_3  and  C_4
REMARK    4  A    between atoms: C_4  and  C_5
REMARK    5  A    between atoms: C_4  and  C_11
REMARK    6  A    between atoms: N_18  and  S_19
REMARK    7  A    between atoms: S_19  and  C_22
REMARK    8  A    between atoms: C_25  and  N_26
REMARK                            x       y       z     vdW  Elec       q    Type
REMARK                         _______ _______ _______ _____ _____    ______ ____
ROOT
ATOM      1  C   UNL     1       2.267   7.367  18.522  0.00  0.00    +0.000 A 
ATOM      2  C   UNL     1       1.696   8.478  17.879  0.00  0.00    +0.000 A 
ATOM      3  C   UNL     1       1.102   9.439  18.710  0.00  0.00    +0.000 A 
ATOM      4  C   UNL     1       0.866   9.146  20.056  0.00  0.00    +0.000 A 
ATOM      5  C   UNL     1       1.585   8.151  20.631  0.00  0.00    +0.000 A 
ATOM      6  N   UNL     1       2.283   7.278  19.893  0.00  0.00    +0.000 NA
ATOM      7  C   UNL     1       0.100  10.236  20.704  0.00  0.00    +0.000 C 
ATOM      8  N   UNL     1       0.748  11.374  20.062  0.00  0.00    +0.000 NA
ATOM      9  C   UNL     1       0.859  10.954  18.586  0.00  0.00    +0.000 C 
ENDROOT
BRANCH   8  10
ATOM     10  S   UNL     1       0.306  12.916  20.567  0.00  0.00    +0.000 S 
ATOM     11  O   UNL     1       1.112  13.236  21.718  0.00  0.00    +0.000 OA
ATOM     12  O   UNL     1       0.306  13.758  19.377  0.00  0.00    +0.000 OA
BRANCH  10  13
ATOM     13  C   UNL     1      -1.411  12.768  21.145  0.00  0.00    +0.000 A 
ATOM     14  C   UNL     1      -2.488  12.801  20.243  0.00  0.00    +0.000 A 
ATOM     15  C   UNL     1      -3.825  12.832  20.714  0.00  0.00    +0.000 A 
ATOM     16  C   UNL     1      -4.110  12.841  22.092  0.00  0.00    +0.000 A 
ATOM     17  C   UNL     1      -3.021  12.803  22.975  0.00  0.00    +0.000 A 
ATOM     18  F   UNL     1      -3.201  12.796  24.302  0.00  0.00    +0.000 F 
ATOM     19  C   UNL     1      -1.688  12.767  22.515  0.00  0.00    +0.000 A 
BRANCH  16  20
ATOM     20  N   UNL     1      -5.471  12.902  22.549  0.00  0.00    +0.000 N 
ATOM     21  C   UNL     1      -6.548  13.573  22.001  0.00  0.00    +0.000 A 
ATOM     22  C   UNL     1      -7.642  13.362  22.806  0.00  0.00    +0.000 A 
ATOM     23  C   UNL     1      -7.161  12.533  23.823  0.00  0.00    +0.000 A 
ATOM     24  N   UNL     1      -5.864  12.238  23.678  0.00  0.00    +0.000 NA
ENDBRANCH  16  20
ENDBRANCH  10  13
ENDBRANCH   8  10
BRANCH   1  25
ATOM     25  C   UNL     1       2.885   6.116  17.893  0.00  0.00    +0.000 C 
BRANCH  25  26
ATOM     26  C   UNL     1       2.266   4.732  18.108  0.00  0.00    +0.000 A 
ATOM     27  C   UNL     1       1.480   4.426  19.233  0.00  0.00    +0.000 A 
ATOM     28  C   UNL     1       1.228   3.097  19.592  0.00  0.00    +0.000 A 
ATOM     29  C   UNL     1       1.710   2.054  18.808  0.00  0.00    +0.000 A 
ATOM     30  C   UNL     1       2.411   2.336  17.640  0.00  0.00    +0.000 A 
ATOM     31  C   UNL     1       2.682   3.664  17.289  0.00  0.00    +0.000 A 
ENDBRANCH  25  26
BRANCH  25  32
ATOM     32  C   UNL     1       4.441   6.186  18.094  0.00  0.00    +0.000 C 
BRANCH  32  34
ATOM     33  C   UNL     1       5.787   4.423  19.066  0.00  0.00    +0.000 C 
ATOM     34  N   UNL     1       4.930   5.567  19.344  0.00  0.00    +0.000 NA
ATOM     35  H   UNL     1       5.433   6.254  19.906  0.00  0.00    +0.000 HD
ENDBRANCH  32  34
ENDBRANCH  25  32
ENDBRANCH   1  25
TORSDOF 7
ENDMDL
MODEL 4
REMARK VINA RESULT:      -8.7      1.131      2.654
REMARK  Name = 
REMARK  8 active torsions:
REMARK  status: ('A' for Active; 'I' for Inactive)
REMARK    1  A    between atoms: C_1  and  N_2
REMARK    2  A    between atoms: N_2  and  C_3
REMARK    3  A    between atoms: C_3  and  C_4
REMARK    4  A    between atoms: C_4  and  C_5
REMARK    5  A    between atoms: C_4  and  C_11
REMARK    6  A    between atoms: N_18  and  S_19
REMARK    7  A    between atoms: S_19  and  C_22
REMARK    8  A    between atoms: C_25  and  N_26
REMARK                            x       y       z     vdW  Elec       q    Type
REMARK                         _______ _______ _______ _____ _____    ______ ____
ROOT
ATOM      1  C   UNL     1       2.579   6.876  18.725  0.00  0.00    +0.000 A 
ATOM      2  C   UNL     1       2.226   8.011  17.975  0.00  0.00    +0.000 A 
ATOM      3  C   UNL     1       1.556   9.030  18.668  0.00  0.00    +0.000 A 
ATOM      4  C   UNL     1       1.046   8.785  19.945  0.00  0.00    +0.000 A 
ATOM      5  C   UNL     1       1.565   7.753  20.657  0.00  0.00    +0.000 A 
ATOM      6  N   UNL     1       2.325   6.817  20.074  0.00  0.00    +0.000 NA
ATOM      7  C   UNL     1       0.252   9.940  20.425  0.00  0.00    +0.000 C 
ATOM      8  N   UNL     1       1.094  11.015  19.911  0.00  0.00    +0.000 NA
ATOM      9  C   UNL     1       1.455  10.555  18.487  0.00  0.00    +0.000 C 
ENDROOT
BRANCH   8  10
ATOM     10  S   UNL     1       0.680  12.596  20.309  0.00  0.00    +0.000 S 
ATOM     11  O   UNL     1       1.438  12.955  21.481  0.00  0.00    +0.000 OA
ATOM     12  O   UNL     1       0.766  13.369  19.077  0.00  0.00    +0.000 OA
BRANCH  10  13
ATOM     13  C   UNL     1      -1.068  12.532  20.805  0.00  0.00    +0.000 A 
ATOM     14  C   UNL     1      -2.093  12.877  19.908  0.00  0.00    +0.000 A 
ATOM     15  C   UNL     1      -3.439  12.966  20.345  0.00  0.00    +0.000 A 
ATOM     16  C   UNL     1      -3.783  12.721  21.688  0.00  0.00    +0.000 A 
ATOM     17  C   UNL     1      -2.746  12.373  22.566  0.00  0.00    +0.000 A 
ATOM     18  F   UNL     1      -2.986  12.112  23.857  0.00  0.00    +0.000 F 
ATOM     19  C   UNL     1      -1.405  12.279  22.138  0.00  0.00    +0.000 A 
BRANCH  16  20
ATOM     20  N   UNL     1      -5.149  12.844  22.118  0.00  0.00    +0.000 N 
ATOM     21  C   UNL     1      -6.290  12.287  21.573  0.00  0.00    +0.000 A 
ATOM     22  C   UNL     1      -7.371  12.713  22.309  0.00  0.00    +0.000 A 
ATOM     23  C   UNL     1      -6.809  13.517  23.305  0.00  0.00    +0.000 A 
ATOM     24  N   UNL     1      -5.477  13.597  23.212  0.00  0.00    +0.000 NA
ENDBRANCH  16  20
ENDBRANCH  10  13
ENDBRANCH   8  10
BRANCH   1  25
ATOM     25  C   UNL     1       3.212   5.571  18.238  0.00  0.00    +0.000 C 
BRANCH  25  26
ATOM     26  C   UNL     1       4.409   5.579  17.284  0.00  0.00    +0.000 A 
ATOM     27  C   UNL     1       4.633   4.553  16.349  0.00  0.00    +0.000 A 
ATOM     28  C   UNL     1       5.887   4.388  15.751  0.00  0.00    +0.000 A 
ATOM     29  C   UNL     1       6.922   5.273  16.034  0.00  0.00    +0.000 A 
ATOM     30  C   UNL     1       6.695   6.350  16.885  0.00  0.00    +0.000 A 
ATOM     31  C   UNL     1       5.448   6.505  17.501  0.00  0.00    +0.000 A 
ENDBRANCH  25  26
BRANCH  25  32
ATOM     32  C   UNL     1       2.055   4.583  17.844  0.00  0.00    +0.000 C 
BRANCH  32  34
ATOM     33  C   UNL     1       0.999   2.600  18.749  0.00  0.00    +0.000 C 
ATOM     34  N   UNL     1       1.327   3.999  18.990  0.00  0.00    +0.000 NA
ATOM     35  H   UNL     1       1.878   4.089  19.844  0.00  0.00    +0.000 HD
ENDBRANCH  32  34
ENDBRANCH  25  32
ENDBRANCH   1  25
TORSDOF 7
ENDMDL
MODEL 5
REMARK VINA RESULT:      -8.6      1.596      1.948
REMARK  Name = 
REMARK  8 active torsions:
REMARK  status: ('A' for Active; 'I' for Inactive)
REMARK    1  A    between atoms: C_1  and  N_2
REMARK    2  A    between atoms: N_2  and  C_3
REMARK    3  A    between atoms: C_3  and  C_4
REMARK    4  A    between atoms: C_4  and  C_5
REMARK    5  A    between atoms: C_4  and  C_11
REMARK    6  A    between atoms: N_18  and  S_19
REMARK    7  A    between atoms: S_19  and  C_22
REMARK    8  A    between atoms: C_25  and  N_26
REMARK                            x       y       z     vdW  Elec       q    Type
REMARK                         _______ _______ _______ _____ _____    ______ ____
ROOT
ATOM      1  C   UNL     1       2.664   7.052  18.435  0.00  0.00    +0.000 A 
ATOM      2  C   UNL     1       2.233   8.195  17.741  0.00  0.00    +0.000 A 
ATOM      3  C   UNL     1       1.562   9.165  18.499  0.00  0.00    +0.000 A 
ATOM      4  C   UNL     1       1.125   8.861  19.791  0.00  0.00    +0.000 A 
ATOM      5  C   UNL     1       1.717   7.829  20.442  0.00  0.00    +0.000 A 
ATOM      6  N   UNL     1       2.480   6.941  19.792  0.00  0.00    +0.000 NA
ATOM      7  C   UNL     1       0.315   9.971  20.347  0.00  0.00    +0.000 C 
ATOM      8  N   UNL     1       1.091  11.092  19.828  0.00  0.00    +0.000 NA
ATOM      9  C   UNL     1       1.396  10.691  18.374  0.00  0.00    +0.000 C 
ENDROOT
BRANCH   8  10
ATOM     10  S   UNL     1       0.639  12.643  20.298  0.00  0.00    +0.000 S 
ATOM     11  O   UNL     1       0.943  12.770  21.701  0.00  0.00    +0.000 OA
ATOM     12  O   UNL     1       1.200  13.554  19.309  0.00  0.00    +0.000 OA
BRANCH  10  13
ATOM     13  C   UNL     1      -1.171  12.693  20.139  0.00  0.00    +0.000 A 
ATOM     14  C   UNL     1      -1.983  13.118  21.204  0.00  0.00    +0.000 A 
ATOM     15  C   UNL     1      -3.395  13.016  21.123  0.00  0.00    +0.000 A 
ATOM     16  C   UNL     1      -4.020  12.479  19.982  0.00  0.00    +0.000 A 
ATOM     17  C   UNL     1      -3.191  12.066  18.929  0.00  0.00    +0.000 A 
ATOM     18  F   UNL     1      -3.702  11.555  17.801  0.00  0.00    +0.000 F 
ATOM     19  C   UNL     1      -1.786  12.168  18.999  0.00  0.00    +0.000 A 
BRANCH  16  20
ATOM     20  N   UNL     1      -5.451  12.357  19.931  0.00  0.00    +0.000 N 
ATOM     21  C   UNL     1      -6.328  12.774  18.948  0.00  0.00    +0.000 A 
ATOM     22  C   UNL     1      -7.607  12.468  19.353  0.00  0.00    +0.000 A 
ATOM     23  C   UNL     1      -7.430  11.846  20.593  0.00  0.00    +0.000 A 
ATOM     24  N   UNL     1      -6.143  11.761  20.949  0.00  0.00    +0.000 NA
ENDBRANCH  16  20
ENDBRANCH  10  13
ENDBRANCH   8  10
BRANCH   1  25
ATOM     25  C   UNL     1       3.319   5.787  17.875  0.00  0.00    +0.000 C 
BRANCH  25  26
ATOM     26  C   UNL     1       2.812   4.395  18.260  0.00  0.00    +0.000 A 
ATOM     27  C   UNL     1       1.504   3.966  17.979  0.00  0.00    +0.000 A 
ATOM     28  C   UNL     1       0.953   2.860  18.637  0.00  0.00    +0.000 A 
ATOM     29  C   UNL     1       1.715   2.134  19.547  0.00  0.00    +0.000 A 
ATOM     30  C   UNL     1       3.042   2.486  19.771  0.00  0.00    +0.000 A 
ATOM     31  C   UNL     1       3.589   3.603  19.129  0.00  0.00    +0.000 A 
ENDBRANCH  25  26
BRANCH  25  32
ATOM     32  C   UNL     1       4.877   5.971  17.945  0.00  0.00    +0.000 C 
BRANCH  32  34
ATOM     33  C   UNL     1       7.031   5.810  16.850  0.00  0.00    +0.000 C 
ATOM     34  N   UNL     1       5.601   5.566  16.722  0.00  0.00    +0.000 NA
ATOM     35  H   UNL     1       5.430   4.581  16.518  0.00  0.00    +0.000 HD
ENDBRANCH  32  34
ENDBRANCH  25  32
ENDBRANCH   1  25
TORSDOF 7
ENDMDL
MODEL 6
REMARK VINA RESULT:      -8.6      1.866      3.212
REMARK  Name = 
REMARK  8 active torsions:
REMARK  status: ('A' for Active; 'I' for Inactive)
REMARK    1  A    between atoms: C_1  and  N_2
REMARK    2  A    between atoms: N_2  and  C_3
REMARK    3  A    between atoms: C_3  and  C_4
REMARK    4  A    between atoms: C_4  and  C_5
REMARK    5  A    between atoms: C_4  and  C_11
REMARK    6  A    between atoms: N_18  and  S_19
REMARK    7  A    between atoms: S_19  and  C_22
REMARK    8  A    between atoms: C_25  and  N_26
REMARK                            x       y       z     vdW  Elec       q    Type
REMARK                         _______ _______ _______ _____ _____    ______ ____
ROOT
ATOM      1  C   UNL     1       2.694   6.710  18.621  0.00  0.00    +0.000 A 
ATOM      2  C   UNL     1       2.330   7.812  17.829  0.00  0.00    +0.000 A 
ATOM      3  C   UNL     1       1.681   8.865  18.491  0.00  0.00    +0.000 A 
ATOM      4  C   UNL     1       1.198   8.680  19.789  0.00  0.00    +0.000 A 
ATOM      5  C   UNL     1       1.729   7.679  20.534  0.00  0.00    +0.000 A 
ATOM      6  N   UNL     1       2.471   6.713  19.976  0.00  0.00    +0.000 NA
ATOM      7  C   UNL     1       0.421   9.860  20.234  0.00  0.00    +0.000 C 
ATOM      8  N   UNL     1       1.256  10.906  19.654  0.00  0.00    +0.000 NA
ATOM      9  C   UNL     1       1.582  10.381  18.244  0.00  0.00    +0.000 C 
ENDROOT
BRANCH   8  10
ATOM     10  S   UNL     1       0.858  12.505  19.990  0.00  0.00    +0.000 S 
ATOM     11  O   UNL     1       1.242  12.764  21.354  0.00  0.00    +0.000 OA
ATOM     12  O   UNL     1       1.378  13.302  18.886  0.00  0.00    +0.000 OA
BRANCH  10  13
ATOM     13  C   UNL     1      -0.957  12.581  19.925  0.00  0.00    +0.000 A 
ATOM     14  C   UNL     1      -1.712  12.921  21.061  0.00  0.00    +0.000 A 
ATOM     15  C   UNL     1      -3.127  12.835  21.041  0.00  0.00    +0.000 A 
ATOM     16  C   UNL     1      -3.812  12.398  19.892  0.00  0.00    +0.000 A 
ATOM     17  C   UNL     1      -3.040  12.069  18.768  0.00  0.00    +0.000 A 
ATOM     18  F   UNL     1      -3.611  11.656  17.629  0.00  0.00    +0.000 F 
ATOM     19  C   UNL     1      -1.632  12.156  18.778  0.00  0.00    +0.000 A 
BRANCH  16  20
ATOM     20  N   UNL     1      -5.245  12.290  19.901  0.00  0.00    +0.000 N 
ATOM     21  C   UNL     1      -6.149  12.574  18.895  0.00  0.00    +0.000 A 
ATOM     22  C   UNL     1      -7.417  12.348  19.378  0.00  0.00    +0.000 A 
ATOM     23  C   UNL     1      -7.208  11.908  20.688  0.00  0.00    +0.000 A 
ATOM     24  N   UNL     1      -5.911  11.857  21.014  0.00  0.00    +0.000 NA
ENDBRANCH  16  20
ENDBRANCH  10  13
ENDBRANCH   8  10
BRANCH   1  25
ATOM     25  C   UNL     1       3.310   5.381  18.179  0.00  0.00    +0.000 C 
BRANCH  25  26
ATOM     26  C   UNL     1       4.505   5.341  17.222  0.00  0.00    +0.000 A 
ATOM     27  C   UNL     1       4.662   4.330  16.258  0.00  0.00    +0.000 A 
ATOM     28  C   UNL     1       5.903   4.103  15.651  0.00  0.00    +0.000 A 
ATOM     29  C   UNL     1       6.993   4.913  15.957  0.00  0.00    +0.000 A 
ATOM     30  C   UNL     1       6.835   5.977  16.840  0.00  0.00    +0.000 A 
ATOM     31  C   UNL     1       5.600   6.193  17.463  0.00  0.00    +0.000 A 
ENDBRANCH  25  26
BRANCH  25  32
ATOM     32  C   UNL     1       2.141   4.394  17.823  0.00  0.00    +0.000 C 
BRANCH  32  34
ATOM     33  C   UNL     1       0.925   2.604  18.910  0.00  0.00    +0.000 C 
ATOM     34  N   UNL     1       2.233   3.069  18.471  0.00  0.00    +0.000 NA
ATOM     35  H   UNL     1       2.652   2.391  17.834  0.00  0.00    +0.000 HD
ENDBRANCH  32  34
ENDBRANCH  25  32
ENDBRANCH   1  25
TORSDOF 7
ENDMDL
MODEL 7
REMARK VINA RESULT:      -8.5      1.186      2.416
REMARK  Name = 
REMARK  8 active torsions:
REMARK  status: ('A' for Active; 'I' for Inactive)
REMARK    1  A    between atoms: C_1  and  N_2
REMARK    2  A    between atoms: N_2  and  C_3
REMARK    3  A    between atoms: C_3  and  C_4
REMARK    4  A    between atoms: C_4  and  C_5
REMARK    5  A    between atoms: C_4  and  C_11
REMARK    6  A    between atoms: N_18  and  S_19
REMARK    7  A    between atoms: S_19  and  C_22
REMARK    8  A    between atoms: C_25  and  N_26
REMARK                            x       y       z     vdW  Elec       q    Type
REMARK                         _______ _______ _______ _____ _____    ______ ____
ROOT
ATOM      1  C   UNL     1       2.534   6.951  18.963  0.00  0.00    +0.000 A 
ATOM      2  C   UNL     1       2.181   8.066  18.184  0.00  0.00    +0.000 A 
ATOM      3  C   UNL     1       1.454   9.073  18.835  0.00  0.00    +0.000 A 
ATOM      4  C   UNL     1       0.897   8.828  20.092  0.00  0.00    +0.000 A 
ATOM      5  C   UNL     1       1.414   7.821  20.839  0.00  0.00    +0.000 A 
ATOM      6  N   UNL     1       2.224   6.900  20.301  0.00  0.00    +0.000 NA
ATOM      7  C   UNL     1       0.051   9.966  20.523  0.00  0.00    +0.000 C 
ATOM      8  N   UNL     1       0.884  11.058  20.032  0.00  0.00    +0.000 NA
ATOM      9  C   UNL     1       1.318  10.593  18.630  0.00  0.00    +0.000 C 
ENDROOT
BRANCH   8  10
ATOM     10  S   UNL     1       0.408  12.631  20.391  0.00  0.00    +0.000 S 
ATOM     11  O   UNL     1       1.053  13.001  21.625  0.00  0.00    +0.000 OA
ATOM     12  O   UNL     1       0.589  13.408  19.171  0.00  0.00    +0.000 OA
BRANCH  10  13
ATOM     13  C   UNL     1      -1.375  12.536  20.731  0.00  0.00    +0.000 A 
ATOM     14  C   UNL     1      -2.317  12.561  19.689  0.00  0.00    +0.000 A 
ATOM     15  C   UNL     1      -3.706  12.634  19.970  0.00  0.00    +0.000 A 
ATOM     16  C   UNL     1      -4.176  12.694  21.295  0.00  0.00    +0.000 A 
ATOM     17  C   UNL     1      -3.219  12.663  22.320  0.00  0.00    +0.000 A 
ATOM     18  F   UNL     1      -3.580  12.703  23.609  0.00  0.00    +0.000 F 
ATOM     19  C   UNL     1      -1.837  12.586  22.050  0.00  0.00    +0.000 A 
BRANCH  16  20
ATOM     20  N   UNL     1      -5.585  12.797  21.559  0.00  0.00    +0.000 N 
ATOM     21  C   UNL     1      -6.332  13.910  21.895  0.00  0.00    +0.000 A 
ATOM     22  C   UNL     1      -7.636  13.514  22.081  0.00  0.00    +0.000 A 
ATOM     23  C   UNL     1      -7.614  12.140  21.822  0.00  0.00    +0.000 A 
ATOM     24  N   UNL     1      -6.395  11.696  21.497  0.00  0.00    +0.000 NA
ENDBRANCH  16  20
ENDBRANCH  10  13
ENDBRANCH   8  10
BRANCH   1  25
ATOM     25  C   UNL     1       3.224   5.659  18.520  0.00  0.00    +0.000 C 
BRANCH  25  26
ATOM     26  C   UNL     1       4.611   5.682  17.874  0.00  0.00    +0.000 A 
ATOM     27  C   UNL     1       4.809   6.047  16.531  0.00  0.00    +0.000 A 
ATOM     28  C   UNL     1       5.999   5.725  15.867  0.00  0.00    +0.000 A 
ATOM     29  C   UNL     1       7.030   5.083  16.545  0.00  0.00    +0.000 A 
ATOM     30  C   UNL     1       6.890   4.796  17.900  0.00  0.00    +0.000 A 
ATOM     31  C   UNL     1       5.694   5.098  18.560  0.00  0.00    +0.000 A 
ENDBRANCH  25  26
BRANCH  25  32
ATOM     32  C   UNL     1       2.163   4.765  17.783  0.00  0.00    +0.000 C 
BRANCH  32  34
ATOM     33  C   UNL     1       2.080   2.400  18.298  0.00  0.00    +0.000 C 
ATOM     34  N   UNL     1       2.641   3.415  17.417  0.00  0.00    +0.000 NA
ATOM     35  H   UNL     1       2.406   3.207  16.447  0.00  0.00    +0.000 HD
ENDBRANCH  32  34
ENDBRANCH  25  32
ENDBRANCH   1  25
TORSDOF 7
ENDMDL
MODEL 8
REMARK VINA RESULT:      -8.5      1.812      2.290
REMARK  Name = 
REMARK  8 active torsions:
REMARK  status: ('A' for Active; 'I' for Inactive)
REMARK    1  A    between atoms: C_1  and  N_2
REMARK    2  A    between atoms: N_2  and  C_3
REMARK    3  A    between atoms: C_3  and  C_4
REMARK    4  A    between atoms: C_4  and  C_5
REMARK    5  A    between atoms: C_4  and  C_11
REMARK    6  A    between atoms: N_18  and  S_19
REMARK    7  A    between atoms: S_19  and  C_22
REMARK    8  A    between atoms: C_25  and  N_26
REMARK                            x       y       z     vdW  Elec       q    Type
REMARK                         _______ _______ _______ _____ _____    ______ ____
ROOT
ATOM      1  C   UNL     1       2.863   7.203  18.248  0.00  0.00    +0.000 A 
ATOM      2  C   UNL     1       2.390   8.367  17.619  0.00  0.00    +0.000 A 
ATOM      3  C   UNL     1       1.672   9.261  18.426  0.00  0.00    +0.000 A 
ATOM      4  C   UNL     1       1.235   8.861  19.691  0.00  0.00    +0.000 A 
ATOM      5  C   UNL     1       1.863   7.816  20.286  0.00  0.00    +0.000 A 
ATOM      6  N   UNL     1       2.670   7.002  19.593  0.00  0.00    +0.000 NA
ATOM      7  C   UNL     1       0.373   9.899  20.303  0.00  0.00    +0.000 C 
ATOM      8  N   UNL     1       1.105  11.082  19.863  0.00  0.00    +0.000 NA
ATOM      9  C   UNL     1       1.442  10.783  18.391  0.00  0.00    +0.000 C 
ENDROOT
BRANCH   8  10
ATOM     10  S   UNL     1       0.583  12.581  20.419  0.00  0.00    +0.000 S 
ATOM     11  O   UNL     1       0.762  12.591  21.849  0.00  0.00    +0.000 OA
ATOM     12  O   UNL     1       1.209  13.581  19.564  0.00  0.00    +0.000 OA
BRANCH  10  13
ATOM     13  C   UNL     1      -1.207  12.621  20.108  0.00  0.00    +0.000 A 
ATOM     14  C   UNL     1      -2.111  13.012  21.109  0.00  0.00    +0.000 A 
ATOM     15  C   UNL     1      -3.510  12.901  20.905  0.00  0.00    +0.000 A 
ATOM     16  C   UNL     1      -4.030  12.389  19.701  0.00  0.00    +0.000 A 
ATOM     17  C   UNL     1      -3.110  12.009  18.713  0.00  0.00    +0.000 A 
ATOM     18  F   UNL     1      -3.517  11.523  17.534  0.00  0.00    +0.000 F 
ATOM     19  C   UNL     1      -1.717  12.120  18.906  0.00  0.00    +0.000 A 
BRANCH  16  20
ATOM     20  N   UNL     1      -5.450  12.257  19.524  0.00  0.00    +0.000 N 
ATOM     21  C   UNL     1      -6.374  11.610  20.323  0.00  0.00    +0.000 A 
ATOM     22  C   UNL     1      -7.610  11.725  19.732  0.00  0.00    +0.000 A 
ATOM     23  C   UNL     1      -7.367  12.475  18.578  0.00  0.00    +0.000 A 
ATOM     24  N   UNL     1      -6.079  12.812  18.444  0.00  0.00    +0.000 NA
ENDBRANCH  16  20
ENDBRANCH  10  13
ENDBRANCH   8  10
BRANCH   1  25
ATOM     25  C   UNL     1       3.576   6.004  17.620  0.00  0.00    +0.000 C 
BRANCH  25  26
ATOM     26  C   UNL     1       3.348   4.583  18.143  0.00  0.00    +0.000 A 
ATOM     27  C   UNL     1       4.258   3.943  19.003  0.00  0.00    +0.000 A 
ATOM     28  C   UNL     1       4.224   2.555  19.179  0.00  0.00    +0.000 A 
ATOM     29  C   UNL     1       3.252   1.790  18.544  0.00  0.00    +0.000 A 
ATOM     30  C   UNL     1       2.285   2.414  17.762  0.00  0.00    +0.000 A 
ATOM     31  C   UNL     1       2.329   3.800  17.568  0.00  0.00    +0.000 A 
ENDBRANCH  25  26
BRANCH  25  32
ATOM     32  C   UNL     1       5.081   6.394  17.392  0.00  0.00    +0.000 C 
BRANCH  32  34
ATOM     33  C   UNL     1       6.080   5.259  15.500  0.00  0.00    +0.000 C 
ATOM     34  N   UNL     1       5.481   6.500  15.973  0.00  0.00    +0.000 NA
ATOM     35  H   UNL     1       4.678   6.745  15.395  0.00  0.00    +0.000 HD
ENDBRANCH  32  34
ENDBRANCH  25  32
ENDBRANCH   1  25
TORSDOF 7
ENDMDL
MODEL 9
REMARK VINA RESULT:      -8.5      2.507      3.770
REMARK  Name = 
REMARK  8 active torsions:
REMARK  status: ('A' for Active; 'I' for Inactive)
REMARK    1  A    between atoms: C_1  and  N_2
REMARK    2  A    between atoms: N_2  and  C_3
REMARK    3  A    between atoms: C_3  and  C_4
REMARK    4  A    between atoms: C_4  and  C_5
REMARK    5  A    between atoms: C_4  and  C_11
REMARK    6  A    between atoms: N_18  and  S_19
REMARK    7  A    between atoms: S_19  and  C_22
REMARK    8  A    between atoms: C_25  and  N_26
REMARK                            x       y       z     vdW  Elec       q    Type
REMARK                         _______ _______ _______ _____ _____    ______ ____
ROOT
ATOM      1  C   UNL     1       2.805   5.838  18.672  0.00  0.00    +0.000 A 
ATOM      2  C   UNL     1       2.460   6.886  17.802  0.00  0.00    +0.000 A 
ATOM      3  C   UNL     1       1.849   8.004  18.388  0.00  0.00    +0.000 A 
ATOM      4  C   UNL     1       1.380   7.933  19.702  0.00  0.00    +0.000 A 
ATOM      5  C   UNL     1       1.893   6.977  20.515  0.00  0.00    +0.000 A 
ATOM      6  N   UNL     1       2.601   5.950  20.025  0.00  0.00    +0.000 NA
ATOM      7  C   UNL     1       0.642   9.165  20.064  0.00  0.00    +0.000 C 
ATOM      8  N   UNL     1       1.497  10.140  19.395  0.00  0.00    +0.000 NA
ATOM      9  C   UNL     1       1.789   9.499  18.026  0.00  0.00    +0.000 C 
ENDROOT
BRANCH   8  10
ATOM     10  S   UNL     1       1.148  11.770  19.611  0.00  0.00    +0.000 S 
ATOM     11  O   UNL     1       1.321  12.063  21.012  0.00  0.00    +0.000 OA
ATOM     12  O   UNL     1       1.886  12.492  18.584  0.00  0.00    +0.000 OA
BRANCH  10  13
ATOM     13  C   UNL     1      -0.625  11.942  19.249  0.00  0.00    +0.000 A 
ATOM     14  C   UNL     1      -1.515  12.471  20.199  0.00  0.00    +0.000 A 
ATOM     15  C   UNL     1      -2.913  12.466  19.964  0.00  0.00    +0.000 A 
ATOM     16  C   UNL     1      -3.447  11.924  18.780  0.00  0.00    +0.000 A 
ATOM     17  C   UNL     1      -2.542  11.407  17.842  0.00  0.00    +0.000 A 
ATOM     18  F   UNL     1      -2.963  10.884  16.683  0.00  0.00    +0.000 F 
ATOM     19  C   UNL     1      -1.149  11.412  18.066  0.00  0.00    +0.000 A 
BRANCH  16  20
ATOM     20  N   UNL     1      -4.869  11.902  18.572  0.00  0.00    +0.000 N 
ATOM     21  C   UNL     1      -5.597  12.299  17.466  0.00  0.00    +0.000 A 
ATOM     22  C   UNL     1      -6.932  12.121  17.742  0.00  0.00    +0.000 A 
ATOM     23  C   UNL     1      -6.944  11.592  19.035  0.00  0.00    +0.000 A 
ATOM     24  N   UNL     1      -5.715  11.443  19.543  0.00  0.00    +0.000 NA
ENDBRANCH  16  20
ENDBRANCH  10  13
ENDBRANCH   8  10
BRANCH   1  25
ATOM     25  C   UNL     1       3.378   4.462  18.325  0.00  0.00    +0.000 C 
BRANCH  25  26
ATOM     26  C   UNL     1       4.792   4.312  17.758  0.00  0.00    +0.000 A 
ATOM     27  C   UNL     1       5.938   4.660  18.493  0.00  0.00    +0.000 A 
ATOM     28  C   UNL     1       7.169   4.857  17.855  0.00  0.00    +0.000 A 
ATOM     29  C   UNL     1       7.288   4.658  16.484  0.00  0.00    +0.000 A 
ATOM     30  C   UNL     1       6.187   4.223  15.752  0.00  0.00    +0.000 A 
ATOM     31  C   UNL     1       4.951   4.046  16.384  0.00  0.00    +0.000 A 
ENDBRANCH  25  26
BRANCH  25  32
ATOM     32  C   UNL     1       2.269   3.646  17.569  0.00  0.00    +0.000 C 
BRANCH  32  34
ATOM     33  C   UNL     1       1.825   2.103  19.382  0.00  0.00    +0.000 C 
ATOM     34  N   UNL     1       2.165   2.228  17.972  0.00  0.00    +0.000 NA
ATOM     35  H   UNL     1       1.471   1.746  17.399  0.00  0.00    +0.000 HD
ENDBRANCH  32  34
ENDBRANCH  25  32
ENDBRANCH   1  25
TORSDOF 7
ENDMDL
