MODEL 1
REMARK VINA RESULT:      -8.9      0.000      0.000
REMARK  Name = 
REMARK  6 active torsions:
REMARK  status: ('A' for Active; 'I' for Inactive)
REMARK    1  A    between atoms: N_3  and  C_4
REMARK    2  A    between atoms: C_4  and  C_5
REMARK    3  A    between atoms: C_6  and  C_7
REMARK    4  A    between atoms: C_7  and  O_8
REMARK    5  A    between atoms: O_8  and  C_9
REMARK    6  A    between atoms: N_16  and  C_17
REMARK                            x       y       z     vdW  Elec       q    Type
REMARK                         _______ _______ _______ _____ _____    ______ ____
ROOT
ATOM      1  O   UNL     1       5.228   6.712  16.956  0.00  0.00    +0.000 OA
ATOM      2  C   UNL     1       5.958   6.225  17.806  0.00  0.00    +0.000 C 
ATOM      3  N   UNL     1       7.222   6.699  18.088  0.00  0.00    +0.000 N 
ATOM      4  N   UNL     1       5.629   5.159  18.610  0.00  0.00    +0.000 N 
ATOM      5  H   UNL     1       7.884   5.995  18.377  0.00  0.00    +0.000 HD
ATOM      6  H   UNL     1       6.213   5.053  19.428  0.00  0.00    +0.000 HD
ENDROOT
BRANCH   4   7
ATOM      7  C   UNL     1       4.339   4.447  18.617  0.00  0.00    +0.000 C 
ATOM      8  C   UNL     1       3.922   3.997  17.196  0.00  0.00    +0.000 C 
ATOM      9  C   UNL     1       2.602   3.197  17.235  0.00  0.00    +0.000 C 
ATOM     10  C   UNL     1       2.780   1.946  18.111  0.00  0.00    +0.000 C 
ATOM     11  C   UNL     1       3.180   2.359  19.537  0.00  0.00    +0.000 C 
ATOM     12  C   UNL     1       2.074   3.238  20.139  0.00  0.00    +0.000 C 
ATOM     13  C   UNL     1       1.875   4.492  19.271  0.00  0.00    +0.000 C 
ATOM     14  C   UNL     1       1.492   4.071  17.841  0.00  0.00    +0.000 C 
ATOM     15  C   UNL     1       3.192   5.296  19.230  0.00  0.00    +0.000 C 
ATOM     16  C   UNL     1       4.492   3.161  19.483  0.00  0.00    +0.000 C 
ENDBRANCH   4   7
BRANCH   3  17
ATOM     17  C   UNL     1       7.760   7.795  17.305  0.00  0.00    +0.000 C 
BRANCH  17  18
ATOM     18  C   UNL     1       8.383   8.850  18.205  0.00  0.00    +0.000 C 
ATOM     19  C   UNL     1       8.917   9.755  18.978  0.00  0.00    +0.000 C 
BRANCH  19  20
ATOM     20  C   UNL     1       9.515  10.781  19.846  0.00  0.00    +0.000 C 
BRANCH  20  21
ATOM     21  O   UNL     1      10.764  11.200  19.295  0.00  0.00    +0.000 OA
BRANCH  21  22
ATOM     22  C   UNL     1      10.779  12.382  18.603  0.00  0.00    +0.000 A 
ATOM     23  C   UNL     1       9.966  13.491  18.852  0.00  0.00    +0.000 A 
ATOM     24  C   UNL     1      10.091  14.644  18.069  0.00  0.00    +0.000 A 
ATOM     25  C   UNL     1      11.028  14.681  17.041  0.00  0.00    +0.000 A 
ATOM     26  F   UNL     1      11.146  15.789  16.297  0.00  0.00    +0.000 F 
ATOM     27  C   UNL     1      11.837  13.587  16.776  0.00  0.00    +0.000 A 
ATOM     28  C   UNL     1      11.711  12.436  17.559  0.00  0.00    +0.000 A 
ENDBRANCH  21  22
ENDBRANCH  20  21
ENDBRANCH  19  20
ENDBRANCH  17  18
ENDBRANCH   3  17
TORSDOF 6
ENDMDL
MODEL 2
REMARK VINA RESULT:      -8.7      0.316      1.739
REMARK  Name = 
REMARK  6 active torsions:
REMARK  status: ('A' for Active; 'I' for Inactive)
REMARK    1  A    between atoms: N_3  and  C_4
REMARK    2  A    between atoms: C_4  and  C_5
REMARK    3  A    between atoms: C_6  and  C_7
REMARK    4  A    between atoms: C_7  and  O_8
REMARK    5  A    between atoms: O_8  and  C_9
REMARK    6  A    between atoms: N_16  and  C_17
REMARK                            x       y       z     vdW  Elec       q    Type
REMARK                         _______ _______ _______ _____ _____    ______ ____
ROOT
ATOM      1  O   UNL     1       5.098   6.851  17.190  0.00  0.00    +0.000 OA
ATOM      2  C   UNL     1       5.920   6.272  17.884  0.00  0.00    +0.000 C 
ATOM      3  N   UNL     1       7.225   6.692  18.031  0.00  0.00    +0.000 N 
ATOM      4  N   UNL     1       5.669   5.141  18.625  0.00  0.00    +0.000 N 
ATOM      5  H   UNL     1       7.898   5.950  18.161  0.00  0.00    +0.000 HD
ATOM      6  H   UNL     1       6.354   4.947  19.342  0.00  0.00    +0.000 HD
ENDROOT
BRANCH   4   7
ATOM      7  C   UNL     1       4.369   4.457  18.745  0.00  0.00    +0.000 C 
ATOM      8  C   UNL     1       3.266   5.407  19.270  0.00  0.00    +0.000 C 
ATOM      9  C   UNL     1       1.899   4.690  19.324  0.00  0.00    +0.000 C 
ATOM     10  C   UNL     1       1.506   4.215  17.916  0.00  0.00    +0.000 C 
ATOM     11  C   UNL     1       2.575   3.255  17.371  0.00  0.00    +0.000 C 
ATOM     12  C   UNL     1       2.683   2.036  18.298  0.00  0.00    +0.000 C 
ATOM     13  C   UNL     1       3.067   2.491  19.716  0.00  0.00    +0.000 C 
ATOM     14  C   UNL     1       2.001   3.465  20.248  0.00  0.00    +0.000 C 
ATOM     15  C   UNL     1       4.433   3.208  19.666  0.00  0.00    +0.000 C 
ATOM     16  C   UNL     1       3.933   3.980  17.328  0.00  0.00    +0.000 C 
ENDBRANCH   4   7
BRANCH   3  17
ATOM     17  C   UNL     1       7.688   7.846  17.284  0.00  0.00    +0.000 C 
BRANCH  17  18
ATOM     18  C   UNL     1       8.341   8.862  18.206  0.00  0.00    +0.000 C 
ATOM     19  C   UNL     1       8.902   9.734  18.997  0.00  0.00    +0.000 C 
BRANCH  19  20
ATOM     20  C   UNL     1       9.529  10.718  19.894  0.00  0.00    +0.000 C 
BRANCH  20  21
ATOM     21  O   UNL     1      10.796  11.106  19.362  0.00  0.00    +0.000 OA
BRANCH  21  22
ATOM     22  C   UNL     1      10.844  12.272  18.646  0.00  0.00    +0.000 A 
ATOM     23  C   UNL     1      11.300  12.413  17.332  0.00  0.00    +0.000 A 
ATOM     24  C   UNL     1      11.286  13.669  16.714  0.00  0.00    +0.000 A 
ATOM     25  C   UNL     1      10.818  14.777  17.414  0.00  0.00    +0.000 A 
ATOM     26  F   UNL     1      10.805  15.975  16.816  0.00  0.00    +0.000 F 
ATOM     27  C   UNL     1      10.370  14.655  18.720  0.00  0.00    +0.000 A 
ATOM     28  C   UNL     1      10.383  13.401  19.336  0.00  0.00    +0.000 A 
ENDBRANCH  21  22
ENDBRANCH  20  21
ENDBRANCH  19  20
ENDBRANCH  17  18
ENDBRANCH   3  17
TORSDOF 6
ENDMDL
MODEL 3
REMARK VINA RESULT:      -8.7      1.192      1.658
REMARK  Name = 
REMARK  6 active torsions:
REMARK  status: ('A' for Active; 'I' for Inactive)
REMARK    1  A    between atoms: N_3  and  C_4
REMARK    2  A    between atoms: C_4  and  C_5
REMARK    3  A    between atoms: C_6  and  C_7
REMARK    4  A    between atoms: C_7  and  O_8
REMARK    5  A    between atoms: O_8  and  C_9
REMARK    6  A    between atoms: N_16  and  C_17
REMARK                            x       y       z     vdW  Elec       q    Type
REMARK                         _______ _______ _______ _____ _____    ______ ____
ROOT
ATOM      1  O   UNL     1       6.261   4.840  19.220  0.00  0.00    +0.000 OA
ATOM      2  C   UNL     1       5.667   5.545  18.419  0.00  0.00    +0.000 C 
ATOM      3  N   UNL     1       6.291   6.463  17.601  0.00  0.00    +0.000 N 
ATOM      4  N   UNL     1       4.309   5.519  18.201  0.00  0.00    +0.000 N 
ATOM      5  H   UNL     1       5.745   7.286  17.392  0.00  0.00    +0.000 HD
ATOM      6  H   UNL     1       4.013   5.951  17.337  0.00  0.00    +0.000 HD
ENDROOT
BRANCH   4   7
ATOM      7  C   UNL     1       3.345   4.619  18.860  0.00  0.00    +0.000 C 
ATOM      8  C   UNL     1       2.031   4.493  18.052  0.00  0.00    +0.000 C 
ATOM      9  C   UNL     1       1.064   3.494  18.724  0.00  0.00    +0.000 C 
ATOM     10  C   UNL     1       1.723   2.107  18.805  0.00  0.00    +0.000 C 
ATOM     11  C   UNL     1       3.026   2.194  19.616  0.00  0.00    +0.000 C 
ATOM     12  C   UNL     1       2.707   2.681  21.037  0.00  0.00    +0.000 C 
ATOM     13  C   UNL     1       2.039   4.064  20.978  0.00  0.00    +0.000 C 
ATOM     14  C   UNL     1       0.744   3.973  20.150  0.00  0.00    +0.000 C 
ATOM     15  C   UNL     1       3.003   5.065  20.307  0.00  0.00    +0.000 C 
ATOM     16  C   UNL     1       3.978   3.197  18.940  0.00  0.00    +0.000 C 
ENDBRANCH   4   7
BRANCH   3  17
ATOM     17  C   UNL     1       7.722   6.664  17.723  0.00  0.00    +0.000 C 
BRANCH  17  18
ATOM     18  C   UNL     1       8.049   8.138  17.904  0.00  0.00    +0.000 C 
ATOM     19  C   UNL     1       8.330   9.402  18.060  0.00  0.00    +0.000 C 
BRANCH  19  20
ATOM     20  C   UNL     1       8.640  10.829  18.237  0.00  0.00    +0.000 C 
BRANCH  20  21
ATOM     21  O   UNL     1      10.056  11.012  18.232  0.00  0.00    +0.000 OA
BRANCH  21  22
ATOM     22  C   UNL     1      10.528  12.242  17.857  0.00  0.00    +0.000 A 
ATOM     23  C   UNL     1      11.772  12.505  17.278  0.00  0.00    +0.000 A 
ATOM     24  C   UNL     1      12.125  13.815  16.935  0.00  0.00    +0.000 A 
ATOM     25  C   UNL     1      11.232  14.855  17.173  0.00  0.00    +0.000 A 
ATOM     26  F   UNL     1      11.575  16.105  16.839  0.00  0.00    +0.000 F 
ATOM     27  C   UNL     1       9.997  14.612  17.753  0.00  0.00    +0.000 A 
ATOM     28  C   UNL     1       9.645  13.304  18.096  0.00  0.00    +0.000 A 
ENDBRANCH  21  22
ENDBRANCH  20  21
ENDBRANCH  19  20
ENDBRANCH  17  18
ENDBRANCH   3  17
TORSDOF 6
ENDMDL
MODEL 4
REMARK VINA RESULT:      -8.6      1.376      1.661
REMARK  Name = 
REMARK  6 active torsions:
REMARK  status: ('A' for Active; 'I' for Inactive)
REMARK    1  A    between atoms: N_3  and  C_4
REMARK    2  A    between atoms: C_4  and  C_5
REMARK    3  A    between atoms: C_6  and  C_7
REMARK    4  A    between atoms: C_7  and  O_8
REMARK    5  A    between atoms: O_8  and  C_9
REMARK    6  A    between atoms: N_16  and  C_17
REMARK                            x       y       z     vdW  Elec       q    Type
REMARK                         _______ _______ _______ _____ _____    ______ ____
ROOT
ATOM      1  O   UNL     1       6.182   4.732  19.041  0.00  0.00    +0.000 OA
ATOM      2  C   UNL     1       5.554   5.411  18.243  0.00  0.00    +0.000 C 
ATOM      3  N   UNL     1       6.144   6.296  17.365  0.00  0.00    +0.000 N 
ATOM      4  N   UNL     1       4.188   5.385  18.090  0.00  0.00    +0.000 N 
ATOM      5  H   UNL     1       5.592   7.114  17.152  0.00  0.00    +0.000 HD
ATOM      6  H   UNL     1       3.853   5.787  17.225  0.00  0.00    +0.000 HD
ENDROOT
BRANCH   4   7
ATOM      7  C   UNL     1       3.252   4.514  18.823  0.00  0.00    +0.000 C 
ATOM      8  C   UNL     1       1.894   4.383  18.093  0.00  0.00    +0.000 C 
ATOM      9  C   UNL     1       0.955   3.415  18.844  0.00  0.00    +0.000 C 
ATOM     10  C   UNL     1       1.602   2.022  18.924  0.00  0.00    +0.000 C 
ATOM     11  C   UNL     1       2.949   2.114  19.659  0.00  0.00    +0.000 C 
ATOM     12  C   UNL     1       2.714   2.640  21.083  0.00  0.00    +0.000 C 
ATOM     13  C   UNL     1       2.059   4.029  21.024  0.00  0.00    +0.000 C 
ATOM     14  C   UNL     1       0.720   3.934  20.272  0.00  0.00    +0.000 C 
ATOM     15  C   UNL     1       2.996   5.001  20.276  0.00  0.00    +0.000 C 
ATOM     16  C   UNL     1       3.873   3.087  18.905  0.00  0.00    +0.000 C 
ENDBRANCH   4   7
BRANCH   3  17
ATOM     17  C   UNL     1       7.579   6.494  17.414  0.00  0.00    +0.000 C 
BRANCH  17  18
ATOM     18  C   UNL     1       7.917   7.947  17.708  0.00  0.00    +0.000 C 
ATOM     19  C   UNL     1       8.206   9.193  17.960  0.00  0.00    +0.000 C 
BRANCH  19  20
ATOM     20  C   UNL     1       8.535  10.600  18.238  0.00  0.00    +0.000 C 
BRANCH  20  21
ATOM     21  O   UNL     1       9.846  10.679  18.800  0.00  0.00    +0.000 OA
BRANCH  21  22
ATOM     22  C   UNL     1      10.454  11.907  18.801  0.00  0.00    +0.000 A 
ATOM     23  C   UNL     1      11.024  12.541  19.907  0.00  0.00    +0.000 A 
ATOM     24  C   UNL     1      11.623  13.798  19.765  0.00  0.00    +0.000 A 
ATOM     25  C   UNL     1      11.647  14.414  18.518  0.00  0.00    +0.000 A 
ATOM     26  F   UNL     1      12.224  15.615  18.388  0.00  0.00    +0.000 F 
ATOM     27  C   UNL     1      11.078  13.801  17.412  0.00  0.00    +0.000 A 
ATOM     28  C   UNL     1      10.481  12.546  17.554  0.00  0.00    +0.000 A 
ENDBRANCH  21  22
ENDBRANCH  20  21
ENDBRANCH  19  20
ENDBRANCH  17  18
ENDBRANCH   3  17
TORSDOF 6
ENDMDL
MODEL 5
REMARK VINA RESULT:      -8.5      1.090      1.890
REMARK  Name = 
REMARK  6 active torsions:
REMARK  status: ('A' for Active; 'I' for Inactive)
REMARK    1  A    between atoms: N_3  and  C_4
REMARK    2  A    between atoms: C_4  and  C_5
REMARK    3  A    between atoms: C_6  and  C_7
REMARK    4  A    between atoms: C_7  and  O_8
REMARK    5  A    between atoms: O_8  and  C_9
REMARK    6  A    between atoms: N_16  and  C_17
REMARK                            x       y       z     vdW  Elec       q    Type
REMARK                         _______ _______ _______ _____ _____    ______ ____
ROOT
ATOM      1  O   UNL     1       6.065   4.746  17.850  0.00  0.00    +0.000 OA
ATOM      2  C   UNL     1       5.388   5.759  17.938  0.00  0.00    +0.000 C 
ATOM      3  N   UNL     1       5.816   7.001  17.521  0.00  0.00    +0.000 N 
ATOM      4  N   UNL     1       4.109   5.811  18.444  0.00  0.00    +0.000 N 
ATOM      5  H   UNL     1       5.462   7.776  18.062  0.00  0.00    +0.000 HD
ATOM      6  H   UNL     1       3.594   6.646  18.201  0.00  0.00    +0.000 HD
ENDROOT
BRANCH   4   7
ATOM      7  C   UNL     1       3.323   4.661  18.926  0.00  0.00    +0.000 C 
ATOM      8  C   UNL     1       2.168   5.103  19.855  0.00  0.00    +0.000 C 
ATOM      9  C   UNL     1       1.318   3.890  20.294  0.00  0.00    +0.000 C 
ATOM     10  C   UNL     1       0.715   3.204  19.057  0.00  0.00    +0.000 C 
ATOM     11  C   UNL     1       1.840   2.737  18.119  0.00  0.00    +0.000 C 
ATOM     12  C   UNL     1       2.737   1.736  18.860  0.00  0.00    +0.000 C 
ATOM     13  C   UNL     1       3.343   2.401  20.107  0.00  0.00    +0.000 C 
ATOM     14  C   UNL     1       2.211   2.881  21.034  0.00  0.00    +0.000 C 
ATOM     15  C   UNL     1       4.194   3.613  19.672  0.00  0.00    +0.000 C 
ATOM     16  C   UNL     1       2.683   3.954  17.694  0.00  0.00    +0.000 C 
ENDBRANCH   4   7
BRANCH   3  17
ATOM     17  C   UNL     1       7.161   7.150  17.001  0.00  0.00    +0.000 C 
BRANCH  17  18
ATOM     18  C   UNL     1       7.872   8.320  17.663  0.00  0.00    +0.000 C 
ATOM     19  C   UNL     1       8.481   9.324  18.230  0.00  0.00    +0.000 C 
BRANCH  19  20
ATOM     20  C   UNL     1       9.172  10.452  18.876  0.00  0.00    +0.000 C 
BRANCH  20  21
ATOM     21  O   UNL     1      10.116  11.014  17.965  0.00  0.00    +0.000 OA
BRANCH  21  22
ATOM     22  C   UNL     1      10.140  12.379  17.849  0.00  0.00    +0.000 A 
ATOM     23  C   UNL     1       9.203  13.266  18.386  0.00  0.00    +0.000 A 
ATOM     24  C   UNL     1       9.353  14.645  18.199  0.00  0.00    +0.000 A 
ATOM     25  C   UNL     1      10.438  15.128  17.474  0.00  0.00    +0.000 A 
ATOM     26  F   UNL     1      10.577  16.449  17.301  0.00  0.00    +0.000 F 
ATOM     27  C   UNL     1      11.372  14.261  16.928  0.00  0.00    +0.000 A 
ATOM     28  C   UNL     1      11.222  12.884  17.116  0.00  0.00    +0.000 A 
ENDBRANCH  21  22
ENDBRANCH  20  21
ENDBRANCH  19  20
ENDBRANCH  17  18
ENDBRANCH   3  17
TORSDOF 6
ENDMDL
MODEL 6
REMARK VINA RESULT:      -8.4      1.311      1.487
REMARK  Name = 
REMARK  6 active torsions:
REMARK  status: ('A' for Active; 'I' for Inactive)
REMARK    1  A    between atoms: N_3  and  C_4
REMARK    2  A    between atoms: C_4  and  C_5
REMARK    3  A    between atoms: C_6  and  C_7
REMARK    4  A    between atoms: C_7  and  O_8
REMARK    5  A    between atoms: O_8  and  C_9
REMARK    6  A    between atoms: N_16  and  C_17
REMARK                            x       y       z     vdW  Elec       q    Type
REMARK                         _______ _______ _______ _____ _____    ______ ____
ROOT
ATOM      1  O   UNL     1       6.253   4.708  19.214  0.00  0.00    +0.000 OA
ATOM      2  C   UNL     1       5.672   5.505  18.494  0.00  0.00    +0.000 C 
ATOM      3  N   UNL     1       6.318   6.456  17.733  0.00  0.00    +0.000 N 
ATOM      4  N   UNL     1       4.308   5.565  18.323  0.00  0.00    +0.000 N 
ATOM      5  H   UNL     1       5.809   7.319  17.611  0.00  0.00    +0.000 HD
ATOM      6  H   UNL     1       4.009   6.081  17.507  0.00  0.00    +0.000 HD
ENDROOT
BRANCH   4   7
ATOM      7  C   UNL     1       3.320   4.661  18.938  0.00  0.00    +0.000 C 
ATOM      8  C   UNL     1       2.031   4.553  18.088  0.00  0.00    +0.000 C 
ATOM      9  C   UNL     1       1.038   3.552  18.716  0.00  0.00    +0.000 C 
ATOM     10  C   UNL     1       1.687   2.160  18.800  0.00  0.00    +0.000 C 
ATOM     11  C   UNL     1       2.964   2.230  19.653  0.00  0.00    +0.000 C 
ATOM     12  C   UNL     1       2.602   2.700  21.069  0.00  0.00    +0.000 C 
ATOM     13  C   UNL     1       1.943   4.087  21.006  0.00  0.00    +0.000 C 
ATOM     14  C   UNL     1       0.675   4.014  20.137  0.00  0.00    +0.000 C 
ATOM     15  C   UNL     1       2.934   5.091  20.380  0.00  0.00    +0.000 C 
ATOM     16  C   UNL     1       3.942   3.235  19.020  0.00  0.00    +0.000 C 
ENDBRANCH   4   7
BRANCH   3  17
ATOM     17  C   UNL     1       7.760   6.576  17.822  0.00  0.00    +0.000 C 
BRANCH  17  18
ATOM     18  C   UNL     1       8.167   8.002  18.157  0.00  0.00    +0.000 C 
ATOM     19  C   UNL     1       8.516   9.224  18.446  0.00  0.00    +0.000 C 
BRANCH  19  20
ATOM     20  C   UNL     1       8.903  10.607  18.770  0.00  0.00    +0.000 C 
BRANCH  20  21
ATOM     21  O   UNL     1       9.598  11.178  17.662  0.00  0.00    +0.000 OA
BRANCH  21  22
ATOM     22  C   UNL     1       9.800  12.533  17.680  0.00  0.00    +0.000 A 
ATOM     23  C   UNL     1       8.865  13.499  18.060  0.00  0.00    +0.000 A 
ATOM     24  C   UNL     1       9.208  14.856  18.039  0.00  0.00    +0.000 A 
ATOM     25  C   UNL     1      10.484  15.238  17.636  0.00  0.00    +0.000 A 
ATOM     26  F   UNL     1      10.807  16.538  17.621  0.00  0.00    +0.000 F 
ATOM     27  C   UNL     1      11.421  14.293  17.249  0.00  0.00    +0.000 A 
ATOM     28  C   UNL     1      11.077  12.938  17.270  0.00  0.00    +0.000 A 
ENDBRANCH  21  22
ENDBRANCH  20  21
ENDBRANCH  19  20
ENDBRANCH  17  18
ENDBRANCH   3  17
TORSDOF 6
ENDMDL
MODEL 7
REMARK VINA RESULT:      -8.3      1.504      2.374
REMARK  Name = 
REMARK  6 active torsions:
REMARK  status: ('A' for Active; 'I' for Inactive)
REMARK    1  A    between atoms: N_3  and  C_4
REMARK    2  A    between atoms: C_4  and  C_5
REMARK    3  A    between atoms: C_6  and  C_7
REMARK    4  A    between atoms: C_7  and  O_8
REMARK    5  A    between atoms: O_8  and  C_9
REMARK    6  A    between atoms: N_16  and  C_17
REMARK                            x       y       z     vdW  Elec       q    Type
REMARK                         _______ _______ _______ _____ _____    ______ ____
ROOT
ATOM      1  O   UNL     1       6.352   4.876  19.705  0.00  0.00    +0.000 OA
ATOM      2  C   UNL     1       5.826   5.466  18.774  0.00  0.00    +0.000 C 
ATOM      3  N   UNL     1       6.505   6.320  17.932  0.00  0.00    +0.000 N 
ATOM      4  N   UNL     1       4.501   5.357  18.420  0.00  0.00    +0.000 N 
ATOM      5  H   UNL     1       5.958   7.091  17.578  0.00  0.00    +0.000 HD
ATOM      6  H   UNL     1       4.287   5.682  17.487  0.00  0.00    +0.000 HD
ENDROOT
BRANCH   4   7
ATOM      7  C   UNL     1       3.502   4.488  19.067  0.00  0.00    +0.000 C 
ATOM      8  C   UNL     1       2.991   5.091  20.397  0.00  0.00    +0.000 C 
ATOM      9  C   UNL     1       1.898   4.198  21.024  0.00  0.00    +0.000 C 
ATOM     10  C   UNL     1       0.710   4.074  20.056  0.00  0.00    +0.000 C 
ATOM     11  C   UNL     1       1.182   3.463  18.727  0.00  0.00    +0.000 C 
ATOM     12  C   UNL     1       1.762   2.065  18.989  0.00  0.00    +0.000 C 
ATOM     13  C   UNL     1       2.946   2.166  19.964  0.00  0.00    +0.000 C 
ATOM     14  C   UNL     1       2.471   2.796  21.286  0.00  0.00    +0.000 C 
ATOM     15  C   UNL     1       4.041   3.057  19.340  0.00  0.00    +0.000 C 
ATOM     16  C   UNL     1       2.275   4.358  18.116  0.00  0.00    +0.000 C 
ENDBRANCH   4   7
BRANCH   3  17
ATOM     17  C   UNL     1       7.906   6.597  18.180  0.00  0.00    +0.000 C 
BRANCH  17  18
ATOM     18  C   UNL     1       8.178   8.093  18.148  0.00  0.00    +0.000 C 
ATOM     19  C   UNL     1       8.410   9.375  18.120  0.00  0.00    +0.000 C 
BRANCH  19  20
ATOM     20  C   UNL     1       8.678  10.822  18.083  0.00  0.00    +0.000 C 
BRANCH  20  21
ATOM     21  O   UNL     1       9.394  11.202  19.258  0.00  0.00    +0.000 OA
BRANCH  21  22
ATOM     22  C   UNL     1      10.141  12.349  19.193  0.00  0.00    +0.000 A 
ATOM     23  C   UNL     1      11.421  12.527  19.725  0.00  0.00    +0.000 A 
ATOM     24  C   UNL     1      12.077  13.755  19.579  0.00  0.00    +0.000 A 
ATOM     25  C   UNL     1      11.449  14.797  18.904  0.00  0.00    +0.000 A 
ATOM     26  F   UNL     1      12.084  15.967  18.765  0.00  0.00    +0.000 F 
ATOM     27  C   UNL     1      10.177  14.638  18.377  0.00  0.00    +0.000 A 
ATOM     28  C   UNL     1       9.522  13.412  18.523  0.00  0.00    +0.000 A 
ENDBRANCH  21  22
ENDBRANCH  20  21
ENDBRANCH  19  20
ENDBRANCH  17  18
ENDBRANCH   3  17
TORSDOF 6
ENDMDL
MODEL 8
REMARK VINA RESULT:      -8.3      2.107      2.969
REMARK  Name = 
REMARK  6 active torsions:
REMARK  status: ('A' for Active; 'I' for Inactive)
REMARK    1  A    between atoms: N_3  and  C_4
REMARK    2  A    between atoms: C_4  and  C_5
REMARK    3  A    between atoms: C_6  and  C_7
REMARK    4  A    between atoms: C_7  and  O_8
REMARK    5  A    between atoms: O_8  and  C_9
REMARK    6  A    between atoms: N_16  and  C_17
REMARK                            x       y       z     vdW  Elec       q    Type
REMARK                         _______ _______ _______ _____ _____    ______ ____
ROOT
ATOM      1  O   UNL     1       6.055   4.530  18.381  0.00  0.00    +0.000 OA
ATOM      2  C   UNL     1       5.387   5.542  18.236  0.00  0.00    +0.000 C 
ATOM      3  N   UNL     1       5.868   6.698  17.661  0.00  0.00    +0.000 N 
ATOM      4  N   UNL     1       4.067   5.674  18.604  0.00  0.00    +0.000 N 
ATOM      5  H   UNL     1       5.476   7.552  18.031  0.00  0.00    +0.000 HD
ATOM      6  H   UNL     1       3.588   6.456  18.179  0.00  0.00    +0.000 HD
ENDROOT
BRANCH   4   7
ATOM      7  C   UNL     1       3.225   4.618  19.194  0.00  0.00    +0.000 C 
ATOM      8  C   UNL     1       2.389   5.147  20.384  0.00  0.00    +0.000 C 
ATOM      9  C   UNL     1       1.465   4.043  20.943  0.00  0.00    +0.000 C 
ATOM     10  C   UNL     1       0.502   3.566  19.844  0.00  0.00    +0.000 C 
ATOM     11  C   UNL     1       1.302   3.019  18.650  0.00  0.00    +0.000 C 
ATOM     12  C   UNL     1       2.159   1.832  19.115  0.00  0.00    +0.000 C 
ATOM     13  C   UNL     1       3.123   2.287  20.222  0.00  0.00    +0.000 C 
ATOM     14  C   UNL     1       2.317   2.850  21.406  0.00  0.00    +0.000 C 
ATOM     15  C   UNL     1       4.049   3.390  19.667  0.00  0.00    +0.000 C 
ATOM     16  C   UNL     1       2.223   4.126  18.107  0.00  0.00    +0.000 C 
ENDBRANCH   4   7
BRANCH   3  17
ATOM     17  C   UNL     1       7.258   6.762  17.253  0.00  0.00    +0.000 C 
BRANCH  17  18
ATOM     18  C   UNL     1       7.899   8.062  17.712  0.00  0.00    +0.000 C 
ATOM     19  C   UNL     1       8.449   9.177  18.105  0.00  0.00    +0.000 C 
BRANCH  19  20
ATOM     20  C   UNL     1       9.070  10.433  18.556  0.00  0.00    +0.000 C 
BRANCH  20  21
ATOM     21  O   UNL     1       9.231  10.400  19.974  0.00  0.00    +0.000 OA
BRANCH  21  22
ATOM     22  C   UNL     1       9.428  11.597  20.610  0.00  0.00    +0.000 A 
ATOM     23  C   UNL     1       8.807  12.013  21.791  0.00  0.00    +0.000 A 
ATOM     24  C   UNL     1       9.108  13.265  22.340  0.00  0.00    +0.000 A 
ATOM     25  C   UNL     1      10.027  14.094  21.704  0.00  0.00    +0.000 A 
ATOM     26  F   UNL     1      10.312  15.289  22.236  0.00  0.00    +0.000 F 
ATOM     27  C   UNL     1      10.646  13.699  20.528  0.00  0.00    +0.000 A 
ATOM     28  C   UNL     1      10.345  12.449  19.981  0.00  0.00    +0.000 A 
ENDBRANCH  21  22
ENDBRANCH  20  21
ENDBRANCH  19  20
ENDBRANCH  17  18
ENDBRANCH   3  17
TORSDOF 6
ENDMDL
MODEL 9
REMARK VINA RESULT:      -8.3      1.278      1.851
REMARK  Name = 
REMARK  6 active torsions:
REMARK  status: ('A' for Active; 'I' for Inactive)
REMARK    1  A    between atoms: N_3  and  C_4
REMARK    2  A    between atoms: C_4  and  C_5
REMARK    3  A    between atoms: C_6  and  C_7
REMARK    4  A    between atoms: C_7  and  O_8
REMARK    5  A    between atoms: O_8  and  C_9
REMARK    6  A    between atoms: N_16  and  C_17
REMARK                            x       y       z     vdW  Elec       q    Type
REMARK                         _______ _______ _______ _____ _____    ______ ____
ROOT
ATOM      1  O   UNL     1       6.269   4.790  18.243  0.00  0.00    +0.000 OA
ATOM      2  C   UNL     1       5.557   5.758  18.020  0.00  0.00    +0.000 C 
ATOM      3  N   UNL     1       6.010   6.917  17.427  0.00  0.00    +0.000 N 
ATOM      4  N   UNL     1       4.213   5.830  18.305  0.00  0.00    +0.000 N 
ATOM      5  H   UNL     1       5.552   7.761  17.740  0.00  0.00    +0.000 HD
ATOM      6  H   UNL     1       3.719   6.568  17.822  0.00  0.00    +0.000 HD
ENDROOT
BRANCH   4   7
ATOM      7  C   UNL     1       3.394   4.751  18.886  0.00  0.00    +0.000 C 
ATOM      8  C   UNL     1       4.227   3.475  19.152  0.00  0.00    +0.000 C 
ATOM      9  C   UNL     1       3.366   2.383  19.822  0.00  0.00    +0.000 C 
ATOM     10  C   UNL     1       2.823   2.900  21.164  0.00  0.00    +0.000 C 
ATOM     11  C   UNL     1       1.975   4.162  20.933  0.00  0.00    +0.000 C 
ATOM     12  C   UNL     1       0.794   3.817  20.014  0.00  0.00    +0.000 C 
ATOM     13  C   UNL     1       1.316   3.289  18.669  0.00  0.00    +0.000 C 
ATOM     14  C   UNL     1       2.178   2.036  18.909  0.00  0.00    +0.000 C 
ATOM     15  C   UNL     1       2.177   4.378  17.995  0.00  0.00    +0.000 C 
ATOM     16  C   UNL     1       2.843   5.240  20.260  0.00  0.00    +0.000 C 
ENDBRANCH   4   7
BRANCH   3  17
ATOM     17  C   UNL     1       7.416   7.043  17.098  0.00  0.00    +0.000 C 
BRANCH  17  18
ATOM     18  C   UNL     1       8.008   8.301  17.716  0.00  0.00    +0.000 C 
ATOM     19  C   UNL     1       8.514   9.378  18.246  0.00  0.00    +0.000 C 
BRANCH  19  20
ATOM     20  C   UNL     1       9.083  10.600  18.839  0.00  0.00    +0.000 C 
BRANCH  20  21
ATOM     21  O   UNL     1      10.232  10.999  18.092  0.00  0.00    +0.000 OA
BRANCH  21  22
ATOM     22  C   UNL     1      10.727  12.255  18.327  0.00  0.00    +0.000 A 
ATOM     23  C   UNL     1      11.328  12.694  19.509  0.00  0.00    +0.000 A 
ATOM     24  C   UNL     1      11.800  14.007  19.612  0.00  0.00    +0.000 A 
ATOM     25  C   UNL     1      11.666  14.875  18.533  0.00  0.00    +0.000 A 
ATOM     26  F   UNL     1      12.122  16.129  18.637  0.00  0.00    +0.000 F 
ATOM     27  C   UNL     1      11.065  14.457  17.355  0.00  0.00    +0.000 A 
ATOM     28  C   UNL     1      10.595  13.145  17.253  0.00  0.00    +0.000 A 
ENDBRANCH  21  22
ENDBRANCH  20  21
ENDBRANCH  19  20
ENDBRANCH  17  18
ENDBRANCH   3  17
TORSDOF 6
ENDMDL
