MODEL 1
REMARK VINA RESULT:      -7.9      0.000      0.000
REMARK  Name = 
REMARK  8 active torsions:
REMARK  status: ('A' for Active; 'I' for Inactive)
REMARK    1  A    between atoms: C_1  and  N_2
REMARK    2  A    between atoms: N_2  and  C_3
REMARK    3  A    between atoms: N_2  and  C_4
REMARK    4  A    between atoms: C_7  and  C_8
REMARK    5  A    between atoms: C_11  and  C_12
REMARK    6  A    between atoms: C_12  and  C_13
REMARK    7  A    between atoms: C_12  and  O_14
REMARK    8  A    between atoms: C_12  and  C_15
REMARK                            x       y       z     vdW  Elec       q    Type
REMARK                         _______ _______ _______ _____ _____    ______ ____
ROOT
ATOM      1  C   UNL     1       3.430   6.373  18.852  0.00  0.00    +0.000 A 
ATOM      2  C   UNL     1       3.218   5.126  19.404  0.00  0.00    +0.000 A 
ATOM      3  S   UNL     1       4.520   4.083  19.014  0.00  0.00    +0.000 S 
ATOM      4  C   UNL     1       5.298   5.374  18.171  0.00  0.00    +0.000 A 
ATOM      5  N   UNL     1       4.618   6.506  18.153  0.00  0.00    +0.000 NA
ENDROOT
BRANCH   1   9
ATOM      6  C   UNL     1       0.700   9.695  19.179  0.00  0.00    +0.000 A 
ATOM      7  C   UNL     1       1.281   9.344  17.953  0.00  0.00    +0.000 A 
ATOM      8  C   UNL     1       2.167   8.262  17.826  0.00  0.00    +0.000 A 
ATOM      9  C   UNL     1       2.485   7.475  18.931  0.00  0.00    +0.000 A 
ATOM     10  C   UNL     1       1.872   7.767  20.151  0.00  0.00    +0.000 A 
ATOM     11  C   UNL     1       1.000   8.857  20.268  0.00  0.00    +0.000 A 
BRANCH   6  13
ATOM     12  C   UNL     1       0.031  11.705  20.443  0.00  0.00    +0.000 C 
ATOM     13  N   UNL     1      -0.145  10.799  19.314  0.00  0.00    +0.000 N 
ATOM     14  C   UNL     1      -1.479  10.729  18.722  0.00  0.00    +0.000 C 
ENDBRANCH   6  13
ENDBRANCH   1   9
BRANCH   4  15
ATOM     15  C   UNL     1       6.657   5.182  17.500  0.00  0.00    +0.000 C 
ATOM     16  C   UNL     1       7.527   6.442  17.642  0.00  0.00    +0.000 C 
BRANCH  15  17
ATOM     17  C   UNL     1       6.515   4.819  16.020  0.00  0.00    +0.000 A 
ATOM     18  C   UNL     1       5.487   3.977  15.560  0.00  0.00    +0.000 A 
ATOM     19  C   UNL     1       5.389   3.626  14.209  0.00  0.00    +0.000 A 
ATOM     20  C   UNL     1       6.317   4.114  13.293  0.00  0.00    +0.000 A 
ATOM     21  C   UNL     1       7.332   4.951  13.734  0.00  0.00    +0.000 A 
ATOM     22  F   UNL     1       8.229   5.419  12.856  0.00  0.00    +0.000 F 
ATOM     23  C   UNL     1       7.437   5.308  15.075  0.00  0.00    +0.000 A 
ENDBRANCH  15  17
BRANCH  15  24
ATOM     24  O   UNL     1       7.362   4.145  18.208  0.00  0.00    +0.000 OA
ATOM     25  H   UNL     1       8.210   4.530  18.488  0.00  0.00    +0.000 HD
ENDBRANCH  15  24
ENDBRANCH   4  15
TORSDOF 5
ENDMDL
MODEL 2
REMARK VINA RESULT:      -7.8      2.151      3.061
REMARK  Name = 
REMARK  8 active torsions:
REMARK  status: ('A' for Active; 'I' for Inactive)
REMARK    1  A    between atoms: C_1  and  N_2
REMARK    2  A    between atoms: N_2  and  C_3
REMARK    3  A    between atoms: N_2  and  C_4
REMARK    4  A    between atoms: C_7  and  C_8
REMARK    5  A    between atoms: C_11  and  C_12
REMARK    6  A    between atoms: C_12  and  C_13
REMARK    7  A    between atoms: C_12  and  O_14
REMARK    8  A    between atoms: C_12  and  C_15
REMARK                            x       y       z     vdW  Elec       q    Type
REMARK                         _______ _______ _______ _____ _____    ______ ____
ROOT
ATOM      1  C   UNL     1       2.139   6.418  19.669  0.00  0.00    +0.000 A 
ATOM      2  C   UNL     1       1.972   5.628  20.788  0.00  0.00    +0.000 A 
ATOM      3  S   UNL     1       2.429   4.015  20.441  0.00  0.00    +0.000 S 
ATOM      4  C   UNL     1       2.858   4.484  18.835  0.00  0.00    +0.000 A 
ATOM      5  N   UNL     1       2.646   5.759  18.561  0.00  0.00    +0.000 NA
ENDROOT
BRANCH   1   9
ATOM      6  C   UNL     1       0.988  10.563  19.362  0.00  0.00    +0.000 A 
ATOM      7  C   UNL     1       0.867   9.858  20.567  0.00  0.00    +0.000 A 
ATOM      8  C   UNL     1       1.243   8.510  20.687  0.00  0.00    +0.000 A 
ATOM      9  C   UNL     1       1.778   7.825  19.598  0.00  0.00    +0.000 A 
ATOM     10  C   UNL     1       1.964   8.522  18.404  0.00  0.00    +0.000 A 
ATOM     11  C   UNL     1       1.574   9.863  18.291  0.00  0.00    +0.000 A 
BRANCH   6  13
ATOM     12  C   UNL     1      -0.667  12.187  18.521  0.00  0.00    +0.000 C 
ATOM     13  N   UNL     1       0.572  11.889  19.230  0.00  0.00    +0.000 N 
ATOM     14  C   UNL     1       1.585  12.941  19.264  0.00  0.00    +0.000 C 
ENDBRANCH   6  13
ENDBRANCH   1   9
BRANCH   4  15
ATOM     15  C   UNL     1       3.421   3.477  17.833  0.00  0.00    +0.000 C 
ATOM     16  C   UNL     1       3.585   2.090  18.476  0.00  0.00    +0.000 C 
BRANCH  15  17
ATOM     17  C   UNL     1       4.761   3.938  17.255  0.00  0.00    +0.000 A 
ATOM     18  C   UNL     1       4.984   4.005  15.868  0.00  0.00    +0.000 A 
ATOM     19  C   UNL     1       6.225   4.396  15.353  0.00  0.00    +0.000 A 
ATOM     20  C   UNL     1       7.264   4.730  16.217  0.00  0.00    +0.000 A 
ATOM     21  C   UNL     1       7.054   4.675  17.588  0.00  0.00    +0.000 A 
ATOM     22  F   UNL     1       8.052   4.992  18.423  0.00  0.00    +0.000 F 
ATOM     23  C   UNL     1       5.823   4.289  18.110  0.00  0.00    +0.000 A 
ENDBRANCH  15  17
BRANCH  15  24
ATOM     24  O   UNL     1       2.451   3.303  16.783  0.00  0.00    +0.000 OA
ATOM     25  H   UNL     1       1.623   3.699  17.105  0.00  0.00    +0.000 HD
ENDBRANCH  15  24
ENDBRANCH   4  15
TORSDOF 5
ENDMDL
MODEL 3
REMARK VINA RESULT:      -7.8      0.321      1.027
REMARK  Name = 
REMARK  8 active torsions:
REMARK  status: ('A' for Active; 'I' for Inactive)
REMARK    1  A    between atoms: C_1  and  N_2
REMARK    2  A    between atoms: N_2  and  C_3
REMARK    3  A    between atoms: N_2  and  C_4
REMARK    4  A    between atoms: C_7  and  C_8
REMARK    5  A    between atoms: C_11  and  C_12
REMARK    6  A    between atoms: C_12  and  C_13
REMARK    7  A    between atoms: C_12  and  O_14
REMARK    8  A    between atoms: C_12  and  C_15
REMARK                            x       y       z     vdW  Elec       q    Type
REMARK                         _______ _______ _______ _____ _____    ______ ____
ROOT
ATOM      1  C   UNL     1       3.308   6.340  18.650  0.00  0.00    +0.000 A 
ATOM      2  C   UNL     1       2.954   5.035  18.927  0.00  0.00    +0.000 A 
ATOM      3  S   UNL     1       4.205   3.972  18.437  0.00  0.00    +0.000 S 
ATOM      4  C   UNL     1       5.150   5.324  17.926  0.00  0.00    +0.000 A 
ATOM      5  N   UNL     1       4.561   6.496  18.082  0.00  0.00    +0.000 NA
ENDROOT
BRANCH   1   9
ATOM      6  C   UNL     1       0.664   9.698  19.228  0.00  0.00    +0.000 A 
ATOM      7  C   UNL     1       1.036   8.868  20.294  0.00  0.00    +0.000 A 
ATOM      8  C   UNL     1       1.901   7.774  20.126  0.00  0.00    +0.000 A 
ATOM      9  C   UNL     1       2.444   7.488  18.876  0.00  0.00    +0.000 A 
ATOM     10  C   UNL     1       2.137   8.336  17.810  0.00  0.00    +0.000 A 
ATOM     11  C   UNL     1       1.263   9.416  17.987  0.00  0.00    +0.000 A 
BRANCH   6  13
ATOM     12  C   UNL     1      -0.604  11.190  20.728  0.00  0.00    +0.000 C 
ATOM     13  N   UNL     1      -0.231  10.758  19.386  0.00  0.00    +0.000 N 
ATOM     14  C   UNL     1      -1.186  11.027  18.314  0.00  0.00    +0.000 C 
ENDBRANCH   6  13
ENDBRANCH   1   9
BRANCH   4  15
ATOM     15  C   UNL     1       6.546   5.142  17.333  0.00  0.00    +0.000 C 
ATOM     16  C   UNL     1       7.412   6.393  17.559  0.00  0.00    +0.000 C 
BRANCH  15  17
ATOM     17  C   UNL     1       6.492   4.816  15.839  0.00  0.00    +0.000 A 
ATOM     18  C   UNL     1       5.498   3.981  15.298  0.00  0.00    +0.000 A 
ATOM     19  C   UNL     1       5.480   3.665  13.936  0.00  0.00    +0.000 A 
ATOM     20  C   UNL     1       6.457   4.181  13.088  0.00  0.00    +0.000 A 
ATOM     21  C   UNL     1       7.439   5.011  13.607  0.00  0.00    +0.000 A 
ATOM     22  F   UNL     1       8.383   5.507  12.796  0.00  0.00    +0.000 F 
ATOM     23  C   UNL     1       7.464   5.334  14.961  0.00  0.00    +0.000 A 
ENDBRANCH  15  17
BRANCH  15  24
ATOM     24  O   UNL     1       7.203   4.084  18.056  0.00  0.00    +0.000 OA
ATOM     25  H   UNL     1       6.597   3.322  18.041  0.00  0.00    +0.000 HD
ENDBRANCH  15  24
ENDBRANCH   4  15
TORSDOF 5
ENDMDL
MODEL 4
REMARK VINA RESULT:      -7.8      2.215      2.961
REMARK  Name = 
REMARK  8 active torsions:
REMARK  status: ('A' for Active; 'I' for Inactive)
REMARK    1  A    between atoms: C_1  and  N_2
REMARK    2  A    between atoms: N_2  and  C_3
REMARK    3  A    between atoms: N_2  and  C_4
REMARK    4  A    between atoms: C_7  and  C_8
REMARK    5  A    between atoms: C_11  and  C_12
REMARK    6  A    between atoms: C_12  and  C_13
REMARK    7  A    between atoms: C_12  and  O_14
REMARK    8  A    between atoms: C_12  and  C_15
REMARK                            x       y       z     vdW  Elec       q    Type
REMARK                         _______ _______ _______ _____ _____    ______ ____
ROOT
ATOM      1  C   UNL     1       2.122   6.687  19.461  0.00  0.00    +0.000 A 
ATOM      2  C   UNL     1       1.875   6.004  20.635  0.00  0.00    +0.000 A 
ATOM      3  S   UNL     1       2.302   4.355  20.455  0.00  0.00    +0.000 S 
ATOM      4  C   UNL     1       2.825   4.669  18.839  0.00  0.00    +0.000 A 
ATOM      5  N   UNL     1       2.665   5.919  18.444  0.00  0.00    +0.000 NA
ENDROOT
BRANCH   1   9
ATOM      6  C   UNL     1       1.257  10.879  18.937  0.00  0.00    +0.000 A 
ATOM      7  C   UNL     1       1.855  10.123  17.919  0.00  0.00    +0.000 A 
ATOM      8  C   UNL     1       2.138   8.755  18.069  0.00  0.00    +0.000 A 
ATOM      9  C   UNL     1       1.807   8.090  19.249  0.00  0.00    +0.000 A 
ATOM     10  C   UNL     1       1.157   8.808  20.253  0.00  0.00    +0.000 A 
ATOM     11  C   UNL     1       0.891  10.174  20.097  0.00  0.00    +0.000 A 
BRANCH   6  13
ATOM     12  C   UNL     1      -0.343  12.719  18.567  0.00  0.00    +0.000 C 
ATOM     13  N   UNL     1       1.017  12.248  18.804  0.00  0.00    +0.000 N 
ATOM     14  C   UNL     1       2.105  13.103  18.336  0.00  0.00    +0.000 C 
ENDBRANCH   6  13
ENDBRANCH   1   9
BRANCH   4  15
ATOM     15  C   UNL     1       3.408   3.564  17.961  0.00  0.00    +0.000 C 
ATOM     16  C   UNL     1       3.590   2.261  18.759  0.00  0.00    +0.000 C 
BRANCH  15  17
ATOM     17  C   UNL     1       4.743   3.976  17.337  0.00  0.00    +0.000 A 
ATOM     18  C   UNL     1       4.932   4.005  15.944  0.00  0.00    +0.000 A 
ATOM     19  C   UNL     1       6.168   4.352  15.388  0.00  0.00    +0.000 A 
ATOM     20  C   UNL     1       7.238   4.679  16.217  0.00  0.00    +0.000 A 
ATOM     21  C   UNL     1       7.062   4.661  17.593  0.00  0.00    +0.000 A 
ATOM     22  F   UNL     1       8.090   4.971  18.394  0.00  0.00    +0.000 F 
ATOM     23  C   UNL     1       5.837   4.319  18.156  0.00  0.00    +0.000 A 
ENDBRANCH  15  17
BRANCH  15  24
ATOM     24  O   UNL     1       2.446   3.255  16.935  0.00  0.00    +0.000 OA
ATOM     25  H   UNL     1       1.780   3.964  16.960  0.00  0.00    +0.000 HD
ENDBRANCH  15  24
ENDBRANCH   4  15
TORSDOF 5
ENDMDL
MODEL 5
REMARK VINA RESULT:      -7.7      1.860      2.804
REMARK  Name = 
REMARK  8 active torsions:
REMARK  status: ('A' for Active; 'I' for Inactive)
REMARK    1  A    between atoms: C_1  and  N_2
REMARK    2  A    between atoms: N_2  and  C_3
REMARK    3  A    between atoms: N_2  and  C_4
REMARK    4  A    between atoms: C_7  and  C_8
REMARK    5  A    between atoms: C_11  and  C_12
REMARK    6  A    between atoms: C_12  and  C_13
REMARK    7  A    between atoms: C_12  and  O_14
REMARK    8  A    between atoms: C_12  and  C_15
REMARK                            x       y       z     vdW  Elec       q    Type
REMARK                         _______ _______ _______ _____ _____    ______ ____
ROOT
ATOM      1  C   UNL     1       2.167   6.403  19.624  0.00  0.00    +0.000 A 
ATOM      2  C   UNL     1       2.006   5.630  20.755  0.00  0.00    +0.000 A 
ATOM      3  S   UNL     1       2.457   4.011  20.428  0.00  0.00    +0.000 S 
ATOM      4  C   UNL     1       2.875   4.457  18.813  0.00  0.00    +0.000 A 
ATOM      5  N   UNL     1       2.664   5.727  18.522  0.00  0.00    +0.000 NA
ENDROOT
BRANCH   1   9
ATOM      6  C   UNL     1       1.027  10.547  19.262  0.00  0.00    +0.000 A 
ATOM      7  C   UNL     1       0.874   9.849  20.468  0.00  0.00    +0.000 A 
ATOM      8  C   UNL     1       1.246   8.502  20.606  0.00  0.00    +0.000 A 
ATOM      9  C   UNL     1       1.809   7.810  19.536  0.00  0.00    +0.000 A 
ATOM     10  C   UNL     1       2.027   8.501  18.342  0.00  0.00    +0.000 A 
ATOM     11  C   UNL     1       1.640   9.841  18.212  0.00  0.00    +0.000 A 
BRANCH   6  13
ATOM     12  C   UNL     1       1.135  12.893  20.015  0.00  0.00    +0.000 C 
ATOM     13  N   UNL     1       0.616  11.873  19.112  0.00  0.00    +0.000 N 
ATOM     14  C   UNL     1      -0.683  12.132  18.495  0.00  0.00    +0.000 C 
ENDBRANCH   6  13
ENDBRANCH   1   9
BRANCH   4  15
ATOM     15  C   UNL     1       3.428   3.434  17.822  0.00  0.00    +0.000 C 
ATOM     16  C   UNL     1       3.571   2.050  18.477  0.00  0.00    +0.000 C 
BRANCH  15  17
ATOM     17  C   UNL     1       4.777   3.872  17.245  0.00  0.00    +0.000 A 
ATOM     18  C   UNL     1       5.838   4.280  18.072  0.00  0.00    +0.000 A 
ATOM     19  C   UNL     1       7.054   4.710  17.530  0.00  0.00    +0.000 A 
ATOM     20  C   UNL     1       7.231   4.736  16.149  0.00  0.00    +0.000 A 
ATOM     21  C   UNL     1       6.194   4.328  15.322  0.00  0.00    +0.000 A 
ATOM     22  F   UNL     1       6.358   4.355  13.993  0.00  0.00    +0.000 F 
ATOM     23  C   UNL     1       4.981   3.897  15.852  0.00  0.00    +0.000 A 
ENDBRANCH  15  17
BRANCH  15  24
ATOM     24  O   UNL     1       2.461   3.264  16.769  0.00  0.00    +0.000 OA
ATOM     25  H   UNL     1       1.591   3.456  17.161  0.00  0.00    +0.000 HD
ENDBRANCH  15  24
ENDBRANCH   4  15
TORSDOF 5
ENDMDL
MODEL 6
REMARK VINA RESULT:      -7.7      1.980      2.868
REMARK  Name = 
REMARK  8 active torsions:
REMARK  status: ('A' for Active; 'I' for Inactive)
REMARK    1  A    between atoms: C_1  and  N_2
REMARK    2  A    between atoms: N_2  and  C_3
REMARK    3  A    between atoms: N_2  and  C_4
REMARK    4  A    between atoms: C_7  and  C_8
REMARK    5  A    between atoms: C_11  and  C_12
REMARK    6  A    between atoms: C_12  and  C_13
REMARK    7  A    between atoms: C_12  and  O_14
REMARK    8  A    between atoms: C_12  and  C_15
REMARK                            x       y       z     vdW  Elec       q    Type
REMARK                         _______ _______ _______ _____ _____    ______ ____
ROOT
ATOM      1  C   UNL     1       2.117   6.635  19.519  0.00  0.00    +0.000 A 
ATOM      2  C   UNL     1       1.855   5.964  20.696  0.00  0.00    +0.000 A 
ATOM      3  S   UNL     1       2.276   4.312  20.535  0.00  0.00    +0.000 S 
ATOM      4  C   UNL     1       2.816   4.609  18.922  0.00  0.00    +0.000 A 
ATOM      5  N   UNL     1       2.667   5.856  18.514  0.00  0.00    +0.000 NA
ENDROOT
BRANCH   1   9
ATOM      6  C   UNL     1       1.274  10.826  18.950  0.00  0.00    +0.000 A 
ATOM      7  C   UNL     1       1.909  10.067  17.958  0.00  0.00    +0.000 A 
ATOM      8  C   UNL     1       2.186   8.700  18.123  0.00  0.00    +0.000 A 
ATOM      9  C   UNL     1       1.811   8.038  19.290  0.00  0.00    +0.000 A 
ATOM     10  C   UNL     1       1.123   8.758  20.268  0.00  0.00    +0.000 A 
ATOM     11  C   UNL     1       0.863  10.125  20.098  0.00  0.00    +0.000 A 
BRANCH   6  13
ATOM     12  C   UNL     1      -0.326  12.674  18.621  0.00  0.00    +0.000 C 
ATOM     13  N   UNL     1       1.039  12.195  18.805  0.00  0.00    +0.000 N 
ATOM     14  C   UNL     1       2.112  13.032  18.274  0.00  0.00    +0.000 C 
ENDBRANCH   6  13
ENDBRANCH   1   9
BRANCH   4  15
ATOM     15  C   UNL     1       3.403   3.492  18.060  0.00  0.00    +0.000 C 
ATOM     16  C   UNL     1       3.523   2.182  18.856  0.00  0.00    +0.000 C 
BRANCH  15  17
ATOM     17  C   UNL     1       4.770   3.874  17.487  0.00  0.00    +0.000 A 
ATOM     18  C   UNL     1       5.803   4.369  18.304  0.00  0.00    +0.000 A 
ATOM     19  C   UNL     1       7.037   4.745  17.762  0.00  0.00    +0.000 A 
ATOM     20  C   UNL     1       7.261   4.630  16.393  0.00  0.00    +0.000 A 
ATOM     21  C   UNL     1       6.253   4.136  15.578  0.00  0.00    +0.000 A 
ATOM     22  F   UNL     1       6.463   4.027  14.259  0.00  0.00    +0.000 F 
ATOM     23  C   UNL     1       5.023   3.757  16.107  0.00  0.00    +0.000 A 
ENDBRANCH  15  17
BRANCH  15  24
ATOM     24  O   UNL     1       2.472   3.214  16.997  0.00  0.00    +0.000 OA
ATOM     25  H   UNL     1       2.380   2.246  16.958  0.00  0.00    +0.000 HD
ENDBRANCH  15  24
ENDBRANCH   4  15
TORSDOF 5
ENDMDL
MODEL 7
REMARK VINA RESULT:      -7.5      4.261      8.753
REMARK  Name = 
REMARK  8 active torsions:
REMARK  status: ('A' for Active; 'I' for Inactive)
REMARK    1  A    between atoms: C_1  and  N_2
REMARK    2  A    between atoms: N_2  and  C_3
REMARK    3  A    between atoms: N_2  and  C_4
REMARK    4  A    between atoms: C_7  and  C_8
REMARK    5  A    between atoms: C_11  and  C_12
REMARK    6  A    between atoms: C_12  and  C_13
REMARK    7  A    between atoms: C_12  and  O_14
REMARK    8  A    between atoms: C_12  and  C_15
REMARK                            x       y       z     vdW  Elec       q    Type
REMARK                         _______ _______ _______ _____ _____    ______ ____
ROOT
ATOM      1  C   UNL     1       2.214   7.780  18.926  0.00  0.00    +0.000 A 
ATOM      2  C   UNL     1       1.818   7.508  20.219  0.00  0.00    +0.000 A 
ATOM      3  S   UNL     1       0.888   8.808  20.833  0.00  0.00    +0.000 S 
ATOM      4  C   UNL     1       1.042   9.629  19.322  0.00  0.00    +0.000 A 
ATOM      5  N   UNL     1       1.766   8.989  18.421  0.00  0.00    +0.000 NA
ENDROOT
BRANCH   1   9
ATOM      6  C   UNL     1       4.872   5.270  16.638  0.00  0.00    +0.000 A 
ATOM      7  C   UNL     1       3.845   4.725  17.421  0.00  0.00    +0.000 A 
ATOM      8  C   UNL     1       2.966   5.527  18.167  0.00  0.00    +0.000 A 
ATOM      9  C   UNL     1       3.075   6.916  18.134  0.00  0.00    +0.000 A 
ATOM     10  C   UNL     1       4.051   7.484  17.314  0.00  0.00    +0.000 A 
ATOM     11  C   UNL     1       4.931   6.674  16.584  0.00  0.00    +0.000 A 
BRANCH   6  13
ATOM     12  C   UNL     1       7.153   4.364  16.393  0.00  0.00    +0.000 C 
ATOM     13  N   UNL     1       5.774   4.471  15.931  0.00  0.00    +0.000 N 
ATOM     14  C   UNL     1       5.531   4.239  14.510  0.00  0.00    +0.000 C 
ENDBRANCH   6  13
ENDBRANCH   1   9
BRANCH   4  15
ATOM     15  C   UNL     1       0.390  10.990  19.084  0.00  0.00    +0.000 C 
ATOM     16  C   UNL     1       0.398  11.839  20.367  0.00  0.00    +0.000 C 
BRANCH  15  17
ATOM     17  C   UNL     1      -1.043  10.853  18.567  0.00  0.00    +0.000 A 
ATOM     18  C   UNL     1      -1.381   9.934  17.556  0.00  0.00    +0.000 A 
ATOM     19  C   UNL     1      -2.689   9.843  17.069  0.00  0.00    +0.000 A 
ATOM     20  C   UNL     1      -3.685  10.668  17.587  0.00  0.00    +0.000 A 
ATOM     21  C   UNL     1      -3.366  11.573  18.589  0.00  0.00    +0.000 A 
ATOM     22  F   UNL     1      -4.320  12.371  19.086  0.00  0.00    +0.000 F 
ATOM     23  C   UNL     1      -2.068  11.671  19.081  0.00  0.00    +0.000 A 
ENDBRANCH  15  17
BRANCH  15  24
ATOM     24  O   UNL     1       1.201  11.713  18.138  0.00  0.00    +0.000 OA
ATOM     25  H   UNL     1       2.027  11.209  18.041  0.00  0.00    +0.000 HD
ENDBRANCH  15  24
ENDBRANCH   4  15
TORSDOF 5
ENDMDL
MODEL 8
REMARK VINA RESULT:      -7.5      3.753      8.525
REMARK  Name = 
REMARK  8 active torsions:
REMARK  status: ('A' for Active; 'I' for Inactive)
REMARK    1  A    between atoms: C_1  and  N_2
REMARK    2  A    between atoms: N_2  and  C_3
REMARK    3  A    between atoms: N_2  and  C_4
REMARK    4  A    between atoms: C_7  and  C_8
REMARK    5  A    between atoms: C_11  and  C_12
REMARK    6  A    between atoms: C_12  and  C_13
REMARK    7  A    between atoms: C_12  and  O_14
REMARK    8  A    between atoms: C_12  and  C_15
REMARK                            x       y       z     vdW  Elec       q    Type
REMARK                         _______ _______ _______ _____ _____    ______ ____
ROOT
ATOM      1  C   UNL     1       2.176   7.823  18.967  0.00  0.00    +0.000 A 
ATOM      2  C   UNL     1       1.721   7.534  20.238  0.00  0.00    +0.000 A 
ATOM      3  S   UNL     1       0.804   8.846  20.844  0.00  0.00    +0.000 S 
ATOM      4  C   UNL     1       1.040   9.695  19.358  0.00  0.00    +0.000 A 
ATOM      5  N   UNL     1       1.781   9.055  18.473  0.00  0.00    +0.000 NA
ENDROOT
BRANCH   1   9
ATOM      6  C   UNL     1       4.854   5.298  16.719  0.00  0.00    +0.000 A 
ATOM      7  C   UNL     1       3.857   4.757  17.541  0.00  0.00    +0.000 A 
ATOM      8  C   UNL     1       2.971   5.563  18.275  0.00  0.00    +0.000 A 
ATOM      9  C   UNL     1       3.044   6.952  18.191  0.00  0.00    +0.000 A 
ATOM     10  C   UNL     1       3.990   7.514  17.332  0.00  0.00    +0.000 A 
ATOM     11  C   UNL     1       4.876   6.700  16.614  0.00  0.00    +0.000 A 
BRANCH   6  13
ATOM     12  C   UNL     1       7.139   4.395  16.498  0.00  0.00    +0.000 C 
ATOM     13  N   UNL     1       5.763   4.497  16.025  0.00  0.00    +0.000 N 
ATOM     14  C   UNL     1       5.532   4.256  14.603  0.00  0.00    +0.000 C 
ENDBRANCH   6  13
ENDBRANCH   1   9
BRANCH   4  15
ATOM     15  C   UNL     1       0.435  11.079  19.127  0.00  0.00    +0.000 C 
ATOM     16  C   UNL     1       0.451  11.913  20.418  0.00  0.00    +0.000 C 
BRANCH  15  17
ATOM     17  C   UNL     1      -0.994  10.993  18.587  0.00  0.00    +0.000 A 
ATOM     18  C   UNL     1      -2.045  11.739  19.151  0.00  0.00    +0.000 A 
ATOM     19  C   UNL     1      -3.353  11.625  18.669  0.00  0.00    +0.000 A 
ATOM     20  C   UNL     1      -3.634  10.764  17.611  0.00  0.00    +0.000 A 
ATOM     21  C   UNL     1      -2.604  10.029  17.041  0.00  0.00    +0.000 A 
ATOM     22  F   UNL     1      -2.871   9.197  16.025  0.00  0.00    +0.000 F 
ATOM     23  C   UNL     1      -1.299  10.136  17.512  0.00  0.00    +0.000 A 
ENDBRANCH  15  17
BRANCH  15  24
ATOM     24  O   UNL     1       1.282  11.786  18.201  0.00  0.00    +0.000 OA
ATOM     25  H   UNL     1       0.690  12.234  17.572  0.00  0.00    +0.000 HD
ENDBRANCH  15  24
ENDBRANCH   4  15
TORSDOF 5
ENDMDL
MODEL 9
REMARK VINA RESULT:      -7.5      3.677      5.301
REMARK  Name = 
REMARK  8 active torsions:
REMARK  status: ('A' for Active; 'I' for Inactive)
REMARK    1  A    between atoms: C_1  and  N_2
REMARK    2  A    between atoms: N_2  and  C_3
REMARK    3  A    between atoms: N_2  and  C_4
REMARK    4  A    between atoms: C_7  and  C_8
REMARK    5  A    between atoms: C_11  and  C_12
REMARK    6  A    between atoms: C_12  and  C_13
REMARK    7  A    between atoms: C_12  and  O_14
REMARK    8  A    between atoms: C_12  and  C_15
REMARK                            x       y       z     vdW  Elec       q    Type
REMARK                         _______ _______ _______ _____ _____    ______ ____
ROOT
ATOM      1  C   UNL     1       1.652   8.707  19.299  0.00  0.00    +0.000 A 
ATOM      2  C   UNL     1       1.995   9.046  18.006  0.00  0.00    +0.000 A 
ATOM      3  S   UNL     1       2.992   7.831  17.325  0.00  0.00    +0.000 S 
ATOM      4  C   UNL     1       2.868   6.915  18.785  0.00  0.00    +0.000 A 
ATOM      5  N   UNL     1       2.152   7.491  19.734  0.00  0.00    +0.000 NA
ENDROOT
BRANCH   1   9
ATOM      6  C   UNL     1      -0.556  11.237  22.004  0.00  0.00    +0.000 A 
ATOM      7  C   UNL     1      -0.537  11.482  20.625  0.00  0.00    +0.000 A 
ATOM      8  C   UNL     1       0.170  10.665  19.728  0.00  0.00    +0.000 A 
ATOM      9  C   UNL     1       0.872   9.552  20.187  0.00  0.00    +0.000 A 
ATOM     10  C   UNL     1       0.819   9.253  21.550  0.00  0.00    +0.000 A 
ATOM     11  C   UNL     1       0.120  10.082  22.437  0.00  0.00    +0.000 A 
BRANCH   6  13
ATOM     12  C   UNL     1      -2.570  11.730  23.340  0.00  0.00    +0.000 C 
ATOM     13  N   UNL     1      -1.222  12.075  22.901  0.00  0.00    +0.000 N 
ATOM     14  C   UNL     1      -0.855  13.488  22.936  0.00  0.00    +0.000 C 
ENDBRANCH   6  13
ENDBRANCH   1   9
BRANCH   4  15
ATOM     15  C   UNL     1       3.555   5.559  18.935  0.00  0.00    +0.000 C 
ATOM     16  C   UNL     1       4.357   5.202  17.673  0.00  0.00    +0.000 C 
BRANCH  15  17
ATOM     17  C   UNL     1       2.552   4.444  19.241  0.00  0.00    +0.000 A 
ATOM     18  C   UNL     1       1.811   3.815  18.223  0.00  0.00    +0.000 A 
ATOM     19  C   UNL     1       0.874   2.820  18.521  0.00  0.00    +0.000 A 
ATOM     20  C   UNL     1       0.662   2.434  19.842  0.00  0.00    +0.000 A 
ATOM     21  C   UNL     1       1.392   3.042  20.853  0.00  0.00    +0.000 A 
ATOM     22  F   UNL     1       1.188   2.676  22.126  0.00  0.00    +0.000 F 
ATOM     23  C   UNL     1       2.328   4.031  20.568  0.00  0.00    +0.000 A 
ENDBRANCH  15  17
BRANCH  15  24
ATOM     24  O   UNL     1       4.527   5.667  19.992  0.00  0.00    +0.000 OA
ATOM     25  H   UNL     1       4.523   6.597  20.277  0.00  0.00    +0.000 HD
ENDBRANCH  15  24
ENDBRANCH   4  15
TORSDOF 5
ENDMDL
