MODEL 1
REMARK VINA RESULT:      -7.9      0.000      0.000
REMARK  Name = 
REMARK  3 active torsions:
REMARK  status: ('A' for Active; 'I' for Inactive)
REMARK    1  A    between atoms: C_2  and  C_3
REMARK    2  A    between atoms: C_6  and  C_7
REMARK    3  A    between atoms: C_12  and  C_13
REMARK                            x       y       z     vdW  Elec       q    Type
REMARK                         _______ _______ _______ _____ _____    ______ ____
ROOT
ATOM      1  C   UNL     1       3.924   3.829  18.123  0.00  0.00    +0.000 A 
ATOM      2  C   UNL     1       2.829   3.701  17.255  0.00  0.00    +0.000 A 
ATOM      3  C   UNL     1       1.564   3.361  17.740  0.00  0.00    +0.000 A 
ATOM      4  C   UNL     1       1.380   3.146  19.102  0.00  0.00    +0.000 A 
ATOM      5  F   UNL     1       0.151   2.838  19.533  0.00  0.00    +0.000 F 
ATOM      6  C   UNL     1       2.441   3.254  19.995  0.00  0.00    +0.000 A 
ATOM      7  C   UNL     1       3.717   3.589  19.491  0.00  0.00    +0.000 A 
ENDROOT
BRANCH   1  11
ATOM      8  C   UNL     1       6.651   4.650  15.959  0.00  0.00    +0.000 A 
ATOM      9  C   UNL     1       7.342   4.841  17.135  0.00  0.00    +0.000 A 
ATOM     10  C   UNL     1       6.429   4.584  18.183  0.00  0.00    +0.000 A 
ATOM     11  C   UNL     1       5.227   4.238  17.595  0.00  0.00    +0.000 A 
ATOM     12  O   UNL     1       5.360   4.286  16.233  0.00  0.00    +0.000 OA
BRANCH   8  14
ATOM     13  O   UNL     1       7.902   5.561  14.169  0.00  0.00    +0.000 OA
ATOM     14  C   UNL     1       7.065   4.763  14.586  0.00  0.00    +0.000 C 
ENDBRANCH   8  14
ENDBRANCH   1  11
BRANCH   6  15
ATOM     15  C   UNL     1       2.239   3.028  21.464  0.00  0.00    +0.000 C 
ATOM     16  F   UNL     1       3.064   2.105  22.028  0.00  0.00    +0.000 F 
ATOM     17  F   UNL     1       2.413   4.170  22.187  0.00  0.00    +0.000 F 
ATOM     18  F   UNL     1       0.972   2.607  21.745  0.00  0.00    +0.000 F 
ENDBRANCH   6  15
TORSDOF 3
ENDMDL
MODEL 2
REMARK VINA RESULT:      -7.7      3.962      6.254
REMARK  Name = 
REMARK  3 active torsions:
REMARK  status: ('A' for Active; 'I' for Inactive)
REMARK    1  A    between atoms: C_2  and  C_3
REMARK    2  A    between atoms: C_6  and  C_7
REMARK    3  A    between atoms: C_12  and  C_13
REMARK                            x       y       z     vdW  Elec       q    Type
REMARK                         _______ _______ _______ _____ _____    ______ ____
ROOT
ATOM      1  C   UNL     1       4.117   4.165  17.758  0.00  0.00    +0.000 A 
ATOM      2  C   UNL     1       4.248   4.045  16.366  0.00  0.00    +0.000 A 
ATOM      3  C   UNL     1       5.436   4.399  15.723  0.00  0.00    +0.000 A 
ATOM      4  C   UNL     1       6.509   4.877  16.467  0.00  0.00    +0.000 A 
ATOM      5  F   UNL     1       7.638   5.193  15.819  0.00  0.00    +0.000 F 
ATOM      6  C   UNL     1       6.418   5.021  17.848  0.00  0.00    +0.000 A 
ATOM      7  C   UNL     1       5.209   4.668  18.485  0.00  0.00    +0.000 A 
ENDROOT
BRANCH   1  11
ATOM      8  C   UNL     1       1.701   3.062  20.152  0.00  0.00    +0.000 A 
ATOM      9  C   UNL     1       0.843   3.056  19.074  0.00  0.00    +0.000 A 
ATOM     10  C   UNL     1       1.596   3.495  17.961  0.00  0.00    +0.000 A 
ATOM     11  C   UNL     1       2.880   3.737  18.412  0.00  0.00    +0.000 A 
ATOM     12  O   UNL     1       2.943   3.479  19.755  0.00  0.00    +0.000 OA
BRANCH   8  14
ATOM     13  O   UNL     1       2.388   2.431  22.327  0.00  0.00    +0.000 OA
ATOM     14  C   UNL     1       1.493   2.709  21.531  0.00  0.00    +0.000 C 
ENDBRANCH   8  14
ENDBRANCH   1  11
BRANCH   6  15
ATOM     15  C   UNL     1       7.579   5.531  18.649  0.00  0.00    +0.000 C 
ATOM     16  F   UNL     1       8.069   6.738  18.258  0.00  0.00    +0.000 F 
ATOM     17  F   UNL     1       7.270   5.668  19.969  0.00  0.00    +0.000 F 
ATOM     18  F   UNL     1       8.641   4.675  18.609  0.00  0.00    +0.000 F 
ENDBRANCH   6  15
TORSDOF 3
ENDMDL
MODEL 3
REMARK VINA RESULT:      -7.7      1.388      2.027
REMARK  Name = 
REMARK  3 active torsions:
REMARK  status: ('A' for Active; 'I' for Inactive)
REMARK    1  A    between atoms: C_2  and  C_3
REMARK    2  A    between atoms: C_6  and  C_7
REMARK    3  A    between atoms: C_12  and  C_13
REMARK                            x       y       z     vdW  Elec       q    Type
REMARK                         _______ _______ _______ _____ _____    ______ ____
ROOT
ATOM      1  C   UNL     1       4.158   4.870  18.482  0.00  0.00    +0.000 A 
ATOM      2  C   UNL     1       3.682   6.091  18.985  0.00  0.00    +0.000 A 
ATOM      3  C   UNL     1       2.498   6.151  19.723  0.00  0.00    +0.000 A 
ATOM      4  C   UNL     1       1.777   4.988  19.970  0.00  0.00    +0.000 A 
ATOM      5  F   UNL     1       0.655   5.081  20.694  0.00  0.00    +0.000 F 
ATOM      6  C   UNL     1       2.209   3.758  19.482  0.00  0.00    +0.000 A 
ATOM      7  C   UNL     1       3.402   3.712  18.729  0.00  0.00    +0.000 A 
ENDROOT
BRANCH   1  11
ATOM      8  C   UNL     1       6.650   4.819  15.918  0.00  0.00    +0.000 A 
ATOM      9  C   UNL     1       7.528   4.674  16.970  0.00  0.00    +0.000 A 
ATOM     10  C   UNL     1       6.747   4.686  18.148  0.00  0.00    +0.000 A 
ATOM     11  C   UNL     1       5.428   4.827  17.757  0.00  0.00    +0.000 A 
ATOM     12  O   UNL     1       5.370   4.917  16.392  0.00  0.00    +0.000 OA
BRANCH   8  14
ATOM     13  O   UNL     1       7.798   5.468  13.953  0.00  0.00    +0.000 OA
ATOM     14  C   UNL     1       6.873   4.870  14.498  0.00  0.00    +0.000 C 
ENDBRANCH   8  14
ENDBRANCH   1  11
BRANCH   6  15
ATOM     15  C   UNL     1       1.432   2.505  19.755  0.00  0.00    +0.000 C 
ATOM     16  F   UNL     1       0.155   2.499  19.285  0.00  0.00    +0.000 F 
ATOM     17  F   UNL     1       2.029   1.405  19.215  0.00  0.00    +0.000 F 
ATOM     18  F   UNL     1       1.332   2.247  21.091  0.00  0.00    +0.000 F 
ENDBRANCH   6  15
TORSDOF 3
ENDMDL
MODEL 4
REMARK VINA RESULT:      -7.6      4.080      6.313
REMARK  Name = 
REMARK  3 active torsions:
REMARK  status: ('A' for Active; 'I' for Inactive)
REMARK    1  A    between atoms: C_2  and  C_3
REMARK    2  A    between atoms: C_6  and  C_7
REMARK    3  A    between atoms: C_12  and  C_13
REMARK                            x       y       z     vdW  Elec       q    Type
REMARK                         _______ _______ _______ _____ _____    ______ ____
ROOT
ATOM      1  C   UNL     1       4.081   5.190  18.195  0.00  0.00    +0.000 A 
ATOM      2  C   UNL     1       3.941   6.099  17.135  0.00  0.00    +0.000 A 
ATOM      3  C   UNL     1       5.018   6.883  16.714  0.00  0.00    +0.000 A 
ATOM      4  C   UNL     1       6.249   6.766  17.348  0.00  0.00    +0.000 A 
ATOM      5  F   UNL     1       7.262   7.521  16.908  0.00  0.00    +0.000 F 
ATOM      6  C   UNL     1       6.429   5.883  18.409  0.00  0.00    +0.000 A 
ATOM      7  C   UNL     1       5.331   5.103  18.832  0.00  0.00    +0.000 A 
ENDROOT
BRANCH   1  11
ATOM      8  C   UNL     1       1.736   3.225  20.046  0.00  0.00    +0.000 A 
ATOM      9  C   UNL     1       1.171   2.993  18.811  0.00  0.00    +0.000 A 
ATOM     10  C   UNL     1       1.944   3.714  17.874  0.00  0.00    +0.000 A 
ATOM     11  C   UNL     1       2.953   4.343  18.581  0.00  0.00    +0.000 A 
ATOM     12  O   UNL     1       2.820   4.050  19.912  0.00  0.00    +0.000 OA
BRANCH   8  14
ATOM     13  O   UNL     1       2.088   2.852  22.356  0.00  0.00    +0.000 OA
ATOM     14  C   UNL     1       1.380   2.750  21.356  0.00  0.00    +0.000 C 
ENDBRANCH   8  14
ENDBRANCH   1  11
BRANCH   6  15
ATOM     15  C   UNL     1       7.759   5.754  19.088  0.00  0.00    +0.000 C 
ATOM     16  F   UNL     1       8.573   6.840  18.984  0.00  0.00    +0.000 F 
ATOM     17  F   UNL     1       7.632   5.514  20.424  0.00  0.00    +0.000 F 
ATOM     18  F   UNL     1       8.483   4.707  18.597  0.00  0.00    +0.000 F 
ENDBRANCH   6  15
TORSDOF 3
ENDMDL
MODEL 5
REMARK VINA RESULT:      -7.6      1.563      1.901
REMARK  Name = 
REMARK  3 active torsions:
REMARK  status: ('A' for Active; 'I' for Inactive)
REMARK    1  A    between atoms: C_2  and  C_3
REMARK    2  A    between atoms: C_6  and  C_7
REMARK    3  A    between atoms: C_12  and  C_13
REMARK                            x       y       z     vdW  Elec       q    Type
REMARK                         _______ _______ _______ _____ _____    ______ ____
ROOT
ATOM      1  C   UNL     1       4.099   3.782  17.914  0.00  0.00    +0.000 A 
ATOM      2  C   UNL     1       3.512   2.712  17.222  0.00  0.00    +0.000 A 
ATOM      3  C   UNL     1       2.348   2.103  17.695  0.00  0.00    +0.000 A 
ATOM      4  C   UNL     1       1.756   2.558  18.867  0.00  0.00    +0.000 A 
ATOM      5  F   UNL     1       0.632   1.961  19.282  0.00  0.00    +0.000 F 
ATOM      6  C   UNL     1       2.310   3.611  19.589  0.00  0.00    +0.000 A 
ATOM      7  C   UNL     1       3.492   4.213  19.106  0.00  0.00    +0.000 A 
ENDROOT
BRANCH   1  11
ATOM      8  C   UNL     1       6.847   6.001  17.354  0.00  0.00    +0.000 A 
ATOM      9  C   UNL     1       7.066   5.222  16.239  0.00  0.00    +0.000 A 
ATOM     10  C   UNL     1       6.073   4.216  16.251  0.00  0.00    +0.000 A 
ATOM     11  C   UNL     1       5.289   4.437  17.368  0.00  0.00    +0.000 A 
ATOM     12  O   UNL     1       5.768   5.525  18.048  0.00  0.00    +0.000 OA
BRANCH   8  14
ATOM     13  O   UNL     1       7.874   8.124  17.162  0.00  0.00    +0.000 OA
ATOM     14  C   UNL     1       7.537   7.162  17.849  0.00  0.00    +0.000 C 
ENDBRANCH   8  14
ENDBRANCH   1  11
BRANCH   6  15
ATOM     15  C   UNL     1       1.666   4.105  20.850  0.00  0.00    +0.000 C 
ATOM     16  F   UNL     1       1.456   3.159  21.805  0.00  0.00    +0.000 F 
ATOM     17  F   UNL     1       2.402   5.081  21.453  0.00  0.00    +0.000 F 
ATOM     18  F   UNL     1       0.444   4.663  20.613  0.00  0.00    +0.000 F 
ENDBRANCH   6  15
TORSDOF 3
ENDMDL
MODEL 6
REMARK VINA RESULT:      -7.6      1.079      1.488
REMARK  Name = 
REMARK  3 active torsions:
REMARK  status: ('A' for Active; 'I' for Inactive)
REMARK    1  A    between atoms: C_2  and  C_3
REMARK    2  A    between atoms: C_6  and  C_7
REMARK    3  A    between atoms: C_12  and  C_13
REMARK                            x       y       z     vdW  Elec       q    Type
REMARK                         _______ _______ _______ _____ _____    ______ ____
ROOT
ATOM      1  C   UNL     1       4.193   3.825  17.967  0.00  0.00    +0.000 A 
ATOM      2  C   UNL     1       3.752   2.619  17.402  0.00  0.00    +0.000 A 
ATOM      3  C   UNL     1       2.647   1.943  17.924  0.00  0.00    +0.000 A 
ATOM      4  C   UNL     1       1.969   2.467  19.019  0.00  0.00    +0.000 A 
ATOM      5  F   UNL     1       0.906   1.800  19.483  0.00  0.00    +0.000 F 
ATOM      6  C   UNL     1       2.379   3.655  19.615  0.00  0.00    +0.000 A 
ATOM      7  C   UNL     1       3.503   4.325  19.084  0.00  0.00    +0.000 A 
ENDROOT
BRANCH   1  11
ATOM      8  C   UNL     1       6.671   5.046  15.696  0.00  0.00    +0.000 A 
ATOM      9  C   UNL     1       7.132   5.740  16.794  0.00  0.00    +0.000 A 
ATOM     10  C   UNL     1       6.263   5.423  17.863  0.00  0.00    +0.000 A 
ATOM     11  C   UNL     1       5.320   4.541  17.368  0.00  0.00    +0.000 A 
ATOM     12  O   UNL     1       5.566   4.316  16.040  0.00  0.00    +0.000 OA
BRANCH   8  14
ATOM     13  O   UNL     1       8.095   5.639  13.902  0.00  0.00    +0.000 OA
ATOM     14  C   UNL     1       7.158   4.978  14.345  0.00  0.00    +0.000 C 
ENDBRANCH   8  14
ENDBRANCH   1  11
BRANCH   6  15
ATOM     15  C   UNL     1       1.643   4.222  20.792  0.00  0.00    +0.000 C 
ATOM     16  F   UNL     1       0.335   4.525  20.568  0.00  0.00    +0.000 F 
ATOM     17  F   UNL     1       1.647   3.372  21.858  0.00  0.00    +0.000 F 
ATOM     18  F   UNL     1       2.214   5.375  21.244  0.00  0.00    +0.000 F 
ENDBRANCH   6  15
TORSDOF 3
ENDMDL
MODEL 7
REMARK VINA RESULT:      -7.6      1.262      1.795
REMARK  Name = 
REMARK  3 active torsions:
REMARK  status: ('A' for Active; 'I' for Inactive)
REMARK    1  A    between atoms: C_2  and  C_3
REMARK    2  A    between atoms: C_6  and  C_7
REMARK    3  A    between atoms: C_12  and  C_13
REMARK                            x       y       z     vdW  Elec       q    Type
REMARK                         _______ _______ _______ _____ _____    ______ ____
ROOT
ATOM      1  C   UNL     1       3.770   4.039  18.062  0.00  0.00    +0.000 A 
ATOM      2  C   UNL     1       2.637   3.894  17.246  0.00  0.00    +0.000 A 
ATOM      3  C   UNL     1       1.415   3.484  17.782  0.00  0.00    +0.000 A 
ATOM      4  C   UNL     1       1.310   3.216  19.142  0.00  0.00    +0.000 A 
ATOM      5  F   UNL     1       0.119   2.841  19.623  0.00  0.00    +0.000 F 
ATOM      6  C   UNL     1       2.411   3.339  19.984  0.00  0.00    +0.000 A 
ATOM      7  C   UNL     1       3.644   3.744  19.430  0.00  0.00    +0.000 A 
ENDROOT
BRANCH   1  11
ATOM      8  C   UNL     1       6.752   5.894  17.385  0.00  0.00    +0.000 A 
ATOM      9  C   UNL     1       6.880   5.029  16.320  0.00  0.00    +0.000 A 
ATOM     10  C   UNL     1       5.779   4.144  16.388  0.00  0.00    +0.000 A 
ATOM     11  C   UNL     1       5.026   4.520  17.485  0.00  0.00    +0.000 A 
ATOM     12  O   UNL     1       5.626   5.587  18.100  0.00  0.00    +0.000 OA
BRANCH   8  14
ATOM     13  O   UNL     1       7.814   7.993  17.135  0.00  0.00    +0.000 OA
ATOM     14  C   UNL     1       7.568   6.998  17.813  0.00  0.00    +0.000 C 
ENDBRANCH   8  14
ENDBRANCH   1  11
BRANCH   6  15
ATOM     15  C   UNL     1       2.294   3.055  21.452  0.00  0.00    +0.000 C 
ATOM     16  F   UNL     1       1.106   2.524  21.849  0.00  0.00    +0.000 F 
ATOM     17  F   UNL     1       3.250   2.184  21.884  0.00  0.00    +0.000 F 
ATOM     18  F   UNL     1       2.461   4.181  22.204  0.00  0.00    +0.000 F 
ENDBRANCH   6  15
TORSDOF 3
ENDMDL
MODEL 8
REMARK VINA RESULT:      -7.6      1.870      2.518
REMARK  Name = 
REMARK  3 active torsions:
REMARK  status: ('A' for Active; 'I' for Inactive)
REMARK    1  A    between atoms: C_2  and  C_3
REMARK    2  A    between atoms: C_6  and  C_7
REMARK    3  A    between atoms: C_12  and  C_13
REMARK                            x       y       z     vdW  Elec       q    Type
REMARK                         _______ _______ _______ _____ _____    ______ ____
ROOT
ATOM      1  C   UNL     1       4.134   4.802  17.236  0.00  0.00    +0.000 A 
ATOM      2  C   UNL     1       3.709   6.016  17.798  0.00  0.00    +0.000 A 
ATOM      3  C   UNL     1       2.692   6.047  18.754  0.00  0.00    +0.000 A 
ATOM      4  C   UNL     1       2.089   4.862  19.162  0.00  0.00    +0.000 A 
ATOM      5  F   UNL     1       1.128   4.929  20.092  0.00  0.00    +0.000 F 
ATOM      6  C   UNL     1       2.474   3.638  18.624  0.00  0.00    +0.000 A 
ATOM      7  C   UNL     1       3.497   3.620  17.651  0.00  0.00    +0.000 A 
ENDROOT
BRANCH   1  11
ATOM      8  C   UNL     1       6.170   4.253  14.348  0.00  0.00    +0.000 A 
ATOM      9  C   UNL     1       7.137   4.907  15.079  0.00  0.00    +0.000 A 
ATOM     10  C   UNL     1       6.539   5.258  16.311  0.00  0.00    +0.000 A 
ATOM     11  C   UNL     1       5.238   4.791  16.276  0.00  0.00    +0.000 A 
ATOM     12  O   UNL     1       5.010   4.183  15.070  0.00  0.00    +0.000 OA
BRANCH   8  14
ATOM     13  O   UNL     1       5.219   3.425  12.345  0.00  0.00    +0.000 OA
ATOM     14  C   UNL     1       6.207   3.670  13.033  0.00  0.00    +0.000 C 
ENDBRANCH   8  14
ENDBRANCH   1  11
BRANCH   6  15
ATOM     15  C   UNL     1       1.827   2.361  19.071  0.00  0.00    +0.000 C 
ATOM     16  F   UNL     1       0.545   2.182  18.650  0.00  0.00    +0.000 F 
ATOM     17  F   UNL     1       2.512   1.263  18.645  0.00  0.00    +0.000 F 
ATOM     18  F   UNL     1       1.783   2.260  20.430  0.00  0.00    +0.000 F 
ENDBRANCH   6  15
TORSDOF 3
ENDMDL
MODEL 9
REMARK VINA RESULT:      -7.6      1.500      1.962
REMARK  Name = 
REMARK  3 active torsions:
REMARK  status: ('A' for Active; 'I' for Inactive)
REMARK    1  A    between atoms: C_2  and  C_3
REMARK    2  A    between atoms: C_6  and  C_7
REMARK    3  A    between atoms: C_12  and  C_13
REMARK                            x       y       z     vdW  Elec       q    Type
REMARK                         _______ _______ _______ _____ _____    ______ ____
ROOT
ATOM      1  C   UNL     1       4.129   4.831  18.380  0.00  0.00    +0.000 A 
ATOM      2  C   UNL     1       3.702   6.067  18.889  0.00  0.00    +0.000 A 
ATOM      3  C   UNL     1       2.555   6.161  19.680  0.00  0.00    +0.000 A 
ATOM      4  C   UNL     1       1.821   5.018  19.973  0.00  0.00    +0.000 A 
ATOM      5  F   UNL     1       0.736   5.143  20.746  0.00  0.00    +0.000 F 
ATOM      6  C   UNL     1       2.203   3.774  19.481  0.00  0.00    +0.000 A 
ATOM      7  C   UNL     1       3.360   3.692  18.675  0.00  0.00    +0.000 A 
ENDROOT
BRANCH   1  11
ATOM      8  C   UNL     1       6.495   4.596  15.710  0.00  0.00    +0.000 A 
ATOM      9  C   UNL     1       7.427   4.580  16.725  0.00  0.00    +0.000 A 
ATOM     10  C   UNL     1       6.703   4.688  17.934  0.00  0.00    +0.000 A 
ATOM     11  C   UNL     1       5.363   4.752  17.599  0.00  0.00    +0.000 A 
ATOM     12  O   UNL     1       5.237   4.704  16.237  0.00  0.00    +0.000 OA
BRANCH   8  14
ATOM     13  O   UNL     1       6.113   3.666  13.568  0.00  0.00    +0.000 OA
ATOM     14  C   UNL     1       6.647   4.511  14.282  0.00  0.00    +0.000 C 
ENDBRANCH   8  14
ENDBRANCH   1  11
BRANCH   6  15
ATOM     15  C   UNL     1       1.413   2.541  19.804  0.00  0.00    +0.000 C 
ATOM     16  F   UNL     1       1.908   1.383  19.288  0.00  0.00    +0.000 F 
ATOM     17  F   UNL     1       1.312   2.333  21.147  0.00  0.00    +0.000 F 
ATOM     18  F   UNL     1       0.130   2.624  19.350  0.00  0.00    +0.000 F 
ENDBRANCH   6  15
TORSDOF 3
ENDMDL
