MODEL 1
REMARK VINA RESULT:      -8.9      0.000      0.000
REMARK  Name = 
REMARK  7 active torsions:
REMARK  status: ('A' for Active; 'I' for Inactive)
REMARK    1  A    between atoms: C_1  and  O_2
REMARK    2  A    between atoms: O_2  and  C_3
REMARK    3  A    between atoms: C_6  and  C_7
REMARK    4  A    between atoms: C_9  and  C_10
REMARK    5  A    between atoms: C_10  and  N_11
REMARK    6  A    between atoms: C_14  and  C_15
REMARK    7  A    between atoms: C_15  and  C_17
REMARK                            x       y       z     vdW  Elec       q    Type
REMARK                         _______ _______ _______ _____ _____    ______ ____
ROOT
ATOM      1  N   UNL     1       5.789   4.902  17.430  0.00  0.00    +0.000 NA
ATOM      2  C   UNL     1       5.382   5.258  18.790  0.00  0.00    +0.000 C 
ATOM      3  C   UNL     1       4.703   4.109  19.548  0.00  0.00    +0.000 C 
ATOM      4  C   UNL     1       3.579   3.421  18.764  0.00  0.00    +0.000 C 
ATOM      5  C   UNL     1       4.122   3.055  17.372  0.00  0.00    +0.000 C 
ATOM      6  C   UNL     1       4.726   4.263  16.647  0.00  0.00    +0.000 C 
ENDROOT
BRANCH   4   7
ATOM      7  C   UNL     1       2.268   4.206  18.622  0.00  0.00    +0.000 C 
ATOM      8  O   UNL     1       1.193   3.642  18.419  0.00  0.00    +0.000 OA
BRANCH   7   9
ATOM      9  C   UNL     1       2.208   5.690  18.790  0.00  0.00    +0.000 A 
ATOM     10  C   UNL     1       2.419   6.616  17.759  0.00  0.00    +0.000 A 
ATOM     11  C   UNL     1       2.242   7.988  18.007  0.00  0.00    +0.000 A 
ATOM     12  C   UNL     1       1.825   8.425  19.266  0.00  0.00    +0.000 A 
ATOM     13  C   UNL     1       1.719   7.507  20.307  0.00  0.00    +0.000 A 
ATOM     14  C   UNL     1       1.927   6.156  20.081  0.00  0.00    +0.000 A 
ATOM     15  O   UNL     1       1.343   7.876  21.570  0.00  0.00    +0.000 OA
ATOM     16  C   UNL     1       0.327   8.865  21.433  0.00  0.00    +0.000 C 
ATOM     17  C   UNL     1       0.852  10.064  20.652  0.00  0.00    +0.000 C 
ATOM     18  O   UNL     1       1.485   9.743  19.401  0.00  0.00    +0.000 OA
ENDBRANCH   7   9
ENDBRANCH   4   7
BRANCH   1  19
ATOM     19  C   UNL     1       6.410   6.037  16.704  0.00  0.00    +0.000 C 
BRANCH  19  22
ATOM     20  C   UNL     1       8.229   8.750  18.187  0.00  0.00    +0.000 A 
ATOM     21  N   UNL     1       7.379   8.304  17.284  0.00  0.00    +0.000 NA
ATOM     22  C   UNL     1       7.278   6.950  17.526  0.00  0.00    +0.000 A 
ATOM     23  C   UNL     1       8.102   6.633  18.584  0.00  0.00    +0.000 A 
ATOM     24  O   UNL     1       8.709   7.774  19.021  0.00  0.00    +0.000 OA
BRANCH  20  28
ATOM     25  C   UNL     1       9.642  12.750  18.760  0.00  0.00    +0.000 A 
ATOM     26  C   UNL     1       8.749  12.453  17.731  0.00  0.00    +0.000 A 
ATOM     27  C   UNL     1       8.280  11.147  17.555  0.00  0.00    +0.000 A 
ATOM     28  C   UNL     1       8.712  10.114  18.401  0.00  0.00    +0.000 A 
ATOM     29  C   UNL     1       9.617  10.420  19.423  0.00  0.00    +0.000 A 
ATOM     30  C   UNL     1      10.082  11.729  19.600  0.00  0.00    +0.000 A 
BRANCH  25  32
ATOM     31  C   UNL     1      11.071  14.429  17.912  0.00  0.00    +0.000 C 
ATOM     32  O   UNL     1      10.047  14.056  18.826  0.00  0.00    +0.000 OA
ENDBRANCH  25  32
ENDBRANCH  20  28
ENDBRANCH  19  22
ENDBRANCH   1  19
TORSDOF 6
ENDMDL
MODEL 2
REMARK VINA RESULT:      -8.7      4.600      8.306
REMARK  Name = 
REMARK  7 active torsions:
REMARK  status: ('A' for Active; 'I' for Inactive)
REMARK    1  A    between atoms: C_1  and  O_2
REMARK    2  A    between atoms: O_2  and  C_3
REMARK    3  A    between atoms: C_6  and  C_7
REMARK    4  A    between atoms: C_9  and  C_10
REMARK    5  A    between atoms: C_10  and  N_11
REMARK    6  A    between atoms: C_14  and  C_15
REMARK    7  A    between atoms: C_15  and  C_17
REMARK                            x       y       z     vdW  Elec       q    Type
REMARK                         _______ _______ _______ _____ _____    ______ ____
ROOT
ATOM      1  N   UNL     1       2.028   5.932  19.511  0.00  0.00    +0.000 NA
ATOM      2  C   UNL     1       2.062   5.566  18.094  0.00  0.00    +0.000 C 
ATOM      3  C   UNL     1       1.463   4.184  17.803  0.00  0.00    +0.000 C 
ATOM      4  C   UNL     1       1.999   3.067  18.706  0.00  0.00    +0.000 C 
ATOM      5  C   UNL     1       1.881   3.535  20.166  0.00  0.00    +0.000 C 
ATOM      6  C   UNL     1       2.558   4.891  20.399  0.00  0.00    +0.000 C 
ENDROOT
BRANCH   4   7
ATOM      7  C   UNL     1       3.431   2.591  18.425  0.00  0.00    +0.000 C 
ATOM      8  O   UNL     1       3.798   1.447  18.691  0.00  0.00    +0.000 OA
BRANCH   7   9
ATOM      9  C   UNL     1       4.440   3.464  17.751  0.00  0.00    +0.000 A 
ATOM     10  C   UNL     1       5.455   4.166  18.416  0.00  0.00    +0.000 A 
ATOM     11  C   UNL     1       6.411   4.880  17.673  0.00  0.00    +0.000 A 
ATOM     12  C   UNL     1       6.370   4.863  16.277  0.00  0.00    +0.000 A 
ATOM     13  C   UNL     1       5.300   4.249  15.633  0.00  0.00    +0.000 A 
ATOM     14  C   UNL     1       4.332   3.574  16.359  0.00  0.00    +0.000 A 
ATOM     15  O   UNL     1       5.187   4.223  14.269  0.00  0.00    +0.000 OA
ATOM     16  C   UNL     1       6.496   4.028  13.744  0.00  0.00    +0.000 C 
ATOM     17  C   UNL     1       7.423   5.154  14.189  0.00  0.00    +0.000 C 
ATOM     18  O   UNL     1       7.426   5.412  15.604  0.00  0.00    +0.000 OA
ENDBRANCH   7   9
ENDBRANCH   4   7
BRANCH   1  19
ATOM     19  C   UNL     1       2.645   7.255  19.774  0.00  0.00    +0.000 C 
BRANCH  19  22
ATOM     20  C   UNL     1       0.309   9.912  20.371  0.00  0.00    +0.000 A 
ATOM     21  N   UNL     1       1.008   8.885  20.812  0.00  0.00    +0.000 NA
ATOM     22  C   UNL     1       1.718   8.438  19.717  0.00  0.00    +0.000 A 
ATOM     23  C   UNL     1       1.397   9.230  18.636  0.00  0.00    +0.000 A 
ATOM     24  O   UNL     1       0.506  10.180  19.041  0.00  0.00    +0.000 OA
BRANCH  20  28
ATOM     25  C   UNL     1      -2.429  12.388  22.537  0.00  0.00    +0.000 A 
ATOM     26  C   UNL     1      -1.661  11.430  23.199  0.00  0.00    +0.000 A 
ATOM     27  C   UNL     1      -0.758  10.633  22.489  0.00  0.00    +0.000 A 
ATOM     28  C   UNL     1      -0.622  10.772  21.100  0.00  0.00    +0.000 A 
ATOM     29  C   UNL     1      -1.406  11.727  20.443  0.00  0.00    +0.000 A 
ATOM     30  C   UNL     1      -2.306  12.528  21.156  0.00  0.00    +0.000 A 
BRANCH  25  32
ATOM     31  C   UNL     1      -4.660  13.051  22.945  0.00  0.00    +0.000 C 
ATOM     32  O   UNL     1      -3.291  13.098  23.329  0.00  0.00    +0.000 OA
ENDBRANCH  25  32
ENDBRANCH  20  28
ENDBRANCH  19  22
ENDBRANCH   1  19
TORSDOF 6
ENDMDL
MODEL 3
REMARK VINA RESULT:      -8.7      3.673      7.988
REMARK  Name = 
REMARK  7 active torsions:
REMARK  status: ('A' for Active; 'I' for Inactive)
REMARK    1  A    between atoms: C_1  and  O_2
REMARK    2  A    between atoms: O_2  and  C_3
REMARK    3  A    between atoms: C_6  and  C_7
REMARK    4  A    between atoms: C_9  and  C_10
REMARK    5  A    between atoms: C_10  and  N_11
REMARK    6  A    between atoms: C_14  and  C_15
REMARK    7  A    between atoms: C_15  and  C_17
REMARK                            x       y       z     vdW  Elec       q    Type
REMARK                         _______ _______ _______ _____ _____    ______ ____
ROOT
ATOM      1  N   UNL     1       1.686   5.472  19.855  0.00  0.00    +0.000 NA
ATOM      2  C   UNL     1       2.006   5.512  18.427  0.00  0.00    +0.000 C 
ATOM      3  C   UNL     1       1.447   4.318  17.639  0.00  0.00    +0.000 C 
ATOM      4  C   UNL     1       1.755   2.955  18.269  0.00  0.00    +0.000 C 
ATOM      5  C   UNL     1       1.347   3.009  19.751  0.00  0.00    +0.000 C 
ATOM      6  C   UNL     1       1.993   4.186  20.490  0.00  0.00    +0.000 C 
ENDROOT
BRANCH   4   7
ATOM      7  C   UNL     1       3.202   2.459  18.144  0.00  0.00    +0.000 C 
ATOM      8  O   UNL     1       3.526   1.316  18.466  0.00  0.00    +0.000 OA
BRANCH   7   9
ATOM      9  C   UNL     1       4.287   3.308  17.563  0.00  0.00    +0.000 A 
ATOM     10  C   UNL     1       4.379   3.665  16.211  0.00  0.00    +0.000 A 
ATOM     11  C   UNL     1       5.387   4.549  15.790  0.00  0.00    +0.000 A 
ATOM     12  C   UNL     1       6.273   5.097  16.721  0.00  0.00    +0.000 A 
ATOM     13  C   UNL     1       6.236   4.655  18.040  0.00  0.00    +0.000 A 
ATOM     14  C   UNL     1       5.268   3.755  18.457  0.00  0.00    +0.000 A 
ATOM     15  O   UNL     1       7.095   5.131  18.994  0.00  0.00    +0.000 OA
ATOM     16  C   UNL     1       7.262   6.524  18.750  0.00  0.00    +0.000 C 
ATOM     17  C   UNL     1       7.821   6.758  17.351  0.00  0.00    +0.000 C 
ATOM     18  O   UNL     1       7.108   6.092  16.294  0.00  0.00    +0.000 OA
ENDBRANCH   7   9
ENDBRANCH   4   7
BRANCH   1  19
ATOM     19  C   UNL     1       2.266   6.616  20.601  0.00  0.00    +0.000 C 
BRANCH  19  22
ATOM     20  C   UNL     1       0.323   9.623  20.822  0.00  0.00    +0.000 A 
ATOM     21  N   UNL     1       0.722   8.481  21.345  0.00  0.00    +0.000 NA
ATOM     22  C   UNL     1       1.584   7.942  20.411  0.00  0.00    +0.000 A 
ATOM     23  C   UNL     1       1.656   8.801  19.337  0.00  0.00    +0.000 A 
ATOM     24  O   UNL     1       0.862   9.883  19.590  0.00  0.00    +0.000 OA
BRANCH  20  28
ATOM     25  C   UNL     1      -2.395  12.488  22.475  0.00  0.00    +0.000 A 
ATOM     26  C   UNL     1      -1.831  11.497  23.279  0.00  0.00    +0.000 A 
ATOM     27  C   UNL     1      -0.934  10.571  22.737  0.00  0.00    +0.000 A 
ATOM     28  C   UNL     1      -0.599  10.615  21.376  0.00  0.00    +0.000 A 
ATOM     29  C   UNL     1      -1.178  11.605  20.574  0.00  0.00    +0.000 A 
ATOM     30  C   UNL     1      -2.073  12.533  21.120  0.00  0.00    +0.000 A 
BRANCH  25  32
ATOM     31  C   UNL     1      -3.882  12.809  24.282  0.00  0.00    +0.000 C 
ATOM     32  O   UNL     1      -3.272  13.327  23.107  0.00  0.00    +0.000 OA
ENDBRANCH  25  32
ENDBRANCH  20  28
ENDBRANCH  19  22
ENDBRANCH   1  19
TORSDOF 6
ENDMDL
MODEL 4
REMARK VINA RESULT:      -8.6      4.397      8.826
REMARK  Name = 
REMARK  7 active torsions:
REMARK  status: ('A' for Active; 'I' for Inactive)
REMARK    1  A    between atoms: C_1  and  O_2
REMARK    2  A    between atoms: O_2  and  C_3
REMARK    3  A    between atoms: C_6  and  C_7
REMARK    4  A    between atoms: C_9  and  C_10
REMARK    5  A    between atoms: C_10  and  N_11
REMARK    6  A    between atoms: C_14  and  C_15
REMARK    7  A    between atoms: C_15  and  C_17
REMARK                            x       y       z     vdW  Elec       q    Type
REMARK                         _______ _______ _______ _____ _____    ______ ____
ROOT
ATOM      1  N   UNL     1       1.872   6.412  19.782  0.00  0.00    +0.000 NA
ATOM      2  C   UNL     1       2.331   6.265  18.399  0.00  0.00    +0.000 C 
ATOM      3  C   UNL     1       2.185   4.838  17.853  0.00  0.00    +0.000 C 
ATOM      4  C   UNL     1       2.756   3.755  18.776  0.00  0.00    +0.000 C 
ATOM      5  C   UNL     1       2.182   3.976  20.185  0.00  0.00    +0.000 C 
ATOM      6  C   UNL     1       2.421   5.403  20.693  0.00  0.00    +0.000 C 
ENDROOT
BRANCH   4   7
ATOM      7  C   UNL     1       4.286   3.655  18.845  0.00  0.00    +0.000 C 
ATOM      8  O   UNL     1       4.854   3.005  19.722  0.00  0.00    +0.000 OA
BRANCH   7   9
ATOM      9  C   UNL     1       5.171   4.282  17.816  0.00  0.00    +0.000 A 
ATOM     10  C   UNL     1       6.325   5.022  18.104  0.00  0.00    +0.000 A 
ATOM     11  C   UNL     1       7.137   5.484  17.054  0.00  0.00    +0.000 A 
ATOM     12  C   UNL     1       6.814   5.178  15.730  0.00  0.00    +0.000 A 
ATOM     13  C   UNL     1       5.613   4.533  15.453  0.00  0.00    +0.000 A 
ATOM     14  C   UNL     1       4.786   4.105  16.480  0.00  0.00    +0.000 A 
ATOM     15  O   UNL     1       5.225   4.231  14.176  0.00  0.00    +0.000 OA
ATOM     16  C   UNL     1       6.392   3.824  13.468  0.00  0.00    +0.000 C 
ATOM     17  C   UNL     1       7.432   4.938  13.469  0.00  0.00    +0.000 C 
ATOM     18  O   UNL     1       7.732   5.486  14.765  0.00  0.00    +0.000 OA
ENDBRANCH   7   9
ENDBRANCH   4   7
BRANCH   1  19
ATOM     19  C   UNL     1       2.056   7.790  20.300  0.00  0.00    +0.000 C 
BRANCH  19  22
ATOM     20  C   UNL     1      -0.425  10.055  19.040  0.00  0.00    +0.000 A 
ATOM     21  N   UNL     1      -0.092   9.043  19.816  0.00  0.00    +0.000 NA
ATOM     22  C   UNL     1       1.261   8.865  19.611  0.00  0.00    +0.000 A 
ATOM     23  C   UNL     1       1.689   9.795  18.689  0.00  0.00    +0.000 A 
ATOM     24  O   UNL     1       0.624  10.567  18.322  0.00  0.00    +0.000 OA
BRANCH  20  28
ATOM     25  C   UNL     1      -4.261  11.888  18.546  0.00  0.00    +0.000 A 
ATOM     26  C   UNL     1      -3.337  12.407  19.452  0.00  0.00    +0.000 A 
ATOM     27  C   UNL     1      -2.080  11.812  19.601  0.00  0.00    +0.000 A 
ATOM     28  C   UNL     1      -1.735  10.677  18.853  0.00  0.00    +0.000 A 
ATOM     29  C   UNL     1      -2.673  10.156  17.954  0.00  0.00    +0.000 A 
ATOM     30  C   UNL     1      -3.929  10.756  17.804  0.00  0.00    +0.000 A 
BRANCH  25  32
ATOM     31  C   UNL     1      -6.061  12.634  17.209  0.00  0.00    +0.000 C 
ATOM     32  O   UNL     1      -5.464  12.539  18.496  0.00  0.00    +0.000 OA
ENDBRANCH  25  32
ENDBRANCH  20  28
ENDBRANCH  19  22
ENDBRANCH   1  19
TORSDOF 6
ENDMDL
MODEL 5
REMARK VINA RESULT:      -8.6      3.660      7.754
REMARK  Name = 
REMARK  7 active torsions:
REMARK  status: ('A' for Active; 'I' for Inactive)
REMARK    1  A    between atoms: C_1  and  O_2
REMARK    2  A    between atoms: O_2  and  C_3
REMARK    3  A    between atoms: C_6  and  C_7
REMARK    4  A    between atoms: C_9  and  C_10
REMARK    5  A    between atoms: C_10  and  N_11
REMARK    6  A    between atoms: C_14  and  C_15
REMARK    7  A    between atoms: C_15  and  C_17
REMARK                            x       y       z     vdW  Elec       q    Type
REMARK                         _______ _______ _______ _____ _____    ______ ____
ROOT
ATOM      1  N   UNL     1       1.749   5.367  19.881  0.00  0.00    +0.000 NA
ATOM      2  C   UNL     1       1.986   5.399  18.437  0.00  0.00    +0.000 C 
ATOM      3  C   UNL     1       1.415   4.184  17.693  0.00  0.00    +0.000 C 
ATOM      4  C   UNL     1       1.795   2.836  18.316  0.00  0.00    +0.000 C 
ATOM      5  C   UNL     1       1.470   2.894  19.818  0.00  0.00    +0.000 C 
ATOM      6  C   UNL     1       2.126   4.096  20.509  0.00  0.00    +0.000 C 
ENDROOT
BRANCH   4   7
ATOM      7  C   UNL     1       3.245   2.376  18.114  0.00  0.00    +0.000 C 
ATOM      8  O   UNL     1       3.600   1.224  18.362  0.00  0.00    +0.000 OA
BRANCH   7   9
ATOM      9  C   UNL     1       4.292   3.276  17.541  0.00  0.00    +0.000 A 
ATOM     10  C   UNL     1       4.326   3.707  16.208  0.00  0.00    +0.000 A 
ATOM     11  C   UNL     1       5.302   4.632  15.799  0.00  0.00    +0.000 A 
ATOM     12  C   UNL     1       6.213   5.145  16.725  0.00  0.00    +0.000 A 
ATOM     13  C   UNL     1       6.234   4.633  18.019  0.00  0.00    +0.000 A 
ATOM     14  C   UNL     1       5.298   3.693  18.421  0.00  0.00    +0.000 A 
ATOM     15  O   UNL     1       7.120   5.073  18.964  0.00  0.00    +0.000 OA
ATOM     16  C   UNL     1       7.253   6.480  18.791  0.00  0.00    +0.000 C 
ATOM     17  C   UNL     1       7.755   6.800  17.387  0.00  0.00    +0.000 C 
ATOM     18  O   UNL     1       7.014   6.178  16.322  0.00  0.00    +0.000 OA
ENDBRANCH   7   9
ENDBRANCH   4   7
BRANCH   1  19
ATOM     19  C   UNL     1       2.340   6.532  20.583  0.00  0.00    +0.000 C 
BRANCH  19  22
ATOM     20  C   UNL     1       0.394   9.541  20.756  0.00  0.00    +0.000 A 
ATOM     21  N   UNL     1       0.808   8.416  21.303  0.00  0.00    +0.000 NA
ATOM     22  C   UNL     1       1.651   7.851  20.368  0.00  0.00    +0.000 A 
ATOM     23  C   UNL     1       1.698   8.678  19.268  0.00  0.00    +0.000 A 
ATOM     24  O   UNL     1       0.907   9.765  19.505  0.00  0.00    +0.000 OA
BRANCH  20  28
ATOM     25  C   UNL     1      -2.256  12.521  22.310  0.00  0.00    +0.000 A 
ATOM     26  C   UNL     1      -1.962  12.473  20.948  0.00  0.00    +0.000 A 
ATOM     27  C   UNL     1      -1.105  11.489  20.442  0.00  0.00    +0.000 A 
ATOM     28  C   UNL     1      -0.518  10.547  21.299  0.00  0.00    +0.000 A 
ATOM     29  C   UNL     1      -0.809  10.611  22.666  0.00  0.00    +0.000 A 
ATOM     30  C   UNL     1      -1.670  11.593  23.169  0.00  0.00    +0.000 A 
BRANCH  25  32
ATOM     31  C   UNL     1      -2.725  14.836  22.248  0.00  0.00    +0.000 C 
ATOM     32  O   UNL     1      -3.090  13.536  22.695  0.00  0.00    +0.000 OA
ENDBRANCH  25  32
ENDBRANCH  20  28
ENDBRANCH  19  22
ENDBRANCH   1  19
TORSDOF 6
ENDMDL
MODEL 6
REMARK VINA RESULT:      -8.4      1.032      1.117
REMARK  Name = 
REMARK  7 active torsions:
REMARK  status: ('A' for Active; 'I' for Inactive)
REMARK    1  A    between atoms: C_1  and  O_2
REMARK    2  A    between atoms: O_2  and  C_3
REMARK    3  A    between atoms: C_6  and  C_7
REMARK    4  A    between atoms: C_9  and  C_10
REMARK    5  A    between atoms: C_10  and  N_11
REMARK    6  A    between atoms: C_14  and  C_15
REMARK    7  A    between atoms: C_15  and  C_17
REMARK                            x       y       z     vdW  Elec       q    Type
REMARK                         _______ _______ _______ _____ _____    ______ ____
ROOT
ATOM      1  N   UNL     1       6.052   4.207  18.419  0.00  0.00    +0.000 NA
ATOM      2  C   UNL     1       5.433   5.153  19.349  0.00  0.00    +0.000 C 
ATOM      3  C   UNL     1       4.209   4.582  20.080  0.00  0.00    +0.000 C 
ATOM      4  C   UNL     1       3.184   3.916  19.156  0.00  0.00    +0.000 C 
ATOM      5  C   UNL     1       3.930   2.918  18.254  0.00  0.00    +0.000 C 
ATOM      6  C   UNL     1       5.098   3.571  17.505  0.00  0.00    +0.000 C 
ENDROOT
BRANCH   4   7
ATOM      7  C   UNL     1       2.328   4.857  18.296  0.00  0.00    +0.000 C 
ATOM      8  O   UNL     1       1.665   4.443  17.346  0.00  0.00    +0.000 OA
BRANCH   7   9
ATOM      9  C   UNL     1       2.197   6.314  18.602  0.00  0.00    +0.000 A 
ATOM     10  C   UNL     1       2.389   7.343  17.671  0.00  0.00    +0.000 A 
ATOM     11  C   UNL     1       2.144   8.676  18.043  0.00  0.00    +0.000 A 
ATOM     12  C   UNL     1       1.679   8.971  19.327  0.00  0.00    +0.000 A 
ATOM     13  C   UNL     1       1.592   7.954  20.272  0.00  0.00    +0.000 A 
ATOM     14  C   UNL     1       1.866   6.641  19.924  0.00  0.00    +0.000 A 
ATOM     15  O   UNL     1       1.170   8.183  21.554  0.00  0.00    +0.000 OA
ATOM     16  C   UNL     1       0.114   9.136  21.484  0.00  0.00    +0.000 C 
ATOM     17  C   UNL     1       0.601  10.426  20.835  0.00  0.00    +0.000 C 
ATOM     18  O   UNL     1       1.277  10.255  19.577  0.00  0.00    +0.000 OA
ENDBRANCH   7   9
ENDBRANCH   4   7
BRANCH   1  19
ATOM     19  C   UNL     1       7.210   4.791  17.698  0.00  0.00    +0.000 C 
BRANCH  19  22
ATOM     20  C   UNL     1       7.817   8.321  17.893  0.00  0.00    +0.000 A 
ATOM     21  N   UNL     1       8.130   7.088  18.237  0.00  0.00    +0.000 NA
ATOM     22  C   UNL     1       7.222   6.289  17.574  0.00  0.00    +0.000 A 
ATOM     23  C   UNL     1       6.374   7.100  16.851  0.00  0.00    +0.000 A 
ATOM     24  O   UNL     1       6.748   8.399  17.039  0.00  0.00    +0.000 OA
BRANCH  20  28
ATOM     25  C   UNL     1       9.669  12.010  19.029  0.00  0.00    +0.000 A 
ATOM     26  C   UNL     1       8.884  11.934  17.879  0.00  0.00    +0.000 A 
ATOM     27  C   UNL     1       8.270  10.729  17.519  0.00  0.00    +0.000 A 
ATOM     28  C   UNL     1       8.447   9.577  18.299  0.00  0.00    +0.000 A 
ATOM     29  C   UNL     1       9.246   9.660  19.445  0.00  0.00    +0.000 A 
ATOM     30  C   UNL     1       9.856  10.867  19.806  0.00  0.00    +0.000 A 
BRANCH  25  32
ATOM     31  C   UNL     1      11.656  13.256  19.310  0.00  0.00    +0.000 C 
ATOM     32  O   UNL     1      10.234  13.232  19.274  0.00  0.00    +0.000 OA
ENDBRANCH  25  32
ENDBRANCH  20  28
ENDBRANCH  19  22
ENDBRANCH   1  19
TORSDOF 6
ENDMDL
MODEL 7
REMARK VINA RESULT:      -8.4      4.382      8.554
REMARK  Name = 
REMARK  7 active torsions:
REMARK  status: ('A' for Active; 'I' for Inactive)
REMARK    1  A    between atoms: C_1  and  O_2
REMARK    2  A    between atoms: O_2  and  C_3
REMARK    3  A    between atoms: C_6  and  C_7
REMARK    4  A    between atoms: C_9  and  C_10
REMARK    5  A    between atoms: C_10  and  N_11
REMARK    6  A    between atoms: C_14  and  C_15
REMARK    7  A    between atoms: C_15  and  C_17
REMARK                            x       y       z     vdW  Elec       q    Type
REMARK                         _______ _______ _______ _____ _____    ______ ____
ROOT
ATOM      1  N   UNL     1       2.298   6.628  18.630  0.00  0.00    +0.000 NA
ATOM      2  C   UNL     1       2.101   5.558  17.651  0.00  0.00    +0.000 C 
ATOM      3  C   UNL     1       1.680   4.221  18.279  0.00  0.00    +0.000 C 
ATOM      4  C   UNL     1       2.557   3.780  19.456  0.00  0.00    +0.000 C 
ATOM      5  C   UNL     1       2.666   4.958  20.439  0.00  0.00    +0.000 C 
ATOM      6  C   UNL     1       3.154   6.242  19.757  0.00  0.00    +0.000 C 
ENDROOT
BRANCH   4   7
ATOM      7  C   UNL     1       3.959   3.263  19.105  0.00  0.00    +0.000 C 
ATOM      8  O   UNL     1       4.380   2.189  19.534  0.00  0.00    +0.000 OA
BRANCH   7   9
ATOM      9  C   UNL     1       4.866   3.997  18.170  0.00  0.00    +0.000 A 
ATOM     10  C   UNL     1       5.960   4.776  18.572  0.00  0.00    +0.000 A 
ATOM     11  C   UNL     1       6.805   5.343  17.603  0.00  0.00    +0.000 A 
ATOM     12  C   UNL     1       6.575   5.105  16.246  0.00  0.00    +0.000 A 
ATOM     13  C   UNL     1       5.429   4.418  15.858  0.00  0.00    +0.000 A 
ATOM     14  C   UNL     1       4.570   3.885  16.806  0.00  0.00    +0.000 A 
ATOM     15  O   UNL     1       5.133   4.176  14.544  0.00  0.00    +0.000 OA
ATOM     16  C   UNL     1       6.360   3.874  13.886  0.00  0.00    +0.000 C 
ATOM     17  C   UNL     1       7.335   5.038  14.016  0.00  0.00    +0.000 C 
ATOM     18  O   UNL     1       7.530   5.519  15.358  0.00  0.00    +0.000 OA
ENDBRANCH   7   9
ENDBRANCH   4   7
BRANCH   1  19
ATOM     19  C   UNL     1       2.738   7.899  18.005  0.00  0.00    +0.000 C 
BRANCH  19  22
ATOM     20  C   UNL     1      -0.047  10.145  18.266  0.00  0.00    +0.000 A 
ATOM     21  N   UNL     1       0.425   8.921  18.139  0.00  0.00    +0.000 NA
ATOM     22  C   UNL     1       1.797   9.063  18.144  0.00  0.00    +0.000 A 
ATOM     23  C   UNL     1       2.096  10.403  18.265  0.00  0.00    +0.000 A 
ATOM     24  O   UNL     1       0.928  11.104  18.352  0.00  0.00    +0.000 OA
BRANCH  20  28
ATOM     25  C   UNL     1      -4.123  11.447  18.373  0.00  0.00    +0.000 A 
ATOM     26  C   UNL     1      -3.740  10.377  17.565  0.00  0.00    +0.000 A 
ATOM     27  C   UNL     1      -2.409   9.946  17.543  0.00  0.00    +0.000 A 
ATOM     28  C   UNL     1      -1.438  10.594  18.320  0.00  0.00    +0.000 A 
ATOM     29  C   UNL     1      -1.829  11.674  19.118  0.00  0.00    +0.000 A 
ATOM     30  C   UNL     1      -3.162  12.101  19.142  0.00  0.00    +0.000 A 
BRANCH  25  32
ATOM     31  C   UNL     1      -5.835  12.497  17.128  0.00  0.00    +0.000 C 
ATOM     32  O   UNL     1      -5.445  11.792  18.301  0.00  0.00    +0.000 OA
ENDBRANCH  25  32
ENDBRANCH  20  28
ENDBRANCH  19  22
ENDBRANCH   1  19
TORSDOF 6
ENDMDL
MODEL 8
REMARK VINA RESULT:      -8.4      4.328      8.374
REMARK  Name = 
REMARK  7 active torsions:
REMARK  status: ('A' for Active; 'I' for Inactive)
REMARK    1  A    between atoms: C_1  and  O_2
REMARK    2  A    between atoms: O_2  and  C_3
REMARK    3  A    between atoms: C_6  and  C_7
REMARK    4  A    between atoms: C_9  and  C_10
REMARK    5  A    between atoms: C_10  and  N_11
REMARK    6  A    between atoms: C_14  and  C_15
REMARK    7  A    between atoms: C_15  and  C_17
REMARK                            x       y       z     vdW  Elec       q    Type
REMARK                         _______ _______ _______ _____ _____    ______ ____
ROOT
ATOM      1  N   UNL     1       1.951   6.437  19.480  0.00  0.00    +0.000 NA
ATOM      2  C   UNL     1       2.346   6.038  18.129  0.00  0.00    +0.000 C 
ATOM      3  C   UNL     1       2.193   4.533  17.864  0.00  0.00    +0.000 C 
ATOM      4  C   UNL     1       2.820   3.642  18.942  0.00  0.00    +0.000 C 
ATOM      5  C   UNL     1       2.311   4.119  20.313  0.00  0.00    +0.000 C 
ATOM      6  C   UNL     1       2.555   5.617  20.535  0.00  0.00    +0.000 C 
ENDROOT
BRANCH   4   7
ATOM      7  C   UNL     1       4.353   3.563  18.954  0.00  0.00    +0.000 C 
ATOM      8  O   UNL     1       4.962   2.898  19.792  0.00  0.00    +0.000 OA
BRANCH   7   9
ATOM      9  C   UNL     1       5.191   4.230  17.911  0.00  0.00    +0.000 A 
ATOM     10  C   UNL     1       6.302   5.041  18.183  0.00  0.00    +0.000 A 
ATOM     11  C   UNL     1       7.078   5.540  17.122  0.00  0.00    +0.000 A 
ATOM     12  C   UNL     1       6.763   5.201  15.804  0.00  0.00    +0.000 A 
ATOM     13  C   UNL     1       5.600   4.482  15.543  0.00  0.00    +0.000 A 
ATOM     14  C   UNL     1       4.809   4.018  16.581  0.00  0.00    +0.000 A 
ATOM     15  O   UNL     1       5.222   4.144  14.272  0.00  0.00    +0.000 OA
ATOM     16  C   UNL     1       6.406   3.800  13.559  0.00  0.00    +0.000 C 
ATOM     17  C   UNL     1       7.378   4.974  13.541  0.00  0.00    +0.000 C 
ATOM     18  O   UNL     1       7.654   5.553  14.828  0.00  0.00    +0.000 OA
ENDBRANCH   7   9
ENDBRANCH   4   7
BRANCH   1  19
ATOM     19  C   UNL     1       2.141   7.888  19.725  0.00  0.00    +0.000 C 
BRANCH  19  22
ATOM     20  C   UNL     1       0.050  10.079  21.648  0.00  0.00    +0.000 A 
ATOM     21  N   UNL     1       0.971   9.901  20.722  0.00  0.00    +0.000 NA
ATOM     22  C   UNL     1       1.153   8.535  20.656  0.00  0.00    +0.000 A 
ATOM     23  C   UNL     1       0.320   7.939  21.577  0.00  0.00    +0.000 A 
ATOM     24  O   UNL     1      -0.396   8.913  22.211  0.00  0.00    +0.000 OA
BRANCH  20  28
ATOM     25  C   UNL     1      -1.710  13.713  23.070  0.00  0.00    +0.000 A 
ATOM     26  C   UNL     1      -2.245  12.476  23.430  0.00  0.00    +0.000 A 
ATOM     27  C   UNL     1      -1.658  11.291  22.973  0.00  0.00    +0.000 A 
ATOM     28  C   UNL     1      -0.534  11.328  22.135  0.00  0.00    +0.000 A 
ATOM     29  C   UNL     1      -0.012  12.574  21.769  0.00  0.00    +0.000 A 
ATOM     30  C   UNL     1      -0.597  13.759  22.231  0.00  0.00    +0.000 A 
BRANCH  25  32
ATOM     31  C   UNL     1      -3.066  14.605  24.787  0.00  0.00    +0.000 C 
ATOM     32  O   UNL     1      -2.375  14.804  23.559  0.00  0.00    +0.000 OA
ENDBRANCH  25  32
ENDBRANCH  20  28
ENDBRANCH  19  22
ENDBRANCH   1  19
TORSDOF 6
ENDMDL
MODEL 9
REMARK VINA RESULT:      -8.3      4.433      8.171
REMARK  Name = 
REMARK  7 active torsions:
REMARK  status: ('A' for Active; 'I' for Inactive)
REMARK    1  A    between atoms: C_1  and  O_2
REMARK    2  A    between atoms: O_2  and  C_3
REMARK    3  A    between atoms: C_6  and  C_7
REMARK    4  A    between atoms: C_9  and  C_10
REMARK    5  A    between atoms: C_10  and  N_11
REMARK    6  A    between atoms: C_14  and  C_15
REMARK    7  A    between atoms: C_15  and  C_17
REMARK                            x       y       z     vdW  Elec       q    Type
REMARK                         _______ _______ _______ _____ _____    ______ ____
ROOT
ATOM      1  N   UNL     1       1.745   6.211  19.711  0.00  0.00    +0.000 NA
ATOM      2  C   UNL     1       2.074   5.855  18.330  0.00  0.00    +0.000 C 
ATOM      3  C   UNL     1       1.741   4.399  17.976  0.00  0.00    +0.000 C 
ATOM      4  C   UNL     1       2.270   3.373  18.984  0.00  0.00    +0.000 C 
ATOM      5  C   UNL     1       1.837   3.818  20.391  0.00  0.00    +0.000 C 
ATOM      6  C   UNL     1       2.260   5.259  20.702  0.00  0.00    +0.000 C 
ENDROOT
BRANCH   4   7
ATOM      7  C   UNL     1       3.783   3.114  18.962  0.00  0.00    +0.000 C 
ATOM      8  O   UNL     1       4.296   2.209  19.621  0.00  0.00    +0.000 OA
BRANCH   7   9
ATOM      9  C   UNL     1       4.711   3.896  18.089  0.00  0.00    +0.000 A 
ATOM     10  C   UNL     1       5.757   4.701  18.561  0.00  0.00    +0.000 A 
ATOM     11  C   UNL     1       6.630   5.316  17.647  0.00  0.00    +0.000 A 
ATOM     12  C   UNL     1       6.476   5.100  16.276  0.00  0.00    +0.000 A 
ATOM     13  C   UNL     1       5.374   4.384  15.817  0.00  0.00    +0.000 A 
ATOM     14  C   UNL     1       4.487   3.805  16.710  0.00  0.00    +0.000 A 
ATOM     15  O   UNL     1       5.152   4.162  14.485  0.00  0.00    +0.000 OA
ATOM     16  C   UNL     1       6.419   3.914  13.884  0.00  0.00    +0.000 C 
ATOM     17  C   UNL     1       7.348   5.105  14.086  0.00  0.00    +0.000 C 
ATOM     18  O   UNL     1       7.459   5.563  15.446  0.00  0.00    +0.000 OA
ENDBRANCH   7   9
ENDBRANCH   4   7
BRANCH   1  19
ATOM     19  C   UNL     1       2.108   7.611  20.042  0.00  0.00    +0.000 C 
BRANCH  19  22
ATOM     20  C   UNL     1       0.050  10.066  21.656  0.00  0.00    +0.000 A 
ATOM     21  N   UNL     1       1.045   9.764  20.845  0.00  0.00    +0.000 NA
ATOM     22  C   UNL     1       1.095   8.385  20.837  0.00  0.00    +0.000 A 
ATOM     23  C   UNL     1       0.110   7.908  21.674  0.00  0.00    +0.000 A 
ATOM     24  O   UNL     1      -0.570   8.970  22.196  0.00  0.00    +0.000 OA
BRANCH  20  28
ATOM     25  C   UNL     1      -1.380  13.941  22.778  0.00  0.00    +0.000 A 
ATOM     26  C   UNL     1      -0.326  13.807  21.874  0.00  0.00    +0.000 A 
ATOM     27  C   UNL     1       0.129  12.538  21.501  0.00  0.00    +0.000 A 
ATOM     28  C   UNL     1      -0.456  11.383  22.040  0.00  0.00    +0.000 A 
ATOM     29  C   UNL     1      -1.504  11.528  22.955  0.00  0.00    +0.000 A 
ATOM     30  C   UNL     1      -1.962  12.798  23.324  0.00  0.00    +0.000 A 
BRANCH  25  32
ATOM     31  C   UNL     1      -2.574  15.383  24.219  0.00  0.00    +0.000 C 
ATOM     32  O   UNL     1      -1.730  15.228  23.085  0.00  0.00    +0.000 OA
ENDBRANCH  25  32
ENDBRANCH  20  28
ENDBRANCH  19  22
ENDBRANCH   1  19
TORSDOF 6
ENDMDL
