MODEL 1
REMARK VINA RESULT:      -6.5      0.000      0.000
REMARK  Name = 
REMARK  6 active torsions:
REMARK  status: ('A' for Active; 'I' for Inactive)
REMARK    1  A    between atoms: C_1  and  N_2
REMARK    2  A    between atoms: N_2  and  C_3
REMARK    3  A    between atoms: C_8  and  C_9
REMARK    4  A    between atoms: C_9  and  C_10
REMARK    5  A    between atoms: C_9  and  C_11
REMARK    6  A    between atoms: C_9  and  C_12
REMARK                            x       y       z     vdW  Elec       q    Type
REMARK                         _______ _______ _______ _____ _____    ______ ____
ROOT
ATOM      1  C   UNL     1       5.454   4.730  18.581  0.00  0.00    +0.000 C 
ATOM      2  C   UNL     1       5.003   5.890  18.097  0.00  0.00    +0.000 C 
ATOM      3  C   UNL     1       3.605   6.299  18.227  0.00  0.00    +0.000 C 
ATOM      4  O   UNL     1       3.215   7.375  17.794  0.00  0.00    +0.000 OA
ATOM      5  C   UNL     1       2.682   5.371  18.895  0.00  0.00    +0.000 C 
ATOM      6  C   UNL     1       3.045   4.180  19.405  0.00  0.00    +0.000 C 
ATOM      7  C   UNL     1       4.491   3.790  19.282  0.00  0.00    +0.000 C 
ATOM      8  O   UNL     1       4.926   2.738  19.749  0.00  0.00    +0.000 OA
ENDROOT
BRANCH   6   9
ATOM      9  C   UNL     1       2.053   3.211  20.089  0.00  0.00    +0.000 C 
ATOM     10  C   UNL     1       0.646   3.841  20.279  0.00  0.00    +0.000 C 
ATOM     11  C   UNL     1       1.854   1.947  19.230  0.00  0.00    +0.000 C 
ATOM     12  C   UNL     1       2.534   2.805  21.498  0.00  0.00    +0.000 C 
ENDBRANCH   6   9
BRANCH   1  14
ATOM     13  C   UNL     1       7.647   4.524  17.353  0.00  0.00    +0.000 C 
ATOM     14  N   UNL     1       6.779   4.299  18.491  0.00  0.00    +0.000 N 
ATOM     15  H   UNL     1       7.243   4.375  19.402  0.00  0.00    +0.000 HD
ENDBRANCH   1  14
TORSDOF 2
ENDMDL
MODEL 2
REMARK VINA RESULT:      -6.5      0.085      1.170
REMARK  Name = 
REMARK  6 active torsions:
REMARK  status: ('A' for Active; 'I' for Inactive)
REMARK    1  A    between atoms: C_1  and  N_2
REMARK    2  A    between atoms: N_2  and  C_3
REMARK    3  A    between atoms: C_8  and  C_9
REMARK    4  A    between atoms: C_9  and  C_10
REMARK    5  A    between atoms: C_9  and  C_11
REMARK    6  A    between atoms: C_9  and  C_12
REMARK                            x       y       z     vdW  Elec       q    Type
REMARK                         _______ _______ _______ _____ _____    ______ ____
ROOT
ATOM      1  C   UNL     1       5.487   4.680  18.552  0.00  0.00    +0.000 C 
ATOM      2  C   UNL     1       5.060   5.843  18.054  0.00  0.00    +0.000 C 
ATOM      3  C   UNL     1       3.674   6.290  18.189  0.00  0.00    +0.000 C 
ATOM      4  O   UNL     1       3.307   7.368  17.744  0.00  0.00    +0.000 OA
ATOM      5  C   UNL     1       2.735   5.395  18.879  0.00  0.00    +0.000 C 
ATOM      6  C   UNL     1       3.072   4.202  19.403  0.00  0.00    +0.000 C 
ATOM      7  C   UNL     1       4.507   3.774  19.275  0.00  0.00    +0.000 C 
ATOM      8  O   UNL     1       4.919   2.719  19.753  0.00  0.00    +0.000 OA
ENDROOT
BRANCH   6   9
ATOM      9  C   UNL     1       2.062   3.269  20.110  0.00  0.00    +0.000 C 
ATOM     10  C   UNL     1       2.565   2.794  21.500  0.00  0.00    +0.000 C 
ATOM     11  C   UNL     1       0.729   4.004  20.354  0.00  0.00    +0.000 C 
ATOM     12  C   UNL     1       1.800   1.988  19.290  0.00  0.00    +0.000 C 
ENDBRANCH   6   9
BRANCH   1  14
ATOM     13  C   UNL     1       7.717   4.539  17.384  0.00  0.00    +0.000 C 
ATOM     14  N   UNL     1       6.800   4.215  18.457  0.00  0.00    +0.000 N 
ATOM     15  H   UNL     1       7.231   4.167  19.386  0.00  0.00    +0.000 HD
ENDBRANCH   1  14
TORSDOF 2
ENDMDL
MODEL 3
REMARK VINA RESULT:      -6.4      0.045      1.148
REMARK  Name = 
REMARK  6 active torsions:
REMARK  status: ('A' for Active; 'I' for Inactive)
REMARK    1  A    between atoms: C_1  and  N_2
REMARK    2  A    between atoms: N_2  and  C_3
REMARK    3  A    between atoms: C_8  and  C_9
REMARK    4  A    between atoms: C_9  and  C_10
REMARK    5  A    between atoms: C_9  and  C_11
REMARK    6  A    between atoms: C_9  and  C_12
REMARK                            x       y       z     vdW  Elec       q    Type
REMARK                         _______ _______ _______ _____ _____    ______ ____
ROOT
ATOM      1  C   UNL     1       5.458   4.736  18.563  0.00  0.00    +0.000 C 
ATOM      2  C   UNL     1       5.016   5.901  18.083  0.00  0.00    +0.000 C 
ATOM      3  C   UNL     1       3.625   6.327  18.226  0.00  0.00    +0.000 C 
ATOM      4  O   UNL     1       3.243   7.407  17.797  0.00  0.00    +0.000 OA
ATOM      5  C   UNL     1       2.698   5.410  18.904  0.00  0.00    +0.000 C 
ATOM      6  C   UNL     1       3.052   4.214  19.411  0.00  0.00    +0.000 C 
ATOM      7  C   UNL     1       4.491   3.807  19.274  0.00  0.00    +0.000 C 
ATOM      8  O   UNL     1       4.919   2.750  19.737  0.00  0.00    +0.000 OA
ENDROOT
BRANCH   6   9
ATOM      9  C   UNL     1       2.055   3.258  20.105  0.00  0.00    +0.000 C 
ATOM     10  C   UNL     1       1.814   1.958  19.290  0.00  0.00    +0.000 C 
ATOM     11  C   UNL     1       2.598   2.819  21.480  0.00  0.00    +0.000 C 
ATOM     12  C   UNL     1       0.668   3.913  20.285  0.00  0.00    +0.000 C 
ENDBRANCH   6   9
BRANCH   1  14
ATOM     13  C   UNL     1       7.653   4.548  17.336  0.00  0.00    +0.000 C 
ATOM     14  N   UNL     1       6.777   4.290  18.460  0.00  0.00    +0.000 N 
ATOM     15  H   UNL     1       7.239   4.321  19.375  0.00  0.00    +0.000 HD
ENDBRANCH   1  14
TORSDOF 2
ENDMDL
MODEL 4
REMARK VINA RESULT:      -6.1      1.512      1.512
REMARK  Name = 
REMARK  6 active torsions:
REMARK  status: ('A' for Active; 'I' for Inactive)
REMARK    1  A    between atoms: C_1  and  N_2
REMARK    2  A    between atoms: N_2  and  C_3
REMARK    3  A    between atoms: C_8  and  C_9
REMARK    4  A    between atoms: C_9  and  C_10
REMARK    5  A    between atoms: C_9  and  C_11
REMARK    6  A    between atoms: C_9  and  C_12
REMARK                            x       y       z     vdW  Elec       q    Type
REMARK                         _______ _______ _______ _____ _____    ______ ____
ROOT
ATOM      1  C   UNL     1       4.707   4.248  16.932  0.00  0.00    +0.000 C 
ATOM      2  C   UNL     1       4.612   5.579  16.873  0.00  0.00    +0.000 C 
ATOM      3  C   UNL     1       3.659   6.330  17.689  0.00  0.00    +0.000 C 
ATOM      4  O   UNL     1       3.600   7.551  17.636  0.00  0.00    +0.000 OA
ATOM      5  C   UNL     1       2.771   5.566  18.576  0.00  0.00    +0.000 C 
ATOM      6  C   UNL     1       2.789   4.226  18.694  0.00  0.00    +0.000 C 
ATOM      7  C   UNL     1       3.793   3.475  17.865  0.00  0.00    +0.000 C 
ATOM      8  O   UNL     1       3.911   2.253  17.931  0.00  0.00    +0.000 OA
ENDROOT
BRANCH   6   9
ATOM      9  C   UNL     1       1.833   3.442  19.622  0.00  0.00    +0.000 C 
ATOM     10  C   UNL     1       0.871   4.375  20.408  0.00  0.00    +0.000 C 
ATOM     11  C   UNL     1       0.943   2.489  18.798  0.00  0.00    +0.000 C 
ATOM     12  C   UNL     1       2.606   2.633  20.685  0.00  0.00    +0.000 C 
ENDBRANCH   6   9
BRANCH   1  14
ATOM     13  C   UNL     1       6.206   3.909  14.933  0.00  0.00    +0.000 C 
ATOM     14  N   UNL     1       5.606   3.487  16.182  0.00  0.00    +0.000 N 
ATOM     15  H   UNL     1       6.233   2.961  16.800  0.00  0.00    +0.000 HD
ENDBRANCH   1  14
TORSDOF 2
ENDMDL
MODEL 5
REMARK VINA RESULT:      -6.1      1.503      1.944
REMARK  Name = 
REMARK  6 active torsions:
REMARK  status: ('A' for Active; 'I' for Inactive)
REMARK    1  A    between atoms: C_1  and  N_2
REMARK    2  A    between atoms: N_2  and  C_3
REMARK    3  A    between atoms: C_8  and  C_9
REMARK    4  A    between atoms: C_9  and  C_10
REMARK    5  A    between atoms: C_9  and  C_11
REMARK    6  A    between atoms: C_9  and  C_12
REMARK                            x       y       z     vdW  Elec       q    Type
REMARK                         _______ _______ _______ _____ _____    ______ ____
ROOT
ATOM      1  C   UNL     1       4.716   4.286  16.972  0.00  0.00    +0.000 C 
ATOM      2  C   UNL     1       4.609   5.616  16.913  0.00  0.00    +0.000 C 
ATOM      3  C   UNL     1       3.632   6.357  17.709  0.00  0.00    +0.000 C 
ATOM      4  O   UNL     1       3.562   7.577  17.655  0.00  0.00    +0.000 OA
ATOM      5  C   UNL     1       2.733   5.584  18.576  0.00  0.00    +0.000 C 
ATOM      6  C   UNL     1       2.762   4.243  18.693  0.00  0.00    +0.000 C 
ATOM      7  C   UNL     1       3.790   3.504  17.885  0.00  0.00    +0.000 C 
ATOM      8  O   UNL     1       3.919   2.282  17.951  0.00  0.00    +0.000 OA
ENDROOT
BRANCH   6   9
ATOM      9  C   UNL     1       1.793   3.449  19.599  0.00  0.00    +0.000 C 
ATOM     10  C   UNL     1       2.540   2.578  20.646  0.00  0.00    +0.000 C 
ATOM     11  C   UNL     1       0.888   4.411  20.395  0.00  0.00    +0.000 C 
ATOM     12  C   UNL     1       0.917   2.476  18.781  0.00  0.00    +0.000 C 
ENDBRANCH   6   9
BRANCH   1  14
ATOM     13  C   UNL     1       6.123   3.878  14.919  0.00  0.00    +0.000 C 
ATOM     14  N   UNL     1       5.639   3.536  16.241  0.00  0.00    +0.000 N 
ATOM     15  H   UNL     1       6.348   3.133  16.863  0.00  0.00    +0.000 HD
ENDBRANCH   1  14
TORSDOF 2
ENDMDL
MODEL 6
REMARK VINA RESULT:      -6.1      1.513      1.750
REMARK  Name = 
REMARK  6 active torsions:
REMARK  status: ('A' for Active; 'I' for Inactive)
REMARK    1  A    between atoms: C_1  and  N_2
REMARK    2  A    between atoms: N_2  and  C_3
REMARK    3  A    between atoms: C_8  and  C_9
REMARK    4  A    between atoms: C_9  and  C_10
REMARK    5  A    between atoms: C_9  and  C_11
REMARK    6  A    between atoms: C_9  and  C_12
REMARK                            x       y       z     vdW  Elec       q    Type
REMARK                         _______ _______ _______ _____ _____    ______ ____
ROOT
ATOM      1  C   UNL     1       4.710   4.291  16.922  0.00  0.00    +0.000 C 
ATOM      2  C   UNL     1       4.609   5.622  16.877  0.00  0.00    +0.000 C 
ATOM      3  C   UNL     1       3.652   6.361  17.700  0.00  0.00    +0.000 C 
ATOM      4  O   UNL     1       3.589   7.582  17.661  0.00  0.00    +0.000 OA
ATOM      5  C   UNL     1       2.766   5.584  18.577  0.00  0.00    +0.000 C 
ATOM      6  C   UNL     1       2.790   4.242  18.680  0.00  0.00    +0.000 C 
ATOM      7  C   UNL     1       3.797   3.505  17.845  0.00  0.00    +0.000 C 
ATOM      8  O   UNL     1       3.920   2.282  17.896  0.00  0.00    +0.000 OA
ENDROOT
BRANCH   6   9
ATOM      9  C   UNL     1       1.835   3.444  19.598  0.00  0.00    +0.000 C 
ATOM     10  C   UNL     1       0.921   2.473  18.802  0.00  0.00    +0.000 C 
ATOM     11  C   UNL     1       2.638   2.577  20.588  0.00  0.00    +0.000 C 
ATOM     12  C   UNL     1       0.887   4.376  20.382  0.00  0.00    +0.000 C 
ENDBRANCH   6   9
BRANCH   1  14
ATOM     13  C   UNL     1       6.242   3.996  14.941  0.00  0.00    +0.000 C 
ATOM     14  N   UNL     1       5.613   3.543  16.164  0.00  0.00    +0.000 N 
ATOM     15  H   UNL     1       6.221   2.989  16.776  0.00  0.00    +0.000 HD
ENDBRANCH   1  14
TORSDOF 2
ENDMDL
MODEL 7
REMARK VINA RESULT:      -6.0      1.653      4.541
REMARK  Name = 
REMARK  6 active torsions:
REMARK  status: ('A' for Active; 'I' for Inactive)
REMARK    1  A    between atoms: C_1  and  N_2
REMARK    2  A    between atoms: N_2  and  C_3
REMARK    3  A    between atoms: C_8  and  C_9
REMARK    4  A    between atoms: C_9  and  C_10
REMARK    5  A    between atoms: C_9  and  C_11
REMARK    6  A    between atoms: C_9  and  C_12
REMARK                            x       y       z     vdW  Elec       q    Type
REMARK                         _______ _______ _______ _____ _____    ______ ____
ROOT
ATOM      1  C   UNL     1       3.343   4.538  19.416  0.00  0.00    +0.000 C 
ATOM      2  C   UNL     1       2.569   5.537  18.983  0.00  0.00    +0.000 C 
ATOM      3  C   UNL     1       3.101   6.655  18.205  0.00  0.00    +0.000 C 
ATOM      4  O   UNL     1       2.372   7.550  17.800  0.00  0.00    +0.000 OA
ATOM      5  C   UNL     1       4.543   6.667  17.926  0.00  0.00    +0.000 C 
ATOM      6  C   UNL     1       5.399   5.710  18.329  0.00  0.00    +0.000 C 
ATOM      7  C   UNL     1       4.829   4.558  19.106  0.00  0.00    +0.000 C 
ATOM      8  O   UNL     1       5.525   3.617  19.486  0.00  0.00    +0.000 OA
ENDROOT
BRANCH   6   9
ATOM      9  C   UNL     1       6.917   5.752  18.038  0.00  0.00    +0.000 C 
ATOM     10  C   UNL     1       7.347   7.058  17.314  0.00  0.00    +0.000 C 
ATOM     11  C   UNL     1       7.720   5.697  19.354  0.00  0.00    +0.000 C 
ATOM     12  C   UNL     1       7.354   4.591  17.120  0.00  0.00    +0.000 C 
ENDBRANCH   6   9
BRANCH   1  14
ATOM     13  C   UNL     1       2.170   3.536  21.410  0.00  0.00    +0.000 C 
ATOM     14  N   UNL     1       2.882   3.445  20.152  0.00  0.00    +0.000 N 
ATOM     15  H   UNL     1       2.548   2.706  19.526  0.00  0.00    +0.000 HD
ENDBRANCH   1  14
TORSDOF 2
ENDMDL
MODEL 8
REMARK VINA RESULT:      -6.0      1.649      4.526
REMARK  Name = 
REMARK  6 active torsions:
REMARK  status: ('A' for Active; 'I' for Inactive)
REMARK    1  A    between atoms: C_1  and  N_2
REMARK    2  A    between atoms: N_2  and  C_3
REMARK    3  A    between atoms: C_8  and  C_9
REMARK    4  A    between atoms: C_9  and  C_10
REMARK    5  A    between atoms: C_9  and  C_11
REMARK    6  A    between atoms: C_9  and  C_12
REMARK                            x       y       z     vdW  Elec       q    Type
REMARK                         _______ _______ _______ _____ _____    ______ ____
ROOT
ATOM      1  C   UNL     1       3.366   4.547  19.426  0.00  0.00    +0.000 C 
ATOM      2  C   UNL     1       2.587   5.543  18.995  0.00  0.00    +0.000 C 
ATOM      3  C   UNL     1       3.111   6.661  18.212  0.00  0.00    +0.000 C 
ATOM      4  O   UNL     1       2.378   7.553  17.809  0.00  0.00    +0.000 OA
ATOM      5  C   UNL     1       4.552   6.677  17.927  0.00  0.00    +0.000 C 
ATOM      6  C   UNL     1       5.413   5.723  18.327  0.00  0.00    +0.000 C 
ATOM      7  C   UNL     1       4.850   4.571  19.109  0.00  0.00    +0.000 C 
ATOM      8  O   UNL     1       5.550   3.633  19.488  0.00  0.00    +0.000 OA
ENDROOT
BRANCH   6   9
ATOM      9  C   UNL     1       6.929   5.770  18.030  0.00  0.00    +0.000 C 
ATOM     10  C   UNL     1       7.400   4.572  17.160  0.00  0.00    +0.000 C 
ATOM     11  C   UNL     1       7.286   7.048  17.245  0.00  0.00    +0.000 C 
ATOM     12  C   UNL     1       7.766   5.711  19.326  0.00  0.00    +0.000 C 
ENDBRANCH   6   9
BRANCH   1  14
ATOM     13  C   UNL     1       2.139   3.547  21.389  0.00  0.00    +0.000 C 
ATOM     14  N   UNL     1       2.912   3.455  20.167  0.00  0.00    +0.000 N 
ATOM     15  H   UNL     1       2.633   2.689  19.544  0.00  0.00    +0.000 HD
ENDBRANCH   1  14
TORSDOF 2
ENDMDL
MODEL 9
REMARK VINA RESULT:      -5.9      1.683      4.501
REMARK  Name = 
REMARK  6 active torsions:
REMARK  status: ('A' for Active; 'I' for Inactive)
REMARK    1  A    between atoms: C_1  and  N_2
REMARK    2  A    between atoms: N_2  and  C_3
REMARK    3  A    between atoms: C_8  and  C_9
REMARK    4  A    between atoms: C_9  and  C_10
REMARK    5  A    between atoms: C_9  and  C_11
REMARK    6  A    between atoms: C_9  and  C_12
REMARK                            x       y       z     vdW  Elec       q    Type
REMARK                         _______ _______ _______ _____ _____    ______ ____
ROOT
ATOM      1  C   UNL     1       3.246   4.654  19.283  0.00  0.00    +0.000 C 
ATOM      2  C   UNL     1       2.514   5.676  18.830  0.00  0.00    +0.000 C 
ATOM      3  C   UNL     1       3.102   6.787  18.083  0.00  0.00    +0.000 C 
ATOM      4  O   UNL     1       2.411   7.703  17.660  0.00  0.00    +0.000 OA
ATOM      5  C   UNL     1       4.554   6.765  17.860  0.00  0.00    +0.000 C 
ATOM      6  C   UNL     1       5.370   5.785  18.286  0.00  0.00    +0.000 C 
ATOM      7  C   UNL     1       4.742   4.640  19.030  0.00  0.00    +0.000 C 
ATOM      8  O   UNL     1       5.400   3.679  19.427  0.00  0.00    +0.000 OA
ENDROOT
BRANCH   6   9
ATOM      9  C   UNL     1       6.899   5.792  18.054  0.00  0.00    +0.000 C 
ATOM     10  C   UNL     1       7.700   5.663  19.379  0.00  0.00    +0.000 C 
ATOM     11  C   UNL     1       7.316   4.598  17.172  0.00  0.00    +0.000 C 
ATOM     12  C   UNL     1       7.369   7.107  17.396  0.00  0.00    +0.000 C 
ENDBRANCH   6   9
BRANCH   1  14
ATOM     13  C   UNL     1       2.340   3.597  21.385  0.00  0.00    +0.000 C 
ATOM     14  N   UNL     1       2.731   3.567  19.991  0.00  0.00    +0.000 N 
ATOM     15  H   UNL     1       2.120   3.004  19.390  0.00  0.00    +0.000 HD
ENDBRANCH   1  14
TORSDOF 2
ENDMDL
