MODEL 1
REMARK VINA RESULT:      -8.7      0.000      0.000
REMARK  Name = 
REMARK  11 active torsions:
REMARK  status: ('A' for Active; 'I' for Inactive)
REMARK    1  A    between atoms: C_1  and  C_2
REMARK    2  A    between atoms: C_5  and  S_6
REMARK    3  A    between atoms: S_6  and  C_7
REMARK    4  A    between atoms: C_10  and  N_11
REMARK    5  A    between atoms: N_11  and  S_12
REMARK    6  A    between atoms: S_12  and  C_13
REMARK    7  A    between atoms: C_18  and  N_19
REMARK    8  A    between atoms: N_19  and  C_20
REMARK    9  A    between atoms: C_26  and  C_27
REMARK   10  A    between atoms: C_27  and  C_28
REMARK   11  A    between atoms: C_27  and  C_29
REMARK                            x       y       z     vdW  Elec       q    Type
REMARK                         _______ _______ _______ _____ _____    ______ ____
ROOT
ATOM      1  C   UNL     1       1.831   2.092  17.941  0.00  0.00    +0.000 C 
ATOM      2  C   UNL     1       1.927   3.360  18.735  0.00  0.00    +0.000 A 
ATOM      3  C   UNL     1       0.919   3.755  19.612  0.00  0.00    +0.000 A 
ATOM      4  C   UNL     1       1.026   4.963  20.307  0.00  0.00    +0.000 A 
ATOM      5  C   UNL     1       2.142   5.800  20.135  0.00  0.00    +0.000 A 
ATOM      6  C   UNL     1       3.203   5.385  19.298  0.00  0.00    +0.000 A 
ATOM      7  C   UNL     1       3.050   4.182  18.582  0.00  0.00    +0.000 A 
ENDROOT
BRANCH   6   8
ATOM      8  N   UNL     1       4.351   6.196  19.069  0.00  0.00    +0.000 N 
ATOM      9  H   UNL     1       4.426   6.949  19.748  0.00  0.00    +0.000 HD
BRANCH   8  10
ATOM     10  C   UNL     1       5.639   5.720  18.701  0.00  0.00    +0.000 A 
ATOM     11  N   UNL     1       6.534   5.483  19.674  0.00  0.00    +0.000 NA
ATOM     12  C   UNL     1       7.710   4.980  19.301  0.00  0.00    +0.000 A 
ATOM     13  N   UNL     1       8.073   4.673  18.057  0.00  0.00    +0.000 NA
ATOM     14  C   UNL     1       7.193   4.903  17.097  0.00  0.00    +0.000 A 
ATOM     15  N   UNL     1       7.556   4.546  15.861  0.00  0.00    +0.000 NA
ATOM     16  C   UNL     1       6.715   4.730  14.816  0.00  0.00    +0.000 A 
ATOM     17  C   UNL     1       5.465   5.310  14.978  0.00  0.00    +0.000 A 
ATOM     18  C   UNL     1       5.071   5.683  16.257  0.00  0.00    +0.000 A 
ATOM     19  C   UNL     1       5.940   5.467  17.350  0.00  0.00    +0.000 A 
BRANCH  16  20
ATOM     20  C   UNL     1       7.185   4.274  13.446  0.00  0.00    +0.000 C 
ATOM     21  C   UNL     1       6.056   3.570  12.691  0.00  0.00    +0.000 C 
ATOM     22  C   UNL     1       7.734   5.441  12.622  0.00  0.00    +0.000 C 
ENDBRANCH  16  20
ENDBRANCH   8  10
ENDBRANCH   6   8
BRANCH   5  23
ATOM     23  S   UNL     1       2.233   7.330  21.065  0.00  0.00    +0.000 S 
BRANCH  23  24
ATOM     24  C   UNL     1       1.373   8.538  20.059  0.00  0.00    +0.000 A 
ATOM     25  C   UNL     1       1.600   8.524  18.675  0.00  0.00    +0.000 A 
ATOM     26  C   UNL     1       0.848   9.331  17.815  0.00  0.00    +0.000 A 
ATOM     27  C   UNL     1      -0.134  10.172  18.330  0.00  0.00    +0.000 A 
ATOM     28  C   UNL     1      -0.348  10.225  19.706  0.00  0.00    +0.000 A 
ATOM     29  C   UNL     1       0.404   9.411  20.568  0.00  0.00    +0.000 A 
BRANCH  27  30
ATOM     30  N   UNL     1      -0.946  10.916  17.422  0.00  0.00    +0.000 N 
ATOM     31  H   UNL     1      -0.878  11.932  17.498  0.00  0.00    +0.000 HD
BRANCH  30  32
ATOM     32  S   UNL     1      -2.577  10.475  17.288  0.00  0.00    +0.000 S 
ATOM     33  C   UNL     1      -2.716  10.140  15.544  0.00  0.00    +0.000 C 
ATOM     34  O   UNL     1      -2.830   9.257  18.025  0.00  0.00    +0.000 OA
ATOM     35  O   UNL     1      -3.325  11.683  17.559  0.00  0.00    +0.000 OA
ENDBRANCH  30  32
ENDBRANCH  27  30
ENDBRANCH  23  24
ENDBRANCH   5  23
TORSDOF 7
ENDMDL
MODEL 2
REMARK VINA RESULT:      -8.4      2.304      2.606
REMARK  Name = 
REMARK  11 active torsions:
REMARK  status: ('A' for Active; 'I' for Inactive)
REMARK    1  A    between atoms: C_1  and  C_2
REMARK    2  A    between atoms: C_5  and  S_6
REMARK    3  A    between atoms: S_6  and  C_7
REMARK    4  A    between atoms: C_10  and  N_11
REMARK    5  A    between atoms: N_11  and  S_12
REMARK    6  A    between atoms: S_12  and  C_13
REMARK    7  A    between atoms: C_18  and  N_19
REMARK    8  A    between atoms: N_19  and  C_20
REMARK    9  A    between atoms: C_26  and  C_27
REMARK   10  A    between atoms: C_27  and  C_28
REMARK   11  A    between atoms: C_27  and  C_29
REMARK                            x       y       z     vdW  Elec       q    Type
REMARK                         _______ _______ _______ _____ _____    ______ ____
ROOT
ATOM      1  C   UNL     1       1.730   1.384  19.585  0.00  0.00    +0.000 C 
ATOM      2  C   UNL     1       2.133   2.783  19.222  0.00  0.00    +0.000 A 
ATOM      3  C   UNL     1       1.213   3.706  18.730  0.00  0.00    +0.000 A 
ATOM      4  C   UNL     1       1.632   4.989  18.366  0.00  0.00    +0.000 A 
ATOM      5  C   UNL     1       2.980   5.371  18.485  0.00  0.00    +0.000 A 
ATOM      6  C   UNL     1       3.914   4.468  19.042  0.00  0.00    +0.000 A 
ATOM      7  C   UNL     1       3.470   3.170  19.365  0.00  0.00    +0.000 A 
ENDROOT
BRANCH   6   8
ATOM      8  N   UNL     1       5.295   4.788  19.173  0.00  0.00    +0.000 N 
ATOM      9  H   UNL     1       5.818   4.042  19.625  0.00  0.00    +0.000 HD
BRANCH   8  10
ATOM     10  C   UNL     1       6.091   5.435  18.188  0.00  0.00    +0.000 A 
ATOM     11  N   UNL     1       6.862   6.467  18.568  0.00  0.00    +0.000 NA
ATOM     12  C   UNL     1       7.642   7.011  17.635  0.00  0.00    +0.000 A 
ATOM     13  N   UNL     1       7.740   6.616  16.367  0.00  0.00    +0.000 NA
ATOM     14  C   UNL     1       6.984   5.600  15.991  0.00  0.00    +0.000 A 
ATOM     15  N   UNL     1       7.129   5.187  14.728  0.00  0.00    +0.000 NA
ATOM     16  C   UNL     1       6.406   4.143  14.256  0.00  0.00    +0.000 A 
ATOM     17  C   UNL     1       5.479   3.480  15.047  0.00  0.00    +0.000 A 
ATOM     18  C   UNL     1       5.318   3.895  16.364  0.00  0.00    +0.000 A 
ATOM     19  C   UNL     1       6.092   4.967  16.862  0.00  0.00    +0.000 A 
BRANCH  16  20
ATOM     20  C   UNL     1       6.646   3.713  12.820  0.00  0.00    +0.000 C 
ATOM     21  C   UNL     1       5.332   3.318  12.144  0.00  0.00    +0.000 C 
ATOM     22  C   UNL     1       7.354   4.807  12.016  0.00  0.00    +0.000 C 
ENDBRANCH  16  20
ENDBRANCH   8  10
ENDBRANCH   6   8
BRANCH   5  23
ATOM     23  S   UNL     1       3.457   7.034  18.018  0.00  0.00    +0.000 S 
BRANCH  23  24
ATOM     24  C   UNL     1       2.167   8.090  18.675  0.00  0.00    +0.000 A 
ATOM     25  C   UNL     1       1.890   8.013  20.048  0.00  0.00    +0.000 A 
ATOM     26  C   UNL     1       1.009   8.916  20.654  0.00  0.00    +0.000 A 
ATOM     27  C   UNL     1       0.386   9.900  19.893  0.00  0.00    +0.000 A 
ATOM     28  C   UNL     1       0.624   9.968  18.521  0.00  0.00    +0.000 A 
ATOM     29  C   UNL     1       1.512   9.066  17.914  0.00  0.00    +0.000 A 
BRANCH  27  30
ATOM     30  N   UNL     1      -0.435  10.861  20.553  0.00  0.00    +0.000 N 
ATOM     31  H   UNL     1      -1.376  10.978  20.171  0.00  0.00    +0.000 HD
BRANCH  30  32
ATOM     32  S   UNL     1       0.235  12.388  20.858  0.00  0.00    +0.000 S 
ATOM     33  C   UNL     1      -0.678  13.414  19.724  0.00  0.00    +0.000 C 
ATOM     34  O   UNL     1      -0.057  12.803  22.212  0.00  0.00    +0.000 OA
ATOM     35  O   UNL     1       1.597  12.313  20.376  0.00  0.00    +0.000 OA
ENDBRANCH  30  32
ENDBRANCH  27  30
ENDBRANCH  23  24
ENDBRANCH   5  23
TORSDOF 7
ENDMDL
MODEL 3
REMARK VINA RESULT:      -8.4      0.775      1.415
REMARK  Name = 
REMARK  11 active torsions:
REMARK  status: ('A' for Active; 'I' for Inactive)
REMARK    1  A    between atoms: C_1  and  C_2
REMARK    2  A    between atoms: C_5  and  S_6
REMARK    3  A    between atoms: S_6  and  C_7
REMARK    4  A    between atoms: C_10  and  N_11
REMARK    5  A    between atoms: N_11  and  S_12
REMARK    6  A    between atoms: S_12  and  C_13
REMARK    7  A    between atoms: C_18  and  N_19
REMARK    8  A    between atoms: N_19  and  C_20
REMARK    9  A    between atoms: C_26  and  C_27
REMARK   10  A    between atoms: C_27  and  C_28
REMARK   11  A    between atoms: C_27  and  C_29
REMARK                            x       y       z     vdW  Elec       q    Type
REMARK                         _______ _______ _______ _____ _____    ______ ____
ROOT
ATOM      1  C   UNL     1       2.093   1.859  18.684  0.00  0.00    +0.000 C 
ATOM      2  C   UNL     1       2.115   3.229  19.296  0.00  0.00    +0.000 A 
ATOM      3  C   UNL     1       1.042   3.718  20.038  0.00  0.00    +0.000 A 
ATOM      4  C   UNL     1       1.082   5.014  20.560  0.00  0.00    +0.000 A 
ATOM      5  C   UNL     1       2.194   5.846  20.345  0.00  0.00    +0.000 A 
ATOM      6  C   UNL     1       3.317   5.343  19.649  0.00  0.00    +0.000 A 
ATOM      7  C   UNL     1       3.233   4.048  19.103  0.00  0.00    +0.000 A 
ENDROOT
BRANCH   6   8
ATOM      8  N   UNL     1       4.466   6.142  19.384  0.00  0.00    +0.000 N 
ATOM      9  H   UNL     1       4.637   6.819  20.124  0.00  0.00    +0.000 HD
BRANCH   8  10
ATOM     10  C   UNL     1       5.692   5.672  18.839  0.00  0.00    +0.000 A 
ATOM     11  N   UNL     1       6.653   5.267  19.687  0.00  0.00    +0.000 NA
ATOM     12  C   UNL     1       7.766   4.774  19.143  0.00  0.00    +0.000 A 
ATOM     13  N   UNL     1       8.006   4.630  17.841  0.00  0.00    +0.000 NA
ATOM     14  C   UNL     1       7.061   5.026  17.006  0.00  0.00    +0.000 A 
ATOM     15  N   UNL     1       7.300   4.832  15.705  0.00  0.00    +0.000 NA
ATOM     16  C   UNL     1       6.384   5.193  14.775  0.00  0.00    +0.000 A 
ATOM     17  C   UNL     1       5.183   5.793  15.126  0.00  0.00    +0.000 A 
ATOM     18  C   UNL     1       4.919   5.999  16.475  0.00  0.00    +0.000 A 
ATOM     19  C   UNL     1       5.865   5.598  17.446  0.00  0.00    +0.000 A 
BRANCH  16  20
ATOM     20  C   UNL     1       6.713   4.914  13.319  0.00  0.00    +0.000 C 
ATOM     21  C   UNL     1       8.162   5.291  13.007  0.00  0.00    +0.000 C 
ATOM     22  C   UNL     1       6.450   3.451  12.953  0.00  0.00    +0.000 C 
ENDBRANCH  16  20
ENDBRANCH   8  10
ENDBRANCH   6   8
BRANCH   5  23
ATOM     23  S   UNL     1       2.197   7.493  21.052  0.00  0.00    +0.000 S 
BRANCH  23  24
ATOM     24  C   UNL     1       1.159   8.468  19.965  0.00  0.00    +0.000 A 
ATOM     25  C   UNL     1       0.105   9.194  20.538  0.00  0.00    +0.000 A 
ATOM     26  C   UNL     1      -0.645  10.096  19.775  0.00  0.00    +0.000 A 
ATOM     27  C   UNL     1      -0.356  10.274  18.426  0.00  0.00    +0.000 A 
ATOM     28  C   UNL     1       0.666   9.535  17.832  0.00  0.00    +0.000 A 
ATOM     29  C   UNL     1       1.421   8.634  18.600  0.00  0.00    +0.000 A 
BRANCH  27  30
ATOM     30  N   UNL     1      -1.077  11.266  17.695  0.00  0.00    +0.000 N 
ATOM     31  H   UNL     1      -1.184  12.169  18.161  0.00  0.00    +0.000 HD
BRANCH  30  32
ATOM     32  S   UNL     1      -2.560  10.812  17.011  0.00  0.00    +0.000 S 
ATOM     33  C   UNL     1      -3.715  11.699  18.036  0.00  0.00    +0.000 C 
ATOM     34  O   UNL     1      -2.657  11.303  15.654  0.00  0.00    +0.000 OA
ATOM     35  O   UNL     1      -2.706   9.404  17.309  0.00  0.00    +0.000 OA
ENDBRANCH  30  32
ENDBRANCH  27  30
ENDBRANCH  23  24
ENDBRANCH   5  23
TORSDOF 7
ENDMDL
MODEL 4
REMARK VINA RESULT:      -8.3      3.990     10.263
REMARK  Name = 
REMARK  11 active torsions:
REMARK  status: ('A' for Active; 'I' for Inactive)
REMARK    1  A    between atoms: C_1  and  C_2
REMARK    2  A    between atoms: C_5  and  S_6
REMARK    3  A    between atoms: S_6  and  C_7
REMARK    4  A    between atoms: C_10  and  N_11
REMARK    5  A    between atoms: N_11  and  S_12
REMARK    6  A    between atoms: S_12  and  C_13
REMARK    7  A    between atoms: C_18  and  N_19
REMARK    8  A    between atoms: N_19  and  C_20
REMARK    9  A    between atoms: C_26  and  C_27
REMARK   10  A    between atoms: C_27  and  C_28
REMARK   11  A    between atoms: C_27  and  C_29
REMARK                            x       y       z     vdW  Elec       q    Type
REMARK                         _______ _______ _______ _____ _____    ______ ____
ROOT
ATOM      1  C   UNL     1      -0.324   9.516  23.435  0.00  0.00    +0.000 C 
ATOM      2  C   UNL     1       0.221   9.333  22.050  0.00  0.00    +0.000 A 
ATOM      3  C   UNL     1       1.203   8.386  21.767  0.00  0.00    +0.000 A 
ATOM      4  C   UNL     1       1.715   8.269  20.472  0.00  0.00    +0.000 A 
ATOM      5  C   UNL     1       1.257   9.102  19.436  0.00  0.00    +0.000 A 
ATOM      6  C   UNL     1       0.217  10.025  19.691  0.00  0.00    +0.000 A 
ATOM      7  C   UNL     1      -0.253  10.145  21.014  0.00  0.00    +0.000 A 
ENDROOT
BRANCH   6   8
ATOM      8  N   UNL     1      -0.278  10.908  18.689  0.00  0.00    +0.000 N 
ATOM      9  H   UNL     1       0.450  11.185  18.035  0.00  0.00    +0.000 HD
BRANCH   8  10
ATOM     10  C   UNL     1      -1.531  10.790  18.029  0.00  0.00    +0.000 A 
ATOM     11  N   UNL     1      -1.609  10.001  16.944  0.00  0.00    +0.000 NA
ATOM     12  C   UNL     1      -2.811   9.863  16.385  0.00  0.00    +0.000 A 
ATOM     13  N   UNL     1      -3.943  10.419  16.812  0.00  0.00    +0.000 NA
ATOM     14  C   UNL     1      -3.869  11.195  17.880  0.00  0.00    +0.000 A 
ATOM     15  N   UNL     1      -5.022  11.707  18.323  0.00  0.00    +0.000 NA
ATOM     16  C   UNL     1      -5.048  12.502  19.419  0.00  0.00    +0.000 A 
ATOM     17  C   UNL     1      -3.890  12.831  20.109  0.00  0.00    +0.000 A 
ATOM     18  C   UNL     1      -2.683  12.304  19.664  0.00  0.00    +0.000 A 
ATOM     19  C   UNL     1      -2.662  11.454  18.535  0.00  0.00    +0.000 A 
BRANCH  16  20
ATOM     20  C   UNL     1      -6.398  13.023  19.878  0.00  0.00    +0.000 C 
ATOM     21  C   UNL     1      -7.376  11.870  20.108  0.00  0.00    +0.000 C 
ATOM     22  C   UNL     1      -6.270  13.877  21.142  0.00  0.00    +0.000 C 
ENDBRANCH  16  20
ENDBRANCH   8  10
ENDBRANCH   6   8
BRANCH   5  23
ATOM     23  S   UNL     1       1.938   8.898  17.791  0.00  0.00    +0.000 S 
BRANCH  23  24
ATOM     24  C   UNL     1       2.717   7.284  17.807  0.00  0.00    +0.000 A 
ATOM     25  C   UNL     1       4.109   7.226  17.970  0.00  0.00    +0.000 A 
ATOM     26  C   UNL     1       4.761   6.001  18.147  0.00  0.00    +0.000 A 
ATOM     27  C   UNL     1       4.030   4.817  18.153  0.00  0.00    +0.000 A 
ATOM     28  C   UNL     1       2.650   4.854  17.956  0.00  0.00    +0.000 A 
ATOM     29  C   UNL     1       1.996   6.084  17.784  0.00  0.00    +0.000 A 
BRANCH  27  30
ATOM     30  N   UNL     1       4.709   3.593  18.426  0.00  0.00    +0.000 N 
ATOM     31  H   UNL     1       4.923   3.013  17.612  0.00  0.00    +0.000 HD
BRANCH  30  32
ATOM     32  S   UNL     1       4.089   2.611  19.661  0.00  0.00    +0.000 S 
ATOM     33  C   UNL     1       3.091   1.461  18.738  0.00  0.00    +0.000 C 
ATOM     34  O   UNL     1       5.160   1.891  20.314  0.00  0.00    +0.000 OA
ATOM     35  O   UNL     1       3.191   3.460  20.413  0.00  0.00    +0.000 OA
ENDBRANCH  30  32
ENDBRANCH  27  30
ENDBRANCH  23  24
ENDBRANCH   5  23
TORSDOF 7
ENDMDL
MODEL 5
REMARK VINA RESULT:      -8.2      4.210      6.803
REMARK  Name = 
REMARK  11 active torsions:
REMARK  status: ('A' for Active; 'I' for Inactive)
REMARK    1  A    between atoms: C_1  and  C_2
REMARK    2  A    between atoms: C_5  and  S_6
REMARK    3  A    between atoms: S_6  and  C_7
REMARK    4  A    between atoms: C_10  and  N_11
REMARK    5  A    between atoms: N_11  and  S_12
REMARK    6  A    between atoms: S_12  and  C_13
REMARK    7  A    between atoms: C_18  and  N_19
REMARK    8  A    between atoms: N_19  and  C_20
REMARK    9  A    between atoms: C_26  and  C_27
REMARK   10  A    between atoms: C_27  and  C_28
REMARK   11  A    between atoms: C_27  and  C_29
REMARK                            x       y       z     vdW  Elec       q    Type
REMARK                         _______ _______ _______ _____ _____    ______ ____
ROOT
ATOM      1  C   UNL     1      -3.019  10.123  15.978  0.00  0.00    +0.000 C 
ATOM      2  C   UNL     1      -2.427  10.679  17.239  0.00  0.00    +0.000 A 
ATOM      3  C   UNL     1      -3.120  11.587  18.036  0.00  0.00    +0.000 A 
ATOM      4  C   UNL     1      -2.522  12.114  19.185  0.00  0.00    +0.000 A 
ATOM      5  C   UNL     1      -1.217  11.744  19.554  0.00  0.00    +0.000 A 
ATOM      6  C   UNL     1      -0.524  10.776  18.792  0.00  0.00    +0.000 A 
ATOM      7  C   UNL     1      -1.137  10.291  17.620  0.00  0.00    +0.000 A 
ENDROOT
BRANCH   6   8
ATOM      8  N   UNL     1       0.806  10.373  19.105  0.00  0.00    +0.000 N 
ATOM      9  H   UNL     1       1.359  11.142  19.475  0.00  0.00    +0.000 HD
BRANCH   8  10
ATOM     10  C   UNL     1       1.175   9.146  19.720  0.00  0.00    +0.000 A 
ATOM     11  N   UNL     1       0.636   8.843  20.913  0.00  0.00    +0.000 NA
ATOM     12  C   UNL     1       0.954   7.658  21.433  0.00  0.00    +0.000 A 
ATOM     13  N   UNL     1       1.741   6.741  20.874  0.00  0.00    +0.000 NA
ATOM     14  C   UNL     1       2.271   7.036  19.699  0.00  0.00    +0.000 A 
ATOM     15  N   UNL     1       3.020   6.086  19.131  0.00  0.00    +0.000 NA
ATOM     16  C   UNL     1       3.594   6.292  17.921  0.00  0.00    +0.000 A 
ATOM     17  C   UNL     1       3.447   7.491  17.239  0.00  0.00    +0.000 A 
ATOM     18  C   UNL     1       2.668   8.488  17.814  0.00  0.00    +0.000 A 
ATOM     19  C   UNL     1       2.050   8.261  19.065  0.00  0.00    +0.000 A 
BRANCH  16  20
ATOM     20  C   UNL     1       4.407   5.156  17.326  0.00  0.00    +0.000 C 
ATOM     21  C   UNL     1       3.534   3.918  17.111  0.00  0.00    +0.000 C 
ATOM     22  C   UNL     1       5.077   5.572  16.014  0.00  0.00    +0.000 C 
ENDBRANCH  16  20
ENDBRANCH   8  10
ENDBRANCH   6   8
BRANCH   5  23
ATOM     23  S   UNL     1      -0.506  12.439  21.046  0.00  0.00    +0.000 S 
BRANCH  23  24
ATOM     24  C   UNL     1      -1.906  12.813  22.099  0.00  0.00    +0.000 A 
ATOM     25  C   UNL     1      -2.615  13.999  21.855  0.00  0.00    +0.000 A 
ATOM     26  C   UNL     1      -3.807  14.276  22.534  0.00  0.00    +0.000 A 
ATOM     27  C   UNL     1      -4.299  13.375  23.473  0.00  0.00    +0.000 A 
ATOM     28  C   UNL     1      -3.589  12.208  23.753  0.00  0.00    +0.000 A 
ATOM     29  C   UNL     1      -2.396  11.928  23.067  0.00  0.00    +0.000 A 
BRANCH  27  30
ATOM     30  N   UNL     1      -5.562  13.640  24.082  0.00  0.00    +0.000 N 
ATOM     31  H   UNL     1      -5.648  13.365  25.062  0.00  0.00    +0.000 HD
BRANCH  30  32
ATOM     32  S   UNL     1      -6.954  13.157  23.244  0.00  0.00    +0.000 S 
ATOM     33  C   UNL     1      -7.541  14.709  22.597  0.00  0.00    +0.000 C 
ATOM     34  O   UNL     1      -6.601  12.288  22.143  0.00  0.00    +0.000 OA
ATOM     35  O   UNL     1      -7.888  12.730  24.264  0.00  0.00    +0.000 OA
ENDBRANCH  30  32
ENDBRANCH  27  30
ENDBRANCH  23  24
ENDBRANCH   5  23
TORSDOF 7
ENDMDL
MODEL 6
REMARK VINA RESULT:      -8.0      1.837      2.448
REMARK  Name = 
REMARK  11 active torsions:
REMARK  status: ('A' for Active; 'I' for Inactive)
REMARK    1  A    between atoms: C_1  and  C_2
REMARK    2  A    between atoms: C_5  and  S_6
REMARK    3  A    between atoms: S_6  and  C_7
REMARK    4  A    between atoms: C_10  and  N_11
REMARK    5  A    between atoms: N_11  and  S_12
REMARK    6  A    between atoms: S_12  and  C_13
REMARK    7  A    between atoms: C_18  and  N_19
REMARK    8  A    between atoms: N_19  and  C_20
REMARK    9  A    between atoms: C_26  and  C_27
REMARK   10  A    between atoms: C_27  and  C_28
REMARK   11  A    between atoms: C_27  and  C_29
REMARK                            x       y       z     vdW  Elec       q    Type
REMARK                         _______ _______ _______ _____ _____    ______ ____
ROOT
ATOM      1  C   UNL     1       1.672   1.777  22.026  0.00  0.00    +0.000 C 
ATOM      2  C   UNL     1       2.073   2.859  21.069  0.00  0.00    +0.000 A 
ATOM      3  C   UNL     1       1.325   4.026  20.927  0.00  0.00    +0.000 A 
ATOM      4  C   UNL     1       1.708   4.997  19.996  0.00  0.00    +0.000 A 
ATOM      5  C   UNL     1       2.844   4.815  19.188  0.00  0.00    +0.000 A 
ATOM      6  C   UNL     1       3.649   3.667  19.364  0.00  0.00    +0.000 A 
ATOM      7  C   UNL     1       3.218   2.690  20.282  0.00  0.00    +0.000 A 
ENDROOT
BRANCH   6   8
ATOM      8  N   UNL     1       4.801   3.418  18.565  0.00  0.00    +0.000 N 
ATOM      9  H   UNL     1       4.605   2.767  17.807  0.00  0.00    +0.000 HD
BRANCH   8  10
ATOM     10  C   UNL     1       5.751   4.393  18.157  0.00  0.00    +0.000 A 
ATOM     11  N   UNL     1       6.400   5.087  19.107  0.00  0.00    +0.000 NA
ATOM     12  C   UNL     1       7.328   5.949  18.694  0.00  0.00    +0.000 A 
ATOM     13  N   UNL     1       7.685   6.172  17.430  0.00  0.00    +0.000 NA
ATOM     14  C   UNL     1       7.050   5.489  16.494  0.00  0.00    +0.000 A 
ATOM     15  N   UNL     1       7.452   5.691  15.235  0.00  0.00    +0.000 NA
ATOM     16  C   UNL     1       6.869   5.026  14.210  0.00  0.00    +0.000 A 
ATOM     17  C   UNL     1       5.828   4.132  14.417  0.00  0.00    +0.000 A 
ATOM     18  C   UNL     1       5.400   3.908  15.721  0.00  0.00    +0.000 A 
ATOM     19  C   UNL     1       6.027   4.584  16.791  0.00  0.00    +0.000 A 
BRANCH  16  20
ATOM     20  C   UNL     1       7.399   5.286  12.811  0.00  0.00    +0.000 C 
ATOM     21  C   UNL     1       8.837   5.807  12.863  0.00  0.00    +0.000 C 
ATOM     22  C   UNL     1       7.316   4.032  11.936  0.00  0.00    +0.000 C 
ENDBRANCH  16  20
ENDBRANCH   8  10
ENDBRANCH   6   8
BRANCH   5  23
ATOM     23  S   UNL     1       3.296   6.101  18.023  0.00  0.00    +0.000 S 
BRANCH  23  24
ATOM     24  C   UNL     1       2.342   7.534  18.518  0.00  0.00    +0.000 A 
ATOM     25  C   UNL     1       2.040   7.686  19.879  0.00  0.00    +0.000 A 
ATOM     26  C   UNL     1       1.438   8.856  20.355  0.00  0.00    +0.000 A 
ATOM     27  C   UNL     1       1.118   9.883  19.474  0.00  0.00    +0.000 A 
ATOM     28  C   UNL     1       1.379   9.734  18.112  0.00  0.00    +0.000 A 
ATOM     29  C   UNL     1       1.989   8.563  17.636  0.00  0.00    +0.000 A 
BRANCH  27  30
ATOM     30  N   UNL     1       0.588  11.099  19.999  0.00  0.00    +0.000 N 
ATOM     31  H   UNL     1       0.395  11.101  21.003  0.00  0.00    +0.000 HD
BRANCH  30  32
ATOM     32  S   UNL     1      -0.717  11.805  19.180  0.00  0.00    +0.000 S 
ATOM     33  C   UNL     1      -1.424  12.834  20.449  0.00  0.00    +0.000 C 
ATOM     34  O   UNL     1      -0.239  12.643  18.102  0.00  0.00    +0.000 OA
ATOM     35  O   UNL     1      -1.645  10.723  18.931  0.00  0.00    +0.000 OA
ENDBRANCH  30  32
ENDBRANCH  27  30
ENDBRANCH  23  24
ENDBRANCH   5  23
TORSDOF 7
ENDMDL
MODEL 7
REMARK VINA RESULT:      -8.0      2.359      2.703
REMARK  Name = 
REMARK  11 active torsions:
REMARK  status: ('A' for Active; 'I' for Inactive)
REMARK    1  A    between atoms: C_1  and  C_2
REMARK    2  A    between atoms: C_5  and  S_6
REMARK    3  A    between atoms: S_6  and  C_7
REMARK    4  A    between atoms: C_10  and  N_11
REMARK    5  A    between atoms: N_11  and  S_12
REMARK    6  A    between atoms: S_12  and  C_13
REMARK    7  A    between atoms: C_18  and  N_19
REMARK    8  A    between atoms: N_19  and  C_20
REMARK    9  A    between atoms: C_26  and  C_27
REMARK   10  A    between atoms: C_27  and  C_28
REMARK   11  A    between atoms: C_27  and  C_29
REMARK                            x       y       z     vdW  Elec       q    Type
REMARK                         _______ _______ _______ _____ _____    ______ ____
ROOT
ATOM      1  C   UNL     1       1.265   1.227  18.948  0.00  0.00    +0.000 C 
ATOM      2  C   UNL     1       1.793   2.614  18.732  0.00  0.00    +0.000 A 
ATOM      3  C   UNL     1       0.975   3.651  18.290  0.00  0.00    +0.000 A 
ATOM      4  C   UNL     1       1.511   4.922  18.063  0.00  0.00    +0.000 A 
ATOM      5  C   UNL     1       2.878   5.178  18.271  0.00  0.00    +0.000 A 
ATOM      6  C   UNL     1       3.709   4.154  18.780  0.00  0.00    +0.000 A 
ATOM      7  C   UNL     1       3.149   2.875  18.963  0.00  0.00    +0.000 A 
ENDROOT
BRANCH   6   8
ATOM      8  N   UNL     1       5.104   4.345  18.995  0.00  0.00    +0.000 N 
ATOM      9  H   UNL     1       5.565   3.487  19.288  0.00  0.00    +0.000 HD
BRANCH   8  10
ATOM     10  C   UNL     1       5.967   5.126  18.178  0.00  0.00    +0.000 A 
ATOM     11  N   UNL     1       6.771   6.022  18.774  0.00  0.00    +0.000 NA
ATOM     12  C   UNL     1       7.611   6.694  17.988  0.00  0.00    +0.000 A 
ATOM     13  N   UNL     1       7.741   6.546  16.671  0.00  0.00    +0.000 NA
ATOM     14  C   UNL     1       6.952   5.664  16.082  0.00  0.00    +0.000 A 
ATOM     15  N   UNL     1       7.127   5.495  14.767  0.00  0.00    +0.000 NA
ATOM     16  C   UNL     1       6.375   4.602  14.081  0.00  0.00    +0.000 A 
ATOM     17  C   UNL     1       5.388   3.850  14.700  0.00  0.00    +0.000 A 
ATOM     18  C   UNL     1       5.195   4.011  16.068  0.00  0.00    +0.000 A 
ATOM     19  C   UNL     1       5.999   4.924  16.787  0.00  0.00    +0.000 A 
BRANCH  16  20
ATOM     20  C   UNL     1       6.651   4.445  12.596  0.00  0.00    +0.000 C 
ATOM     21  C   UNL     1       7.942   5.165  12.204  0.00  0.00    +0.000 C 
ATOM     22  C   UNL     1       6.716   2.970  12.189  0.00  0.00    +0.000 C 
ENDBRANCH  16  20
ENDBRANCH   8  10
ENDBRANCH   6   8
BRANCH   5  23
ATOM     23  S   UNL     1       3.507   6.830  17.979  0.00  0.00    +0.000 S 
BRANCH  23  24
ATOM     24  C   UNL     1       2.404   7.915  18.882  0.00  0.00    +0.000 A 
ATOM     25  C   UNL     1       1.784   8.958  18.178  0.00  0.00    +0.000 A 
ATOM     26  C   UNL     1       0.795   9.743  18.781  0.00  0.00    +0.000 A 
ATOM     27  C   UNL     1       0.422   9.502  20.100  0.00  0.00    +0.000 A 
ATOM     28  C   UNL     1       1.053   8.493  20.825  0.00  0.00    +0.000 A 
ATOM     29  C   UNL     1       2.042   7.702  20.218  0.00  0.00    +0.000 A 
BRANCH  27  30
ATOM     30  N   UNL     1      -0.651  10.259  20.658  0.00  0.00    +0.000 N 
ATOM     31  H   UNL     1      -1.298  10.674  19.985  0.00  0.00    +0.000 HD
BRANCH  30  32
ATOM     32  S   UNL     1      -0.267  11.408  21.843  0.00  0.00    +0.000 S 
ATOM     33  C   UNL     1      -1.552  12.617  21.600  0.00  0.00    +0.000 C 
ATOM     34  O   UNL     1      -0.402  10.833  23.163  0.00  0.00    +0.000 OA
ATOM     35  O   UNL     1       0.978  12.005  21.411  0.00  0.00    +0.000 OA
ENDBRANCH  30  32
ENDBRANCH  27  30
ENDBRANCH  23  24
ENDBRANCH   5  23
TORSDOF 7
ENDMDL
MODEL 8
REMARK VINA RESULT:      -8.0      2.530      2.972
REMARK  Name = 
REMARK  11 active torsions:
REMARK  status: ('A' for Active; 'I' for Inactive)
REMARK    1  A    between atoms: C_1  and  C_2
REMARK    2  A    between atoms: C_5  and  S_6
REMARK    3  A    between atoms: S_6  and  C_7
REMARK    4  A    between atoms: C_10  and  N_11
REMARK    5  A    between atoms: N_11  and  S_12
REMARK    6  A    between atoms: S_12  and  C_13
REMARK    7  A    between atoms: C_18  and  N_19
REMARK    8  A    between atoms: N_19  and  C_20
REMARK    9  A    between atoms: C_26  and  C_27
REMARK   10  A    between atoms: C_27  and  C_28
REMARK   11  A    between atoms: C_27  and  C_29
REMARK                            x       y       z     vdW  Elec       q    Type
REMARK                         _______ _______ _______ _____ _____    ______ ____
ROOT
ATOM      1  C   UNL     1       2.828   2.744  21.065  0.00  0.00    +0.000 C 
ATOM      2  C   UNL     1       2.648   4.134  20.531  0.00  0.00    +0.000 A 
ATOM      3  C   UNL     1       1.474   4.854  20.741  0.00  0.00    +0.000 A 
ATOM      4  C   UNL     1       1.328   6.133  20.196  0.00  0.00    +0.000 A 
ATOM      5  C   UNL     1       2.352   6.713  19.427  0.00  0.00    +0.000 A 
ATOM      6  C   UNL     1       3.574   6.022  19.258  0.00  0.00    +0.000 A 
ATOM      7  C   UNL     1       3.678   4.721  19.787  0.00  0.00    +0.000 A 
ENDROOT
BRANCH   6   8
ATOM      8  N   UNL     1       4.642   6.549  18.477  0.00  0.00    +0.000 N 
ATOM      9  H   UNL     1       4.901   7.487  18.770  0.00  0.00    +0.000 HD
BRANCH   8  10
ATOM     10  C   UNL     1       5.785   5.823  18.043  0.00  0.00    +0.000 A 
ATOM     11  N   UNL     1       6.736   5.534  18.946  0.00  0.00    +0.000 NA
ATOM     12  C   UNL     1       7.764   4.800  18.522  0.00  0.00    +0.000 A 
ATOM     13  N   UNL     1       7.927   4.312  17.293  0.00  0.00    +0.000 NA
ATOM     14  C   UNL     1       6.991   4.595  16.403  0.00  0.00    +0.000 A 
ATOM     15  N   UNL     1       7.146   4.060  15.188  0.00  0.00    +0.000 NA
ATOM     16  C   UNL     1       6.231   4.282  14.215  0.00  0.00    +0.000 A 
ATOM     17  C   UNL     1       5.118   5.082  14.429  0.00  0.00    +0.000 A 
ATOM     18  C   UNL     1       4.939   5.643  15.688  0.00  0.00    +0.000 A 
ATOM     19  C   UNL     1       5.883   5.389  16.709  0.00  0.00    +0.000 A 
BRANCH  16  20
ATOM     20  C   UNL     1       6.460   3.617  12.870  0.00  0.00    +0.000 C 
ATOM     21  C   UNL     1       5.129   3.340  12.167  0.00  0.00    +0.000 C 
ATOM     22  C   UNL     1       7.372   4.460  11.974  0.00  0.00    +0.000 C 
ENDBRANCH  16  20
ENDBRANCH   8  10
ENDBRANCH   6   8
BRANCH   5  23
ATOM     23  S   UNL     1       2.115   8.362  18.766  0.00  0.00    +0.000 S 
BRANCH  23  24
ATOM     24  C   UNL     1       0.997   9.167  19.912  0.00  0.00    +0.000 A 
ATOM     25  C   UNL     1       1.306   9.114  21.279  0.00  0.00    +0.000 A 
ATOM     26  C   UNL     1       0.566   9.850  22.211  0.00  0.00    +0.000 A 
ATOM     27  C   UNL     1      -0.499  10.639  21.789  0.00  0.00    +0.000 A 
ATOM     28  C   UNL     1      -0.841  10.676  20.438  0.00  0.00    +0.000 A 
ATOM     29  C   UNL     1      -0.095   9.942  19.502  0.00  0.00    +0.000 A 
BRANCH  27  30
ATOM     30  N   UNL     1      -1.177  11.448  22.749  0.00  0.00    +0.000 N 
ATOM     31  H   UNL     1      -2.174  11.260  22.861  0.00  0.00    +0.000 HD
BRANCH  30  32
ATOM     32  S   UNL     1      -0.930  13.124  22.677  0.00  0.00    +0.000 S 
ATOM     33  C   UNL     1      -1.970  13.581  21.306  0.00  0.00    +0.000 C 
ATOM     34  O   UNL     1      -1.426  13.756  23.879  0.00  0.00    +0.000 OA
ATOM     35  O   UNL     1       0.444  13.292  22.256  0.00  0.00    +0.000 OA
ENDBRANCH  30  32
ENDBRANCH  27  30
ENDBRANCH  23  24
ENDBRANCH   5  23
TORSDOF 7
ENDMDL
MODEL 9
REMARK VINA RESULT:      -7.9      2.401      2.920
REMARK  Name = 
REMARK  11 active torsions:
REMARK  status: ('A' for Active; 'I' for Inactive)
REMARK    1  A    between atoms: C_1  and  C_2
REMARK    2  A    between atoms: C_5  and  S_6
REMARK    3  A    between atoms: S_6  and  C_7
REMARK    4  A    between atoms: C_10  and  N_11
REMARK    5  A    between atoms: N_11  and  S_12
REMARK    6  A    between atoms: S_12  and  C_13
REMARK    7  A    between atoms: C_18  and  N_19
REMARK    8  A    between atoms: N_19  and  C_20
REMARK    9  A    between atoms: C_26  and  C_27
REMARK   10  A    between atoms: C_27  and  C_28
REMARK   11  A    between atoms: C_27  and  C_29
REMARK                            x       y       z     vdW  Elec       q    Type
REMARK                         _______ _______ _______ _____ _____    ______ ____
ROOT
ATOM      1  C   UNL     1       2.903   2.455  21.035  0.00  0.00    +0.000 C 
ATOM      2  C   UNL     1       2.686   3.856  20.544  0.00  0.00    +0.000 A 
ATOM      3  C   UNL     1       1.478   4.522  20.738  0.00  0.00    +0.000 A 
ATOM      4  C   UNL     1       1.299   5.813  20.232  0.00  0.00    +0.000 A 
ATOM      5  C   UNL     1       2.324   6.459  19.519  0.00  0.00    +0.000 A 
ATOM      6  C   UNL     1       3.577   5.822  19.368  0.00  0.00    +0.000 A 
ATOM      7  C   UNL     1       3.716   4.508  19.855  0.00  0.00    +0.000 A 
ENDROOT
BRANCH   6   8
ATOM      8  N   UNL     1       4.648   6.417  18.642  0.00  0.00    +0.000 N 
ATOM      9  H   UNL     1       4.873   7.346  18.989  0.00  0.00    +0.000 HD
BRANCH   8  10
ATOM     10  C   UNL     1       5.821   5.746  18.202  0.00  0.00    +0.000 A 
ATOM     11  N   UNL     1       6.763   5.445  19.112  0.00  0.00    +0.000 NA
ATOM     12  C   UNL     1       7.822   4.762  18.678  0.00  0.00    +0.000 A 
ATOM     13  N   UNL     1       8.024   4.335  17.433  0.00  0.00    +0.000 NA
ATOM     14  C   UNL     1       7.099   4.629  16.537  0.00  0.00    +0.000 A 
ATOM     15  N   UNL     1       7.296   4.154  15.303  0.00  0.00    +0.000 NA
ATOM     16  C   UNL     1       6.394   4.392  14.320  0.00  0.00    +0.000 A 
ATOM     17  C   UNL     1       5.252   5.148  14.545  0.00  0.00    +0.000 A 
ATOM     18  C   UNL     1       5.031   5.647  15.823  0.00  0.00    +0.000 A 
ATOM     19  C   UNL     1       5.960   5.375  16.853  0.00  0.00    +0.000 A 
BRANCH  16  20
ATOM     20  C   UNL     1       6.671   3.795  12.952  0.00  0.00    +0.000 C 
ATOM     21  C   UNL     1       5.370   3.362  12.275  0.00  0.00    +0.000 C 
ATOM     22  C   UNL     1       7.440   4.772  12.058  0.00  0.00    +0.000 C 
ENDBRANCH  16  20
ENDBRANCH   8  10
ENDBRANCH   6   8
BRANCH   5  23
ATOM     23  S   UNL     1       2.043   8.120  18.908  0.00  0.00    +0.000 S 
BRANCH  23  24
ATOM     24  C   UNL     1       1.239   8.983  20.257  0.00  0.00    +0.000 A 
ATOM     25  C   UNL     1       0.561  10.176  19.964  0.00  0.00    +0.000 A 
ATOM     26  C   UNL     1      -0.217  10.817  20.934  0.00  0.00    +0.000 A 
ATOM     27  C   UNL     1      -0.317  10.279  22.213  0.00  0.00    +0.000 A 
ATOM     28  C   UNL     1       0.379   9.114  22.532  0.00  0.00    +0.000 A 
ATOM     29  C   UNL     1       1.155   8.468  21.556  0.00  0.00    +0.000 A 
BRANCH  27  30
ATOM     30  N   UNL     1      -1.189  10.904  23.154  0.00  0.00    +0.000 N 
ATOM     31  H   UNL     1      -1.904  10.300  23.565  0.00  0.00    +0.000 HD
BRANCH  30  32
ATOM     32  S   UNL     1      -1.895  12.379  22.709  0.00  0.00    +0.000 S 
ATOM     33  C   UNL     1      -3.267  12.476  23.841  0.00  0.00    +0.000 C 
ATOM     34  O   UNL     1      -0.985  13.471  22.974  0.00  0.00    +0.000 OA
ATOM     35  O   UNL     1      -2.438  12.162  21.386  0.00  0.00    +0.000 OA
ENDBRANCH  30  32
ENDBRANCH  27  30
ENDBRANCH  23  24
ENDBRANCH   5  23
TORSDOF 7
ENDMDL
