MODEL 1
REMARK VINA RESULT:      -6.9      0.000      0.000
REMARK  Name = 
REMARK  7 active torsions:
REMARK  status: ('A' for Active; 'I' for Inactive)
REMARK    1  A    between atoms: C_1  and  C_2
REMARK    2  A    between atoms: C_2  and  C_3
REMARK    3  A    between atoms: C_2  and  C_5
REMARK    4  A    between atoms: C_3  and  O_4
REMARK    5  A    between atoms: C_5  and  C_6
REMARK    6  A    between atoms: N_9  and  C_10
REMARK    7  A    between atoms: C_15  and  O_16
REMARK                            x       y       z     vdW  Elec       q    Type
REMARK                         _______ _______ _______ _____ _____    ______ ____
ROOT
ATOM      1  C   UNL     1       6.324   4.867  15.062  0.00  0.00    +0.000 C 
ATOM      2  C   UNL     1       7.671   5.053  15.774  0.00  0.00    +0.000 C 
ATOM      3  S   UNL     1       5.645   3.304  15.769  0.00  0.00    +0.000 S 
ATOM      4  C   UNL     1       4.754   4.240  16.940  0.00  0.00    +0.000 C 
ATOM      5  N   UNL     1       4.263   3.543  17.993  0.00  0.00    +0.000 N 
ATOM      6  N   UNL     1       4.631   5.501  16.716  0.00  0.00    +0.000 NA
ATOM      7  C   UNL     1       5.325   5.911  15.597  0.00  0.00    +0.000 C 
ATOM      8  O   UNL     1       5.199   7.027  15.109  0.00  0.00    +0.000 OA
ATOM      9  H   UNL     1       4.586   2.584  18.105  0.00  0.00    +0.000 HD
ENDROOT
BRANCH   5  10
ATOM     10  C   UNL     1       3.215   4.025  18.865  0.00  0.00    +0.000 C 
ATOM     11  C   UNL     1       1.849   3.993  18.137  0.00  0.00    +0.000 C 
ATOM     12  C   UNL     1       1.001   3.058  19.017  0.00  0.00    +0.000 C 
ATOM     13  C   UNL     1       2.030   2.016  19.442  0.00  0.00    +0.000 C 
ATOM     14  C   UNL     1       2.979   3.060  20.050  0.00  0.00    +0.000 C 
ATOM     15  C   UNL     1       2.054   3.777  21.057  0.00  0.00    +0.000 C 
ATOM     16  C   UNL     1       0.688   3.768  20.348  0.00  0.00    +0.000 C 
BRANCH  15  17
ATOM     17  O   UNL     1       1.999   3.075  22.290  0.00  0.00    +0.000 OA
ATOM     18  H   UNL     1       1.070   2.891  22.514  0.00  0.00    +0.000 HD
ENDBRANCH  15  17
ENDBRANCH   5  10
BRANCH   1  20
ATOM     19  C   UNL     1       5.733   3.618  12.875  0.00  0.00    +0.000 C 
ATOM     20  C   UNL     1       6.446   4.828  13.512  0.00  0.00    +0.000 C 
BRANCH  20  21
ATOM     21  C   UNL     1       7.898   4.908  13.001  0.00  0.00    +0.000 C 
BRANCH  21  22
ATOM     22  O   UNL     1       8.174   6.207  12.480  0.00  0.00    +0.000 OA
ATOM     23  H   UNL     1       7.901   6.857  13.152  0.00  0.00    +0.000 HD
ENDBRANCH  21  22
ENDBRANCH  20  21
ENDBRANCH   1  20
TORSDOF 5
ENDMDL
MODEL 2
REMARK VINA RESULT:      -6.7      5.449      7.440
REMARK  Name = 
REMARK  7 active torsions:
REMARK  status: ('A' for Active; 'I' for Inactive)
REMARK    1  A    between atoms: C_1  and  C_2
REMARK    2  A    between atoms: C_2  and  C_3
REMARK    3  A    between atoms: C_2  and  C_5
REMARK    4  A    between atoms: C_3  and  O_4
REMARK    5  A    between atoms: C_5  and  C_6
REMARK    6  A    between atoms: N_9  and  C_10
REMARK    7  A    between atoms: C_15  and  O_16
REMARK                            x       y       z     vdW  Elec       q    Type
REMARK                         _______ _______ _______ _____ _____    ______ ____
ROOT
ATOM      1  C   UNL     1       0.496  10.297  19.246  0.00  0.00    +0.000 C 
ATOM      2  C   UNL     1       1.524  11.408  19.506  0.00  0.00    +0.000 C 
ATOM      3  S   UNL     1       1.183   9.364  17.811  0.00  0.00    +0.000 S 
ATOM      4  C   UNL     1       1.928   8.242  18.918  0.00  0.00    +0.000 C 
ATOM      5  N   UNL     1       2.884   7.444  18.385  0.00  0.00    +0.000 N 
ATOM      6  N   UNL     1       1.517   8.256  20.137  0.00  0.00    +0.000 NA
ATOM      7  C   UNL     1       0.591   9.251  20.373  0.00  0.00    +0.000 C 
ATOM      8  O   UNL     1      -0.053   9.326  21.411  0.00  0.00    +0.000 OA
ATOM      9  H   UNL     1       3.205   7.669  17.445  0.00  0.00    +0.000 HD
ENDROOT
BRANCH   5  10
ATOM     10  C   UNL     1       3.360   6.227  19.003  0.00  0.00    +0.000 C 
ATOM     11  C   UNL     1       2.334   5.084  18.806  0.00  0.00    +0.000 C 
ATOM     12  C   UNL     1       3.136   4.017  18.039  0.00  0.00    +0.000 C 
ATOM     13  C   UNL     1       3.993   4.878  17.118  0.00  0.00    +0.000 C 
ATOM     14  C   UNL     1       4.609   5.676  18.277  0.00  0.00    +0.000 C 
ATOM     15  C   UNL     1       5.200   4.551  19.154  0.00  0.00    +0.000 C 
ATOM     16  C   UNL     1       4.188   3.404  18.983  0.00  0.00    +0.000 C 
BRANCH  15  17
ATOM     17  O   UNL     1       6.490   4.172  18.699  0.00  0.00    +0.000 OA
ATOM     18  H   UNL     1       7.144   4.364  19.392  0.00  0.00    +0.000 HD
ENDBRANCH  15  17
ENDBRANCH   5  10
BRANCH   1  20
ATOM     19  C   UNL     1      -1.648  10.140  17.807  0.00  0.00    +0.000 C 
ATOM     20  C   UNL     1      -0.941  10.835  18.989  0.00  0.00    +0.000 C 
BRANCH  20  21
ATOM     21  C   UNL     1      -1.009  12.365  18.811  0.00  0.00    +0.000 C 
BRANCH  21  22
ATOM     22  O   UNL     1      -1.147  12.702  17.432  0.00  0.00    +0.000 OA
ATOM     23  H   UNL     1      -0.906  13.640  17.332  0.00  0.00    +0.000 HD
ENDBRANCH  21  22
ENDBRANCH  20  21
ENDBRANCH   1  20
TORSDOF 5
ENDMDL
MODEL 3
REMARK VINA RESULT:      -6.4      0.849      1.018
REMARK  Name = 
REMARK  7 active torsions:
REMARK  status: ('A' for Active; 'I' for Inactive)
REMARK    1  A    between atoms: C_1  and  C_2
REMARK    2  A    between atoms: C_2  and  C_3
REMARK    3  A    between atoms: C_2  and  C_5
REMARK    4  A    between atoms: C_3  and  O_4
REMARK    5  A    between atoms: C_5  and  C_6
REMARK    6  A    between atoms: N_9  and  C_10
REMARK    7  A    between atoms: C_15  and  O_16
REMARK                            x       y       z     vdW  Elec       q    Type
REMARK                         _______ _______ _______ _____ _____    ______ ____
ROOT
ATOM      1  C   UNL     1       6.341   4.767  15.058  0.00  0.00    +0.000 C 
ATOM      2  C   UNL     1       7.574   4.813  15.971  0.00  0.00    +0.000 C 
ATOM      3  S   UNL     1       5.512   3.177  15.487  0.00  0.00    +0.000 S 
ATOM      4  C   UNL     1       4.490   4.032  16.612  0.00  0.00    +0.000 C 
ATOM      5  N   UNL     1       3.826   3.257  17.502  0.00  0.00    +0.000 N 
ATOM      6  N   UNL     1       4.446   5.314  16.510  0.00  0.00    +0.000 NA
ATOM      7  C   UNL     1       5.311   5.800  15.553  0.00  0.00    +0.000 C 
ATOM      8  O   UNL     1       5.297   6.964  15.175  0.00  0.00    +0.000 OA
ATOM      9  H   UNL     1       4.095   2.277  17.555  0.00  0.00    +0.000 HD
ENDROOT
BRANCH   5  10
ATOM     10  C   UNL     1       2.678   3.699  18.261  0.00  0.00    +0.000 C 
ATOM     11  C   UNL     1       1.754   2.501  18.593  0.00  0.00    +0.000 C 
ATOM     12  C   UNL     1       1.719   2.496  20.131  0.00  0.00    +0.000 C 
ATOM     13  C   UNL     1       3.151   2.891  20.474  0.00  0.00    +0.000 C 
ATOM     14  C   UNL     1       3.087   4.197  19.667  0.00  0.00    +0.000 C 
ATOM     15  C   UNL     1       1.859   4.892  20.292  0.00  0.00    +0.000 C 
ATOM     16  C   UNL     1       0.919   3.718  20.619  0.00  0.00    +0.000 C 
BRANCH  15  17
ATOM     17  O   UNL     1       2.217   5.608  21.465  0.00  0.00    +0.000 OA
ATOM     18  H   UNL     1       3.156   5.448  21.664  0.00  0.00    +0.000 HD
ENDBRANCH  15  17
ENDBRANCH   5  10
BRANCH   1  20
ATOM     19  C   UNL     1       6.273   3.639  12.731  0.00  0.00    +0.000 C 
ATOM     20  C   UNL     1       6.690   4.881  13.545  0.00  0.00    +0.000 C 
BRANCH  20  21
ATOM     21  C   UNL     1       8.170   5.212  13.273  0.00  0.00    +0.000 C 
BRANCH  21  22
ATOM     22  O   UNL     1       8.278   6.282  12.336  0.00  0.00    +0.000 OA
ATOM     23  H   UNL     1       8.249   5.895  11.443  0.00  0.00    +0.000 HD
ENDBRANCH  21  22
ENDBRANCH  20  21
ENDBRANCH   1  20
TORSDOF 5
ENDMDL
MODEL 4
REMARK VINA RESULT:      -6.4      5.276      7.014
REMARK  Name = 
REMARK  7 active torsions:
REMARK  status: ('A' for Active; 'I' for Inactive)
REMARK    1  A    between atoms: C_1  and  C_2
REMARK    2  A    between atoms: C_2  and  C_3
REMARK    3  A    between atoms: C_2  and  C_5
REMARK    4  A    between atoms: C_3  and  O_4
REMARK    5  A    between atoms: C_5  and  C_6
REMARK    6  A    between atoms: N_9  and  C_10
REMARK    7  A    between atoms: C_15  and  O_16
REMARK                            x       y       z     vdW  Elec       q    Type
REMARK                         _______ _______ _______ _____ _____    ______ ____
ROOT
ATOM      1  C   UNL     1       0.861  10.049  19.552  0.00  0.00    +0.000 C 
ATOM      2  C   UNL     1      -0.610   9.848  19.159  0.00  0.00    +0.000 C 
ATOM      3  S   UNL     1       1.066   9.041  21.083  0.00  0.00    +0.000 S 
ATOM      4  C   UNL     1       1.639   7.711  20.111  0.00  0.00    +0.000 C 
ATOM      5  N   UNL     1       1.666   6.506  20.728  0.00  0.00    +0.000 N 
ATOM      6  N   UNL     1       1.988   7.974  18.900  0.00  0.00    +0.000 NA
ATOM      7  C   UNL     1       1.755   9.288  18.555  0.00  0.00    +0.000 C 
ATOM      8  O   UNL     1       2.174   9.786  17.518  0.00  0.00    +0.000 OA
ATOM      9  H   UNL     1       1.205   6.438  21.634  0.00  0.00    +0.000 HD
ENDROOT
BRANCH   5  10
ATOM     10  C   UNL     1       2.425   5.371  20.254  0.00  0.00    +0.000 C 
ATOM     11  C   UNL     1       2.558   4.305  21.370  0.00  0.00    +0.000 C 
ATOM     12  C   UNL     1       1.898   3.060  20.751  0.00  0.00    +0.000 C 
ATOM     13  C   UNL     1       0.743   3.679  19.971  0.00  0.00    +0.000 C 
ATOM     14  C   UNL     1       1.660   4.600  19.153  0.00  0.00    +0.000 C 
ATOM     15  C   UNL     1       2.642   3.588  18.525  0.00  0.00    +0.000 C 
ATOM     16  C   UNL     1       2.799   2.521  19.624  0.00  0.00    +0.000 C 
BRANCH  15  17
ATOM     17  O   UNL     1       2.106   3.026  17.335  0.00  0.00    +0.000 OA
ATOM     18  H   UNL     1       1.187   2.752  17.495  0.00  0.00    +0.000 HD
ENDBRANCH  15  17
ENDBRANCH   5  10
BRANCH   1  20
ATOM     19  C   UNL     1       0.849  12.093  21.138  0.00  0.00    +0.000 C 
ATOM     20  C   UNL     1       1.247  11.543  19.753  0.00  0.00    +0.000 C 
BRANCH  20  21
ATOM     21  C   UNL     1       0.714  12.476  18.647  0.00  0.00    +0.000 C 
BRANCH  21  22
ATOM     22  O   UNL     1       1.733  12.744  17.686  0.00  0.00    +0.000 OA
ATOM     23  H   UNL     1       2.238  11.921  17.554  0.00  0.00    +0.000 HD
ENDBRANCH  21  22
ENDBRANCH  20  21
ENDBRANCH   1  20
TORSDOF 5
ENDMDL
MODEL 5
REMARK VINA RESULT:      -6.0      1.917      7.180
REMARK  Name = 
REMARK  7 active torsions:
REMARK  status: ('A' for Active; 'I' for Inactive)
REMARK    1  A    between atoms: C_1  and  C_2
REMARK    2  A    between atoms: C_2  and  C_3
REMARK    3  A    between atoms: C_2  and  C_5
REMARK    4  A    between atoms: C_3  and  O_4
REMARK    5  A    between atoms: C_5  and  C_6
REMARK    6  A    between atoms: N_9  and  C_10
REMARK    7  A    between atoms: C_15  and  O_16
REMARK                            x       y       z     vdW  Elec       q    Type
REMARK                         _______ _______ _______ _____ _____    ______ ____
ROOT
ATOM      1  C   UNL     1       3.061   3.737  19.382  0.00  0.00    +0.000 C 
ATOM      2  C   UNL     1       3.604   2.715  20.391  0.00  0.00    +0.000 C 
ATOM      3  S   UNL     1       4.443   4.937  19.156  0.00  0.00    +0.000 S 
ATOM      4  C   UNL     1       4.978   4.034  17.763  0.00  0.00    +0.000 C 
ATOM      5  N   UNL     1       6.231   4.314  17.331  0.00  0.00    +0.000 N 
ATOM      6  N   UNL     1       4.152   3.185  17.259  0.00  0.00    +0.000 NA
ATOM      7  C   UNL     1       2.988   3.079  17.991  0.00  0.00    +0.000 C 
ATOM      8  O   UNL     1       2.007   2.465  17.592  0.00  0.00    +0.000 OA
ATOM      9  H   UNL     1       6.811   4.892  17.936  0.00  0.00    +0.000 HD
ENDROOT
BRANCH   5  10
ATOM     10  C   UNL     1       6.730   3.970  16.019  0.00  0.00    +0.000 C 
ATOM     11  C   UNL     1       5.629   3.269  15.187  0.00  0.00    +0.000 C 
ATOM     12  C   UNL     1       5.467   4.191  13.965  0.00  0.00    +0.000 C 
ATOM     13  C   UNL     1       5.643   5.569  14.593  0.00  0.00    +0.000 C 
ATOM     14  C   UNL     1       7.023   5.234  15.177  0.00  0.00    +0.000 C 
ATOM     15  C   UNL     1       7.797   4.787  13.919  0.00  0.00    +0.000 C 
ATOM     16  C   UNL     1       6.722   4.075  13.079  0.00  0.00    +0.000 C 
BRANCH  15  17
ATOM     17  O   UNL     1       8.336   5.904  13.226  0.00  0.00    +0.000 OA
ATOM     18  H   UNL     1       7.624   6.540  13.040  0.00  0.00    +0.000 HD
ENDBRANCH  15  17
ENDBRANCH   5  10
BRANCH   1  20
ATOM     19  C   UNL     1       1.966   5.741  20.597  0.00  0.00    +0.000 C 
ATOM     20  C   UNL     1       1.738   4.415  19.842  0.00  0.00    +0.000 C 
BRANCH  20  21
ATOM     21  C   UNL     1       0.823   3.492  20.671  0.00  0.00    +0.000 C 
BRANCH  21  22
ATOM     22  O   UNL     1       0.012   2.691  19.812  0.00  0.00    +0.000 OA
ATOM     23  H   UNL     1       0.606   2.114  19.301  0.00  0.00    +0.000 HD
ENDBRANCH  21  22
ENDBRANCH  20  21
ENDBRANCH   1  20
TORSDOF 5
ENDMDL
MODEL 6
REMARK VINA RESULT:      -6.0      5.122      6.345
REMARK  Name = 
REMARK  7 active torsions:
REMARK  status: ('A' for Active; 'I' for Inactive)
REMARK    1  A    between atoms: C_1  and  C_2
REMARK    2  A    between atoms: C_2  and  C_3
REMARK    3  A    between atoms: C_2  and  C_5
REMARK    4  A    between atoms: C_3  and  O_4
REMARK    5  A    between atoms: C_5  and  C_6
REMARK    6  A    between atoms: N_9  and  C_10
REMARK    7  A    between atoms: C_15  and  O_16
REMARK                            x       y       z     vdW  Elec       q    Type
REMARK                         _______ _______ _______ _____ _____    ______ ____
ROOT
ATOM      1  C   UNL     1       3.851   5.118  18.512  0.00  0.00    +0.000 C 
ATOM      2  C   UNL     1       5.020   5.237  19.501  0.00  0.00    +0.000 C 
ATOM      3  S   UNL     1       2.369   5.611  19.493  0.00  0.00    +0.000 S 
ATOM      4  C   UNL     1       2.539   7.243  18.901  0.00  0.00    +0.000 C 
ATOM      5  N   UNL     1       1.838   8.185  19.575  0.00  0.00    +0.000 N 
ATOM      6  N   UNL     1       3.306   7.422  17.883  0.00  0.00    +0.000 NA
ATOM      7  C   UNL     1       3.942   6.265  17.488  0.00  0.00    +0.000 C 
ATOM      8  O   UNL     1       4.573   6.178  16.441  0.00  0.00    +0.000 OA
ATOM      9  H   UNL     1       1.409   7.902  20.454  0.00  0.00    +0.000 HD
ENDROOT
BRANCH   5  10
ATOM     10  C   UNL     1       1.543   9.501  19.055  0.00  0.00    +0.000 C 
ATOM     11  C   UNL     1       0.406   9.426  18.006  0.00  0.00    +0.000 C 
ATOM     12  C   UNL     1      -0.685  10.334  18.603  0.00  0.00    +0.000 C 
ATOM     13  C   UNL     1      -0.558  10.031  20.092  0.00  0.00    +0.000 C 
ATOM     14  C   UNL     1       0.928  10.413  20.142  0.00  0.00    +0.000 C 
ATOM     15  C   UNL     1       0.903  11.852  19.583  0.00  0.00    +0.000 C 
ATOM     16  C   UNL     1      -0.216  11.799  18.527  0.00  0.00    +0.000 C 
BRANCH  15  17
ATOM     17  O   UNL     1       0.603  12.792  20.605  0.00  0.00    +0.000 OA
ATOM     18  H   UNL     1       0.689  13.692  20.247  0.00  0.00    +0.000 HD
ENDBRANCH  15  17
ENDBRANCH   5  10
BRANCH   1  20
ATOM     19  C   UNL     1       2.355   3.464  17.201  0.00  0.00    +0.000 C 
ATOM     20  C   UNL     1       3.719   3.702  17.882  0.00  0.00    +0.000 C 
BRANCH  20  21
ATOM     21  C   UNL     1       4.017   2.554  18.867  0.00  0.00    +0.000 C 
BRANCH  21  22
ATOM     22  O   UNL     1       4.039   1.302  18.183  0.00  0.00    +0.000 OA
ATOM     23  H   UNL     1       3.155   1.161  17.800  0.00  0.00    +0.000 HD
ENDBRANCH  21  22
ENDBRANCH  20  21
ENDBRANCH   1  20
TORSDOF 5
ENDMDL
MODEL 7
REMARK VINA RESULT:      -6.0      5.045      5.819
REMARK  Name = 
REMARK  7 active torsions:
REMARK  status: ('A' for Active; 'I' for Inactive)
REMARK    1  A    between atoms: C_1  and  C_2
REMARK    2  A    between atoms: C_2  and  C_3
REMARK    3  A    between atoms: C_2  and  C_5
REMARK    4  A    between atoms: C_3  and  O_4
REMARK    5  A    between atoms: C_5  and  C_6
REMARK    6  A    between atoms: N_9  and  C_10
REMARK    7  A    between atoms: C_15  and  O_16
REMARK                            x       y       z     vdW  Elec       q    Type
REMARK                         _______ _______ _______ _____ _____    ______ ____
ROOT
ATOM      1  C   UNL     1       3.980   5.372  17.904  0.00  0.00    +0.000 C 
ATOM      2  C   UNL     1       5.035   5.257  19.015  0.00  0.00    +0.000 C 
ATOM      3  S   UNL     1       2.393   5.630  18.807  0.00  0.00    +0.000 S 
ATOM      4  C   UNL     1       2.588   7.354  18.625  0.00  0.00    +0.000 C 
ATOM      5  N   UNL     1       1.798   8.118  19.417  0.00  0.00    +0.000 N 
ATOM      6  N   UNL     1       3.454   7.760  17.764  0.00  0.00    +0.000 NA
ATOM      7  C   UNL     1       4.153   6.723  17.185  0.00  0.00    +0.000 C 
ATOM      8  O   UNL     1       4.892   6.877  16.221  0.00  0.00    +0.000 OA
ATOM      9  H   UNL     1       1.286   7.642  20.157  0.00  0.00    +0.000 HD
ENDROOT
BRANCH   5  10
ATOM     10  C   UNL     1       1.531   9.519  19.183  0.00  0.00    +0.000 C 
ATOM     11  C   UNL     1       0.372   9.687  18.170  0.00  0.00    +0.000 C 
ATOM     12  C   UNL     1      -0.680  10.480  18.966  0.00  0.00    +0.000 C 
ATOM     13  C   UNL     1      -0.533   9.877  20.359  0.00  0.00    +0.000 C 
ATOM     14  C   UNL     1       0.965  10.205  20.448  0.00  0.00    +0.000 C 
ATOM     15  C   UNL     1       0.969  11.727  20.194  0.00  0.00    +0.000 C 
ATOM     16  C   UNL     1      -0.171  11.918  19.178  0.00  0.00    +0.000 C 
BRANCH  15  17
ATOM     17  O   UNL     1       0.717  12.447  21.392  0.00  0.00    +0.000 OA
ATOM     18  H   UNL     1      -0.241  12.584  21.488  0.00  0.00    +0.000 HD
ENDBRANCH  15  17
ENDBRANCH   5  10
BRANCH   1  20
ATOM     19  C   UNL     1       3.054   2.994  17.481  0.00  0.00    +0.000 C 
ATOM     20  C   UNL     1       3.946   4.138  16.957  0.00  0.00    +0.000 C 
BRANCH  20  21
ATOM     21  C   UNL     1       5.342   3.591  16.600  0.00  0.00    +0.000 C 
BRANCH  21  22
ATOM     22  O   UNL     1       5.802   4.158  15.374  0.00  0.00    +0.000 OA
ATOM     23  H   UNL     1       5.020   4.456  14.876  0.00  0.00    +0.000 HD
ENDBRANCH  21  22
ENDBRANCH  20  21
ENDBRANCH   1  20
TORSDOF 5
ENDMDL
MODEL 8
REMARK VINA RESULT:      -5.9      4.711      5.839
REMARK  Name = 
REMARK  7 active torsions:
REMARK  status: ('A' for Active; 'I' for Inactive)
REMARK    1  A    between atoms: C_1  and  C_2
REMARK    2  A    between atoms: C_2  and  C_3
REMARK    3  A    between atoms: C_2  and  C_5
REMARK    4  A    between atoms: C_3  and  O_4
REMARK    5  A    between atoms: C_5  and  C_6
REMARK    6  A    between atoms: N_9  and  C_10
REMARK    7  A    between atoms: C_15  and  O_16
REMARK                            x       y       z     vdW  Elec       q    Type
REMARK                         _______ _______ _______ _____ _____    ______ ____
ROOT
ATOM      1  C   UNL     1       4.872   5.255  17.522  0.00  0.00    +0.000 C 
ATOM      2  C   UNL     1       4.650   4.858  16.055  0.00  0.00    +0.000 C 
ATOM      3  S   UNL     1       4.890   7.099  17.500  0.00  0.00    +0.000 S 
ATOM      4  C   UNL     1       3.190   7.105  17.887  0.00  0.00    +0.000 C 
ATOM      5  N   UNL     1       2.551   8.283  17.693  0.00  0.00    +0.000 N 
ATOM      6  N   UNL     1       2.682   6.005  18.323  0.00  0.00    +0.000 NA
ATOM      7  C   UNL     1       3.587   4.965  18.321  0.00  0.00    +0.000 C 
ATOM      8  O   UNL     1       3.362   3.888  18.857  0.00  0.00    +0.000 OA
ATOM      9  H   UNL     1       3.059   9.008  17.191  0.00  0.00    +0.000 HD
ENDROOT
BRANCH   5  10
ATOM     10  C   UNL     1       1.270   8.614  18.276  0.00  0.00    +0.000 C 
ATOM     11  C   UNL     1       1.414   8.855  19.799  0.00  0.00    +0.000 C 
ATOM     12  C   UNL     1       0.929  10.305  19.975  0.00  0.00    +0.000 C 
ATOM     13  C   UNL     1       1.471  10.968  18.714  0.00  0.00    +0.000 C 
ATOM     14  C   UNL     1       0.759   9.984  17.774  0.00  0.00    +0.000 C 
ATOM     15  C   UNL     1      -0.711  10.127  18.224  0.00  0.00    +0.000 C 
ATOM     16  C   UNL     1      -0.593  10.356  19.742  0.00  0.00    +0.000 C 
BRANCH  15  17
ATOM     17  O   UNL     1      -1.338  11.229  17.584  0.00  0.00    +0.000 OA
ATOM     18  H   UNL     1      -1.733  11.809  18.257  0.00  0.00    +0.000 HD
ENDBRANCH  15  17
ENDBRANCH   5  10
BRANCH   1  20
ATOM     19  C   UNL     1       6.651   5.391  19.395  0.00  0.00    +0.000 C 
ATOM     20  C   UNL     1       6.164   4.643  18.138  0.00  0.00    +0.000 C 
BRANCH  20  21
ATOM     21  C   UNL     1       7.323   4.500  17.132  0.00  0.00    +0.000 C 
BRANCH  21  22
ATOM     22  O   UNL     1       8.483   3.978  17.778  0.00  0.00    +0.000 OA
ATOM     23  H   UNL     1       8.191   3.271  18.380  0.00  0.00    +0.000 HD
ENDBRANCH  21  22
ENDBRANCH  20  21
ENDBRANCH   1  20
TORSDOF 5
ENDMDL
MODEL 9
REMARK VINA RESULT:      -5.9      4.708      5.705
REMARK  Name = 
REMARK  7 active torsions:
REMARK  status: ('A' for Active; 'I' for Inactive)
REMARK    1  A    between atoms: C_1  and  C_2
REMARK    2  A    between atoms: C_2  and  C_3
REMARK    3  A    between atoms: C_2  and  C_5
REMARK    4  A    between atoms: C_3  and  O_4
REMARK    5  A    between atoms: C_5  and  C_6
REMARK    6  A    between atoms: N_9  and  C_10
REMARK    7  A    between atoms: C_15  and  O_16
REMARK                            x       y       z     vdW  Elec       q    Type
REMARK                         _______ _______ _______ _____ _____    ______ ____
ROOT
ATOM      1  C   UNL     1       4.002   5.376  18.508  0.00  0.00    +0.000 C 
ATOM      2  C   UNL     1       5.298   5.641  19.287  0.00  0.00    +0.000 C 
ATOM      3  S   UNL     1       2.739   5.060  19.814  0.00  0.00    +0.000 S 
ATOM      4  C   UNL     1       2.281   6.741  19.757  0.00  0.00    +0.000 C 
ATOM      5  N   UNL     1       1.534   7.179  20.798  0.00  0.00    +0.000 N 
ATOM      6  N   UNL     1       2.681   7.426  18.743  0.00  0.00    +0.000 NA
ATOM      7  C   UNL     1       3.499   6.701  17.903  0.00  0.00    +0.000 C 
ATOM      8  O   UNL     1       3.842   7.104  16.799  0.00  0.00    +0.000 OA
ATOM      9  H   UNL     1       1.441   6.554  21.596  0.00  0.00    +0.000 HD
ENDROOT
BRANCH   5  10
ATOM     10  C   UNL     1       0.754   8.396  20.780  0.00  0.00    +0.000 C 
ATOM     11  C   UNL     1      -0.473   8.267  21.714  0.00  0.00    +0.000 C 
ATOM     12  C   UNL     1      -0.266   9.405  22.729  0.00  0.00    +0.000 C 
ATOM     13  C   UNL     1       1.247   9.383  22.914  0.00  0.00    +0.000 C 
ATOM     14  C   UNL     1       1.529   9.573  21.416  0.00  0.00    +0.000 C 
ATOM     15  C   UNL     1       0.746  10.867  21.110  0.00  0.00    +0.000 C 
ATOM     16  C   UNL     1      -0.489  10.755  22.022  0.00  0.00    +0.000 C 
BRANCH  15  17
ATOM     17  O   UNL     1       1.516  12.018  21.425  0.00  0.00    +0.000 OA
ATOM     18  H   UNL     1       2.460  11.814  21.309  0.00  0.00    +0.000 HD
ENDBRANCH  15  17
ENDBRANCH   5  10
BRANCH   1  20
ATOM     19  C   UNL     1       3.777   2.833  18.092  0.00  0.00    +0.000 C 
ATOM     20  C   UNL     1       4.124   4.208  17.487  0.00  0.00    +0.000 C 
BRANCH  20  21
ATOM     21  C   UNL     1       5.493   4.139  16.783  0.00  0.00    +0.000 C 
BRANCH  21  22
ATOM     22  O   UNL     1       5.485   4.931  15.596  0.00  0.00    +0.000 OA
ATOM     23  H   UNL     1       6.253   5.529  15.636  0.00  0.00    +0.000 HD
ENDBRANCH  21  22
ENDBRANCH  20  21
ENDBRANCH   1  20
TORSDOF 5
ENDMDL
