MODEL 1
REMARK VINA RESULT:      -9.6      0.000      0.000
REMARK  Name = 
REMARK  10 active torsions:
REMARK  status: ('A' for Active; 'I' for Inactive)
REMARK    1  A    between atoms: C_1  and  C_2
REMARK    2  A    between atoms: C_4  and  C_5
REMARK    3  A    between atoms: N_6  and  C_7
REMARK    4  A    between atoms: C_7  and  C_8
REMARK    5  A    between atoms: C_8  and  C_9
REMARK    6  A    between atoms: C_9  and  C_10
REMARK    7  A    between atoms: C_10  and  C_11
REMARK    8  A    between atoms: C_14  and  C_15
REMARK    9  A    between atoms: C_17  and  C_18
REMARK   10  A    between atoms: C_24  and  C_25
REMARK                            x       y       z     vdW  Elec       q    Type
REMARK                         _______ _______ _______ _____ _____    ______ ____
ROOT
ATOM      1  C   UNL     1       4.246   3.162  17.411  0.00  0.00    +0.000 A 
ATOM      2  N   UNL     1       4.861   4.148  18.039  0.00  0.00    +0.000 NA
ATOM      3  C   UNL     1       5.789   4.656  17.151  0.00  0.00    +0.000 A 
ATOM      4  C   UNL     1       5.763   3.950  15.955  0.00  0.00    +0.000 A 
ATOM      5  N   UNL     1       4.858   2.942  16.197  0.00  0.00    +0.000 N 
ATOM      6  H   UNL     1       4.609   2.204  15.557  0.00  0.00    +0.000 HD
ENDROOT
BRANCH   1  11
ATOM      7  C   UNL     1       1.947   3.672  20.157  0.00  0.00    +0.000 C 
ATOM      8  C   UNL     1       0.763   2.856  20.707  0.00  0.00    +0.000 C 
ATOM      9  C   UNL     1       3.237   2.839  20.208  0.00  0.00    +0.000 C 
ATOM     10  O   UNL     1       3.267   1.831  19.210  0.00  0.00    +0.000 OA
ATOM     11  C   UNL     1       3.081   2.327  17.888  0.00  0.00    +0.000 C 
ATOM     12  O   UNL     1       1.841   3.021  17.743  0.00  0.00    +0.000 OA
ATOM     13  C   UNL     1       1.634   4.054  18.697  0.00  0.00    +0.000 C 
BRANCH   7  14
ATOM     14  C   UNL     1       2.120   4.998  20.942  0.00  0.00    +0.000 C 
BRANCH  14  15
ATOM     15  C   UNL     1       1.108   6.123  20.679  0.00  0.00    +0.000 C 
BRANCH  15  16
ATOM     16  C   UNL     1       1.833   7.469  20.798  0.00  0.00    +0.000 C 
BRANCH  16  22
ATOM     17  C   UNL     1      -0.376  11.202  18.642  0.00  0.00    +0.000 C 
ATOM     18  C   UNL     1       0.567  10.074  18.822  0.00  0.00    +0.000 A 
ATOM     19  C   UNL     1       1.415   9.494  17.854  0.00  0.00    +0.000 A 
ATOM     20  C   UNL     1       2.048   8.456  18.499  0.00  0.00    +0.000 A 
ATOM     21  C   UNL     1       3.020   7.454  17.999  0.00  0.00    +0.000 C 
ATOM     22  N   UNL     1       1.563   8.472  19.787  0.00  0.00    +0.000 N 
ATOM     23  N   UNL     1       0.669   9.453  20.003  0.00  0.00    +0.000 NA
ENDBRANCH  16  22
ENDBRANCH  15  16
ENDBRANCH  14  15
ENDBRANCH   7  14
ENDBRANCH   1  11
BRANCH   3  24
ATOM     24  C   UNL     1       6.635   5.796  17.489  0.00  0.00    +0.000 A 
ATOM     25  C   UNL     1       6.420   7.029  16.860  0.00  0.00    +0.000 A 
ATOM     26  C   UNL     1       7.167   8.153  17.223  0.00  0.00    +0.000 A 
ATOM     27  C   UNL     1       8.130   8.060  18.227  0.00  0.00    +0.000 A 
ATOM     28  C   UNL     1       8.374   6.835  18.840  0.00  0.00    +0.000 A 
ATOM     29  C   UNL     1       7.651   5.706  18.452  0.00  0.00    +0.000 A 
ENDBRANCH   3  24
BRANCH   4  30
ATOM     30  C   UNL     1       6.436   4.125  14.663  0.00  0.00    +0.000 A 
ATOM     31  C   UNL     1       7.474   5.048  14.509  0.00  0.00    +0.000 A 
ATOM     32  C   UNL     1       7.942   5.396  13.238  0.00  0.00    +0.000 A 
ATOM     33  C   UNL     1       7.415   4.773  12.109  0.00  0.00    +0.000 A 
ATOM     34  C   UNL     1       6.444   3.786  12.253  0.00  0.00    +0.000 A 
ATOM     35  C   UNL     1       5.952   3.463  13.522  0.00  0.00    +0.000 A 
ENDBRANCH   4  30
TORSDOF 7
ENDMDL
MODEL 2
REMARK VINA RESULT:      -9.5      1.047      1.643
REMARK  Name = 
REMARK  10 active torsions:
REMARK  status: ('A' for Active; 'I' for Inactive)
REMARK    1  A    between atoms: C_1  and  C_2
REMARK    2  A    between atoms: C_4  and  C_5
REMARK    3  A    between atoms: N_6  and  C_7
REMARK    4  A    between atoms: C_7  and  C_8
REMARK    5  A    between atoms: C_8  and  C_9
REMARK    6  A    between atoms: C_9  and  C_10
REMARK    7  A    between atoms: C_10  and  C_11
REMARK    8  A    between atoms: C_14  and  C_15
REMARK    9  A    between atoms: C_17  and  C_18
REMARK   10  A    between atoms: C_24  and  C_25
REMARK                            x       y       z     vdW  Elec       q    Type
REMARK                         _______ _______ _______ _____ _____    ______ ____
ROOT
ATOM      1  C   UNL     1       4.458   3.035  17.784  0.00  0.00    +0.000 A 
ATOM      2  N   UNL     1       5.087   4.052  18.346  0.00  0.00    +0.000 NA
ATOM      3  C   UNL     1       5.821   4.656  17.343  0.00  0.00    +0.000 A 
ATOM      4  C   UNL     1       5.659   3.980  16.140  0.00  0.00    +0.000 A 
ATOM      5  N   UNL     1       4.884   2.896  16.483  0.00  0.00    +0.000 N 
ATOM      6  H   UNL     1       4.594   2.156  15.862  0.00  0.00    +0.000 HD
ENDROOT
BRANCH   1  11
ATOM      7  C   UNL     1       1.679   3.691  20.006  0.00  0.00    +0.000 C 
ATOM      8  C   UNL     1       0.638   2.786  20.688  0.00  0.00    +0.000 C 
ATOM      9  C   UNL     1       3.098   3.289  20.437  0.00  0.00    +0.000 C 
ATOM     10  O   UNL     1       3.522   2.079  19.828  0.00  0.00    +0.000 OA
ATOM     11  C   UNL     1       3.451   2.096  18.406  0.00  0.00    +0.000 C 
ATOM     12  O   UNL     1       2.127   2.357  17.937  0.00  0.00    +0.000 OA
ATOM     13  C   UNL     1       1.535   3.529  18.481  0.00  0.00    +0.000 C 
BRANCH   7  14
ATOM     14  C   UNL     1       1.412   5.185  20.327  0.00  0.00    +0.000 C 
BRANCH  14  15
ATOM     15  C   UNL     1       2.610   6.144  20.319  0.00  0.00    +0.000 C 
BRANCH  15  16
ATOM     16  C   UNL     1       2.227   7.398  19.525  0.00  0.00    +0.000 C 
BRANCH  16  22
ATOM     17  C   UNL     1      -0.084   9.612  23.161  0.00  0.00    +0.000 C 
ATOM     18  C   UNL     1       0.436   9.383  21.792  0.00  0.00    +0.000 A 
ATOM     19  C   UNL     1       0.139  10.115  20.623  0.00  0.00    +0.000 A 
ATOM     20  C   UNL     1       0.828   9.482  19.613  0.00  0.00    +0.000 A 
ATOM     21  C   UNL     1       0.881   9.756  18.157  0.00  0.00    +0.000 C 
ATOM     22  N   UNL     1       1.488   8.436  20.216  0.00  0.00    +0.000 N 
ATOM     23  N   UNL     1       1.268   8.366  21.542  0.00  0.00    +0.000 NA
ENDBRANCH  16  22
ENDBRANCH  15  16
ENDBRANCH  14  15
ENDBRANCH   7  14
ENDBRANCH   1  11
BRANCH   3  24
ATOM     24  C   UNL     1       6.620   5.852  17.588  0.00  0.00    +0.000 A 
ATOM     25  C   UNL     1       6.282   7.053  16.951  0.00  0.00    +0.000 A 
ATOM     26  C   UNL     1       6.985   8.229  17.228  0.00  0.00    +0.000 A 
ATOM     27  C   UNL     1       8.028   8.219  18.154  0.00  0.00    +0.000 A 
ATOM     28  C   UNL     1       8.393   7.028  18.773  0.00  0.00    +0.000 A 
ATOM     29  C   UNL     1       7.712   5.848  18.468  0.00  0.00    +0.000 A 
ENDBRANCH   3  24
BRANCH   4  30
ATOM     30  C   UNL     1       6.104   4.242  14.766  0.00  0.00    +0.000 A 
ATOM     31  C   UNL     1       5.472   3.636  13.676  0.00  0.00    +0.000 A 
ATOM     32  C   UNL     1       6.045   3.683  12.401  0.00  0.00    +0.000 A 
ATOM     33  C   UNL     1       7.226   4.391  12.194  0.00  0.00    +0.000 A 
ATOM     34  C   UNL     1       7.818   5.074  13.253  0.00  0.00    +0.000 A 
ATOM     35  C   UNL     1       7.264   4.999  14.535  0.00  0.00    +0.000 A 
ENDBRANCH   4  30
TORSDOF 7
ENDMDL
MODEL 3
REMARK VINA RESULT:      -9.5      0.228      1.189
REMARK  Name = 
REMARK  10 active torsions:
REMARK  status: ('A' for Active; 'I' for Inactive)
REMARK    1  A    between atoms: C_1  and  C_2
REMARK    2  A    between atoms: C_4  and  C_5
REMARK    3  A    between atoms: N_6  and  C_7
REMARK    4  A    between atoms: C_7  and  C_8
REMARK    5  A    between atoms: C_8  and  C_9
REMARK    6  A    between atoms: C_9  and  C_10
REMARK    7  A    between atoms: C_10  and  C_11
REMARK    8  A    between atoms: C_14  and  C_15
REMARK    9  A    between atoms: C_17  and  C_18
REMARK   10  A    between atoms: C_24  and  C_25
REMARK                            x       y       z     vdW  Elec       q    Type
REMARK                         _______ _______ _______ _____ _____    ______ ____
ROOT
ATOM      1  C   UNL     1       4.267   3.167  17.610  0.00  0.00    +0.000 A 
ATOM      2  N   UNL     1       4.879   4.165  18.222  0.00  0.00    +0.000 NA
ATOM      3  C   UNL     1       5.693   4.759  17.277  0.00  0.00    +0.000 A 
ATOM      4  C   UNL     1       5.598   4.096  16.059  0.00  0.00    +0.000 A 
ATOM      5  N   UNL     1       4.777   3.028  16.339  0.00  0.00    +0.000 N 
ATOM      6  H   UNL     1       4.513   2.300  15.693  0.00  0.00    +0.000 HD
ENDROOT
BRANCH   1  11
ATOM      7  C   UNL     1       2.007   3.569  20.406  0.00  0.00    +0.000 C 
ATOM      8  C   UNL     1       0.921   2.669  21.022  0.00  0.00    +0.000 C 
ATOM      9  C   UNL     1       3.370   2.862  20.448  0.00  0.00    +0.000 C 
ATOM     10  O   UNL     1       3.467   1.823  19.486  0.00  0.00    +0.000 OA
ATOM     11  C   UNL     1       3.199   2.247  18.153  0.00  0.00    +0.000 C 
ATOM     12  O   UNL     1       1.895   2.817  18.022  0.00  0.00    +0.000 OA
ATOM     13  C   UNL     1       1.619   3.862  18.944  0.00  0.00    +0.000 C 
BRANCH   7  14
ATOM     14  C   UNL     1       2.076   4.935  21.136  0.00  0.00    +0.000 C 
BRANCH  14  15
ATOM     15  C   UNL     1       1.132   6.049  20.662  0.00  0.00    +0.000 C 
BRANCH  15  16
ATOM     16  C   UNL     1       1.857   7.394  20.796  0.00  0.00    +0.000 C 
BRANCH  16  22
ATOM     17  C   UNL     1      -0.296  11.198  18.712  0.00  0.00    +0.000 C 
ATOM     18  C   UNL     1       0.617  10.042  18.863  0.00  0.00    +0.000 A 
ATOM     19  C   UNL     1       1.418   9.439  17.869  0.00  0.00    +0.000 A 
ATOM     20  C   UNL     1       2.037   8.381  18.494  0.00  0.00    +0.000 A 
ATOM     21  C   UNL     1       2.964   7.351  17.965  0.00  0.00    +0.000 C 
ATOM     22  N   UNL     1       1.590   8.408  19.796  0.00  0.00    +0.000 N 
ATOM     23  N   UNL     1       0.733   9.415  20.039  0.00  0.00    +0.000 NA
ENDBRANCH  16  22
ENDBRANCH  15  16
ENDBRANCH  14  15
ENDBRANCH   7  14
ENDBRANCH   1  11
BRANCH   3  24
ATOM     24  C   UNL     1       6.501   5.935  17.586  0.00  0.00    +0.000 A 
ATOM     25  C   UNL     1       7.552   5.831  18.506  0.00  0.00    +0.000 A 
ATOM     26  C   UNL     1       8.386   6.923  18.760  0.00  0.00    +0.000 A 
ATOM     27  C   UNL     1       8.187   8.128  18.088  0.00  0.00    +0.000 A 
ATOM     28  C   UNL     1       7.129   8.255  17.193  0.00  0.00    +0.000 A 
ATOM     29  C   UNL     1       6.276   7.173  16.967  0.00  0.00    +0.000 A 
ENDBRANCH   3  24
BRANCH   4  30
ATOM     30  C   UNL     1       6.141   4.358  14.721  0.00  0.00    +0.000 A 
ATOM     31  C   UNL     1       5.620   3.718  13.593  0.00  0.00    +0.000 A 
ATOM     32  C   UNL     1       6.289   3.770  12.367  0.00  0.00    +0.000 A 
ATOM     33  C   UNL     1       7.458   4.518  12.244  0.00  0.00    +0.000 A 
ATOM     34  C   UNL     1       7.939   5.235  13.335  0.00  0.00    +0.000 A 
ATOM     35  C   UNL     1       7.288   5.155  14.571  0.00  0.00    +0.000 A 
ENDBRANCH   4  30
TORSDOF 7
ENDMDL
MODEL 4
REMARK VINA RESULT:      -9.3      1.012      3.645
REMARK  Name = 
REMARK  10 active torsions:
REMARK  status: ('A' for Active; 'I' for Inactive)
REMARK    1  A    between atoms: C_1  and  C_2
REMARK    2  A    between atoms: C_4  and  C_5
REMARK    3  A    between atoms: N_6  and  C_7
REMARK    4  A    between atoms: C_7  and  C_8
REMARK    5  A    between atoms: C_8  and  C_9
REMARK    6  A    between atoms: C_9  and  C_10
REMARK    7  A    between atoms: C_10  and  C_11
REMARK    8  A    between atoms: C_14  and  C_15
REMARK    9  A    between atoms: C_17  and  C_18
REMARK   10  A    between atoms: C_24  and  C_25
REMARK                            x       y       z     vdW  Elec       q    Type
REMARK                         _______ _______ _______ _____ _____    ______ ____
ROOT
ATOM      1  C   UNL     1       4.194   3.034  17.470  0.00  0.00    +0.000 A 
ATOM      2  N   UNL     1       4.492   2.978  16.184  0.00  0.00    +0.000 NA
ATOM      3  C   UNL     1       5.424   3.972  15.957  0.00  0.00    +0.000 A 
ATOM      4  C   UNL     1       5.688   4.675  17.127  0.00  0.00    +0.000 A 
ATOM      5  N   UNL     1       4.808   4.130  18.034  0.00  0.00    +0.000 N 
ATOM      6  H   UNL     1       4.689   4.423  18.991  0.00  0.00    +0.000 HD
ENDROOT
BRANCH   1  11
ATOM      7  C   UNL     1       1.837   3.749  20.120  0.00  0.00    +0.000 C 
ATOM      8  C   UNL     1       0.918   2.864  20.982  0.00  0.00    +0.000 C 
ATOM      9  C   UNL     1       3.305   3.336  20.311  0.00  0.00    +0.000 C 
ATOM     10  O   UNL     1       3.610   2.114  19.656  0.00  0.00    +0.000 OA
ATOM     11  C   UNL     1       3.299   2.115  18.267  0.00  0.00    +0.000 C 
ATOM     12  O   UNL     1       1.917   2.385  18.024  0.00  0.00    +0.000 OA
ATOM     13  C   UNL     1       1.436   3.569  18.644  0.00  0.00    +0.000 C 
BRANCH   7  14
ATOM     14  C   UNL     1       1.642   5.249  20.461  0.00  0.00    +0.000 C 
BRANCH  14  15
ATOM     15  C   UNL     1       2.775   6.220  20.098  0.00  0.00    +0.000 C 
BRANCH  15  16
ATOM     16  C   UNL     1       2.175   7.407  19.334  0.00  0.00    +0.000 C 
BRANCH  16  22
ATOM     17  C   UNL     1       0.051   9.497  23.153  0.00  0.00    +0.000 C 
ATOM     18  C   UNL     1       0.526   9.327  21.760  0.00  0.00    +0.000 A 
ATOM     19  C   UNL     1       0.229  10.136  20.642  0.00  0.00    +0.000 A 
ATOM     20  C   UNL     1       0.865   9.535  19.580  0.00  0.00    +0.000 A 
ATOM     21  C   UNL     1       0.892   9.891  18.140  0.00  0.00    +0.000 C 
ATOM     22  N   UNL     1       1.498   8.431  20.104  0.00  0.00    +0.000 N 
ATOM     23  N   UNL     1       1.309   8.294  21.429  0.00  0.00    +0.000 NA
ENDBRANCH  16  22
ENDBRANCH  15  16
ENDBRANCH  14  15
ENDBRANCH   7  14
ENDBRANCH   1  11
BRANCH   3  24
ATOM     24  C   UNL     1       6.021   4.183  14.643  0.00  0.00    +0.000 A 
ATOM     25  C   UNL     1       7.162   4.986  14.521  0.00  0.00    +0.000 A 
ATOM     26  C   UNL     1       7.795   5.141  13.284  0.00  0.00    +0.000 A 
ATOM     27  C   UNL     1       7.301   4.484  12.158  0.00  0.00    +0.000 A 
ATOM     28  C   UNL     1       6.152   3.707  12.258  0.00  0.00    +0.000 A 
ATOM     29  C   UNL     1       5.501   3.582  13.487  0.00  0.00    +0.000 A 
ENDBRANCH   3  24
BRANCH   4  30
ATOM     30  C   UNL     1       6.648   5.728  17.478  0.00  0.00    +0.000 A 
ATOM     31  C   UNL     1       7.615   5.523  18.467  0.00  0.00    +0.000 A 
ATOM     32  C   UNL     1       8.356   6.593  18.976  0.00  0.00    +0.000 A 
ATOM     33  C   UNL     1       8.180   7.872  18.454  0.00  0.00    +0.000 A 
ATOM     34  C   UNL     1       7.285   8.076  17.408  0.00  0.00    +0.000 A 
ATOM     35  C   UNL     1       6.519   7.011  16.922  0.00  0.00    +0.000 A 
ENDBRANCH   4  30
TORSDOF 7
ENDMDL
MODEL 5
REMARK VINA RESULT:      -9.2      0.384      3.357
REMARK  Name = 
REMARK  10 active torsions:
REMARK  status: ('A' for Active; 'I' for Inactive)
REMARK    1  A    between atoms: C_1  and  C_2
REMARK    2  A    between atoms: C_4  and  C_5
REMARK    3  A    between atoms: N_6  and  C_7
REMARK    4  A    between atoms: C_7  and  C_8
REMARK    5  A    between atoms: C_8  and  C_9
REMARK    6  A    between atoms: C_9  and  C_10
REMARK    7  A    between atoms: C_10  and  C_11
REMARK    8  A    between atoms: C_14  and  C_15
REMARK    9  A    between atoms: C_17  and  C_18
REMARK   10  A    between atoms: C_24  and  C_25
REMARK                            x       y       z     vdW  Elec       q    Type
REMARK                         _______ _______ _______ _____ _____    ______ ____
ROOT
ATOM      1  C   UNL     1       3.871   3.182  17.123  0.00  0.00    +0.000 A 
ATOM      2  N   UNL     1       4.283   3.119  15.869  0.00  0.00    +0.000 NA
ATOM      3  C   UNL     1       5.321   4.023  15.755  0.00  0.00    +0.000 A 
ATOM      4  C   UNL     1       5.538   4.678  16.961  0.00  0.00    +0.000 A 
ATOM      5  N   UNL     1       4.530   4.205  17.769  0.00  0.00    +0.000 N 
ATOM      6  H   UNL     1       4.348   4.491  18.718  0.00  0.00    +0.000 HD
ENDROOT
BRANCH   1  11
ATOM      7  C   UNL     1       2.078   3.709  20.221  0.00  0.00    +0.000 C 
ATOM      8  C   UNL     1       1.023   2.886  20.981  0.00  0.00    +0.000 C 
ATOM      9  C   UNL     1       3.371   2.897  20.059  0.00  0.00    +0.000 C 
ATOM     10  O   UNL     1       3.245   1.871  19.087  0.00  0.00    +0.000 OA
ATOM     11  C   UNL     1       2.823   2.339  17.810  0.00  0.00    +0.000 C 
ATOM     12  O   UNL     1       1.564   3.012  17.873  0.00  0.00    +0.000 OA
ATOM     13  C   UNL     1       1.508   4.059  18.832  0.00  0.00    +0.000 C 
BRANCH   7  14
ATOM     14  C   UNL     1       2.361   5.052  20.942  0.00  0.00    +0.000 C 
BRANCH  14  15
ATOM     15  C   UNL     1       1.379   6.210  20.711  0.00  0.00    +0.000 C 
BRANCH  15  16
ATOM     16  C   UNL     1       2.184   7.501  20.521  0.00  0.00    +0.000 C 
BRANCH  16  22
ATOM     17  C   UNL     1      -0.878  10.926  18.987  0.00  0.00    +0.000 C 
ATOM     18  C   UNL     1       0.264   9.984  18.958  0.00  0.00    +0.000 A 
ATOM     19  C   UNL     1       1.088   9.659  17.859  0.00  0.00    +0.000 A 
ATOM     20  C   UNL     1       1.963   8.706  18.329  0.00  0.00    +0.000 A 
ATOM     21  C   UNL     1       3.036   7.951  17.638  0.00  0.00    +0.000 C 
ATOM     22  N   UNL     1       1.630   8.520  19.651  0.00  0.00    +0.000 N 
ATOM     23  N   UNL     1       0.605   9.294  20.052  0.00  0.00    +0.000 NA
ENDBRANCH  16  22
ENDBRANCH  15  16
ENDBRANCH  14  15
ENDBRANCH   7  14
ENDBRANCH   1  11
BRANCH   3  24
ATOM     24  C   UNL     1       6.056   4.198  14.506  0.00  0.00    +0.000 A 
ATOM     25  C   UNL     1       5.627   3.531  13.351  0.00  0.00    +0.000 A 
ATOM     26  C   UNL     1       6.270   3.743  12.127  0.00  0.00    +0.000 A 
ATOM     27  C   UNL     1       7.340   4.633  12.043  0.00  0.00    +0.000 A 
ATOM     28  C   UNL     1       7.795   5.279  13.188  0.00  0.00    +0.000 A 
ATOM     29  C   UNL     1       7.174   5.040  14.415  0.00  0.00    +0.000 A 
ENDBRANCH   3  24
BRANCH   4  30
ATOM     30  C   UNL     1       6.555   5.628  17.426  0.00  0.00    +0.000 A 
ATOM     31  C   UNL     1       7.441   5.292  18.453  0.00  0.00    +0.000 A 
ATOM     32  C   UNL     1       8.233   6.269  19.065  0.00  0.00    +0.000 A 
ATOM     33  C   UNL     1       8.189   7.584  18.609  0.00  0.00    +0.000 A 
ATOM     34  C   UNL     1       7.378   7.916  17.528  0.00  0.00    +0.000 A 
ATOM     35  C   UNL     1       6.561   6.946  16.939  0.00  0.00    +0.000 A 
ENDBRANCH   4  30
TORSDOF 7
ENDMDL
MODEL 6
REMARK VINA RESULT:      -9.0      0.963      3.442
REMARK  Name = 
REMARK  10 active torsions:
REMARK  status: ('A' for Active; 'I' for Inactive)
REMARK    1  A    between atoms: C_1  and  C_2
REMARK    2  A    between atoms: C_4  and  C_5
REMARK    3  A    between atoms: N_6  and  C_7
REMARK    4  A    between atoms: C_7  and  C_8
REMARK    5  A    between atoms: C_8  and  C_9
REMARK    6  A    between atoms: C_9  and  C_10
REMARK    7  A    between atoms: C_10  and  C_11
REMARK    8  A    between atoms: C_14  and  C_15
REMARK    9  A    between atoms: C_17  and  C_18
REMARK   10  A    between atoms: C_24  and  C_25
REMARK                            x       y       z     vdW  Elec       q    Type
REMARK                         _______ _______ _______ _____ _____    ______ ____
ROOT
ATOM      1  C   UNL     1       4.069   3.006  17.544  0.00  0.00    +0.000 A 
ATOM      2  N   UNL     1       4.508   2.934  16.300  0.00  0.00    +0.000 NA
ATOM      3  C   UNL     1       5.386   3.988  16.136  0.00  0.00    +0.000 A 
ATOM      4  C   UNL     1       5.471   4.742  17.300  0.00  0.00    +0.000 A 
ATOM      5  N   UNL     1       4.539   4.160  18.128  0.00  0.00    +0.000 N 
ATOM      6  H   UNL     1       4.296   4.471  19.056  0.00  0.00    +0.000 HD
ENDROOT
BRANCH   1  11
ATOM      7  C   UNL     1       2.113   3.438  20.556  0.00  0.00    +0.000 C 
ATOM      8  C   UNL     1       1.192   2.502  21.359  0.00  0.00    +0.000 C 
ATOM      9  C   UNL     1       3.532   2.854  20.483  0.00  0.00    +0.000 C 
ATOM     10  O   UNL     1       3.616   1.753  19.592  0.00  0.00    +0.000 OA
ATOM     11  C   UNL     1       3.160   2.046  18.274  0.00  0.00    +0.000 C 
ATOM     12  O   UNL     1       1.803   2.491  18.261  0.00  0.00    +0.000 OA
ATOM     13  C   UNL     1       1.536   3.580  19.134  0.00  0.00    +0.000 C 
BRANCH   7  14
ATOM     14  C   UNL     1       2.136   4.860  21.176  0.00  0.00    +0.000 C 
BRANCH  14  15
ATOM     15  C   UNL     1       1.207   5.921  20.569  0.00  0.00    +0.000 C 
BRANCH  15  16
ATOM     16  C   UNL     1       2.046   7.151  20.203  0.00  0.00    +0.000 C 
BRANCH  16  22
ATOM     17  C   UNL     1      -0.410  10.714  22.379  0.00  0.00    +0.000 C 
ATOM     18  C   UNL     1       0.326   9.998  21.311  0.00  0.00    +0.000 A 
ATOM     19  C   UNL     1       0.472  10.377  19.960  0.00  0.00    +0.000 A 
ATOM     20  C   UNL     1       1.195   9.363  19.374  0.00  0.00    +0.000 A 
ATOM     21  C   UNL     1       1.627   9.169  17.968  0.00  0.00    +0.000 C 
ATOM     22  N   UNL     1       1.442   8.457  20.379  0.00  0.00    +0.000 N 
ATOM     23  N   UNL     1       0.928   8.830  21.565  0.00  0.00    +0.000 NA
ENDBRANCH  16  22
ENDBRANCH  15  16
ENDBRANCH  14  15
ENDBRANCH   7  14
ENDBRANCH   1  11
BRANCH   3  24
ATOM     24  C   UNL     1       6.105   4.204  14.885  0.00  0.00    +0.000 A 
ATOM     25  C   UNL     1       5.620   3.636  13.700  0.00  0.00    +0.000 A 
ATOM     26  C   UNL     1       6.249   3.892  12.478  0.00  0.00    +0.000 A 
ATOM     27  C   UNL     1       7.363   4.729  12.426  0.00  0.00    +0.000 A 
ATOM     28  C   UNL     1       7.873   5.278  13.599  0.00  0.00    +0.000 A 
ATOM     29  C   UNL     1       7.264   4.992  14.822  0.00  0.00    +0.000 A 
ENDBRANCH   3  24
BRANCH   4  30
ATOM     30  C   UNL     1       6.309   5.874  17.712  0.00  0.00    +0.000 A 
ATOM     31  C   UNL     1       6.215   7.113  17.071  0.00  0.00    +0.000 A 
ATOM     32  C   UNL     1       7.176   8.105  17.287  0.00  0.00    +0.000 A 
ATOM     33  C   UNL     1       8.208   7.889  18.197  0.00  0.00    +0.000 A 
ATOM     34  C   UNL     1       8.263   6.694  18.909  0.00  0.00    +0.000 A 
ATOM     35  C   UNL     1       7.321   5.688  18.668  0.00  0.00    +0.000 A 
ENDBRANCH   4  30
TORSDOF 7
ENDMDL
MODEL 7
REMARK VINA RESULT:      -9.0      0.988      1.697
REMARK  Name = 
REMARK  10 active torsions:
REMARK  status: ('A' for Active; 'I' for Inactive)
REMARK    1  A    between atoms: C_1  and  C_2
REMARK    2  A    between atoms: C_4  and  C_5
REMARK    3  A    between atoms: N_6  and  C_7
REMARK    4  A    between atoms: C_7  and  C_8
REMARK    5  A    between atoms: C_8  and  C_9
REMARK    6  A    between atoms: C_9  and  C_10
REMARK    7  A    between atoms: C_10  and  C_11
REMARK    8  A    between atoms: C_14  and  C_15
REMARK    9  A    between atoms: C_17  and  C_18
REMARK   10  A    between atoms: C_24  and  C_25
REMARK                            x       y       z     vdW  Elec       q    Type
REMARK                         _______ _______ _______ _____ _____    ______ ____
ROOT
ATOM      1  C   UNL     1       4.030   3.278  17.341  0.00  0.00    +0.000 A 
ATOM      2  N   UNL     1       4.716   4.200  17.992  0.00  0.00    +0.000 NA
ATOM      3  C   UNL     1       5.607   4.737  17.083  0.00  0.00    +0.000 A 
ATOM      4  C   UNL     1       5.484   4.113  15.847  0.00  0.00    +0.000 A 
ATOM      5  N   UNL     1       4.561   3.120  16.080  0.00  0.00    +0.000 N 
ATOM      6  H   UNL     1       4.247   2.434  15.410  0.00  0.00    +0.000 HD
ENDROOT
BRANCH   1  11
ATOM      7  C   UNL     1       1.877   3.714  20.215  0.00  0.00    +0.000 C 
ATOM      8  C   UNL     1       0.699   2.902  20.783  0.00  0.00    +0.000 C 
ATOM      9  C   UNL     1       3.145   2.849  20.166  0.00  0.00    +0.000 C 
ATOM     10  O   UNL     1       3.102   1.888  19.122  0.00  0.00    +0.000 OA
ATOM     11  C   UNL     1       2.868   2.450  17.835  0.00  0.00    +0.000 C 
ATOM     12  O   UNL     1       1.641   3.180  17.781  0.00  0.00    +0.000 OA
ATOM     13  C   UNL     1       1.506   4.171  18.791  0.00  0.00    +0.000 C 
BRANCH   7  14
ATOM     14  C   UNL     1       2.121   4.998  21.050  0.00  0.00    +0.000 C 
BRANCH  14  15
ATOM     15  C   UNL     1       1.930   6.353  20.354  0.00  0.00    +0.000 C 
BRANCH  15  16
ATOM     16  C   UNL     1       1.051   7.239  21.244  0.00  0.00    +0.000 C 
BRANCH  16  22
ATOM     17  C   UNL     1       1.479  11.243  18.552  0.00  0.00    +0.000 C 
ATOM     18  C   UNL     1       1.108  10.388  19.703  0.00  0.00    +0.000 A 
ATOM     19  C   UNL     1       0.604  10.798  20.956  0.00  0.00    +0.000 A 
ATOM     20  C   UNL     1       0.467   9.641  21.689  0.00  0.00    +0.000 A 
ATOM     21  C   UNL     1       0.025   9.428  23.088  0.00  0.00    +0.000 C 
ATOM     22  N   UNL     1       0.880   8.625  20.856  0.00  0.00    +0.000 N 
ATOM     23  N   UNL     1       1.264   9.060  19.643  0.00  0.00    +0.000 NA
ENDBRANCH  16  22
ENDBRANCH  15  16
ENDBRANCH  14  15
ENDBRANCH   7  14
ENDBRANCH   1  11
BRANCH   3  24
ATOM     24  C   UNL     1       6.512   5.825  17.440  0.00  0.00    +0.000 A 
ATOM     25  C   UNL     1       6.317   7.097  16.887  0.00  0.00    +0.000 A 
ATOM     26  C   UNL     1       7.124   8.172  17.273  0.00  0.00    +0.000 A 
ATOM     27  C   UNL     1       8.126   7.989  18.225  0.00  0.00    +0.000 A 
ATOM     28  C   UNL     1       8.349   6.724  18.761  0.00  0.00    +0.000 A 
ATOM     29  C   UNL     1       7.566   5.645  18.348  0.00  0.00    +0.000 A 
ENDBRANCH   3  24
BRANCH   4  30
ATOM     30  C   UNL     1       6.085   4.352  14.530  0.00  0.00    +0.000 A 
ATOM     31  C   UNL     1       5.619   3.686  13.392  0.00  0.00    +0.000 A 
ATOM     32  C   UNL     1       6.343   3.719  12.197  0.00  0.00    +0.000 A 
ATOM     33  C   UNL     1       7.511   4.472  12.111  0.00  0.00    +0.000 A 
ATOM     34  C   UNL     1       7.939   5.213  13.209  0.00  0.00    +0.000 A 
ATOM     35  C   UNL     1       7.233   5.153  14.415  0.00  0.00    +0.000 A 
ENDBRANCH   4  30
TORSDOF 7
ENDMDL
MODEL 8
REMARK VINA RESULT:      -8.9      1.023      3.678
REMARK  Name = 
REMARK  10 active torsions:
REMARK  status: ('A' for Active; 'I' for Inactive)
REMARK    1  A    between atoms: C_1  and  C_2
REMARK    2  A    between atoms: C_4  and  C_5
REMARK    3  A    between atoms: N_6  and  C_7
REMARK    4  A    between atoms: C_7  and  C_8
REMARK    5  A    between atoms: C_8  and  C_9
REMARK    6  A    between atoms: C_9  and  C_10
REMARK    7  A    between atoms: C_10  and  C_11
REMARK    8  A    between atoms: C_14  and  C_15
REMARK    9  A    between atoms: C_17  and  C_18
REMARK   10  A    between atoms: C_24  and  C_25
REMARK                            x       y       z     vdW  Elec       q    Type
REMARK                         _______ _______ _______ _____ _____    ______ ____
ROOT
ATOM      1  C   UNL     1       3.901   3.197  17.191  0.00  0.00    +0.000 A 
ATOM      2  N   UNL     1       4.271   3.136  15.924  0.00  0.00    +0.000 NA
ATOM      3  C   UNL     1       5.290   4.057  15.772  0.00  0.00    +0.000 A 
ATOM      4  C   UNL     1       5.536   4.719  16.968  0.00  0.00    +0.000 A 
ATOM      5  N   UNL     1       4.563   4.232  17.811  0.00  0.00    +0.000 N 
ATOM      6  H   UNL     1       4.409   4.519  18.765  0.00  0.00    +0.000 HD
ENDROOT
BRANCH   1  11
ATOM      7  C   UNL     1       2.090   3.775  20.269  0.00  0.00    +0.000 C 
ATOM      8  C   UNL     1       1.071   2.941  21.066  0.00  0.00    +0.000 C 
ATOM      9  C   UNL     1       3.417   3.013  20.137  0.00  0.00    +0.000 C 
ATOM     10  O   UNL     1       3.333   1.942  19.208  0.00  0.00    +0.000 OA
ATOM     11  C   UNL     1       2.890   2.340  17.914  0.00  0.00    +0.000 C 
ATOM     12  O   UNL     1       1.603   2.961  17.953  0.00  0.00    +0.000 OA
ATOM     13  C   UNL     1       1.505   4.043  18.869  0.00  0.00    +0.000 C 
BRANCH   7  14
ATOM     14  C   UNL     1       2.316   5.158  20.934  0.00  0.00    +0.000 C 
BRANCH  14  15
ATOM     15  C   UNL     1       1.748   6.395  20.224  0.00  0.00    +0.000 C 
BRANCH  15  16
ATOM     16  C   UNL     1       1.223   7.369  21.286  0.00  0.00    +0.000 C 
BRANCH  16  22
ATOM     17  C   UNL     1       1.300  11.349  18.528  0.00  0.00    +0.000 C 
ATOM     18  C   UNL     1       0.993  10.480  19.688  0.00  0.00    +0.000 A 
ATOM     19  C   UNL     1       0.426  10.858  20.924  0.00  0.00    +0.000 A 
ATOM     20  C   UNL     1       0.391   9.706  21.675  0.00  0.00    +0.000 A 
ATOM     21  C   UNL     1      -0.056   9.472  23.070  0.00  0.00    +0.000 C 
ATOM     22  N   UNL     1       0.920   8.723  20.870  0.00  0.00    +0.000 N 
ATOM     23  N   UNL     1       1.284   9.175  19.656  0.00  0.00    +0.000 NA
ENDBRANCH  16  22
ENDBRANCH  15  16
ENDBRANCH  14  15
ENDBRANCH   7  14
ENDBRANCH   1  11
BRANCH   3  24
ATOM     24  C   UNL     1       5.980   4.239  14.499  0.00  0.00    +0.000 A 
ATOM     25  C   UNL     1       7.126   5.042  14.441  0.00  0.00    +0.000 A 
ATOM     26  C   UNL     1       7.847   5.170  13.250  0.00  0.00    +0.000 A 
ATOM     27  C   UNL     1       7.436   4.486  12.107  0.00  0.00    +0.000 A 
ATOM     28  C   UNL     1       6.284   3.707  12.142  0.00  0.00    +0.000 A 
ATOM     29  C   UNL     1       5.546   3.609  13.323  0.00  0.00    +0.000 A 
ENDBRANCH   3  24
BRANCH   4  30
ATOM     30  C   UNL     1       6.552   5.687  17.396  0.00  0.00    +0.000 A 
ATOM     31  C   UNL     1       7.507   5.353  18.361  0.00  0.00    +0.000 A 
ATOM     32  C   UNL     1       8.306   6.338  18.949  0.00  0.00    +0.000 A 
ATOM     33  C   UNL     1       8.200   7.662  18.529  0.00  0.00    +0.000 A 
ATOM     34  C   UNL     1       7.318   7.995  17.506  0.00  0.00    +0.000 A 
ATOM     35  C   UNL     1       6.494   7.015  16.942  0.00  0.00    +0.000 A 
ENDBRANCH   4  30
TORSDOF 7
ENDMDL
MODEL 9
REMARK VINA RESULT:      -8.7      0.893      1.776
REMARK  Name = 
REMARK  10 active torsions:
REMARK  status: ('A' for Active; 'I' for Inactive)
REMARK    1  A    between atoms: C_1  and  C_2
REMARK    2  A    between atoms: C_4  and  C_5
REMARK    3  A    between atoms: N_6  and  C_7
REMARK    4  A    between atoms: C_7  and  C_8
REMARK    5  A    between atoms: C_8  and  C_9
REMARK    6  A    between atoms: C_9  and  C_10
REMARK    7  A    between atoms: C_10  and  C_11
REMARK    8  A    between atoms: C_14  and  C_15
REMARK    9  A    between atoms: C_17  and  C_18
REMARK   10  A    between atoms: C_24  and  C_25
REMARK                            x       y       z     vdW  Elec       q    Type
REMARK                         _______ _______ _______ _____ _____    ______ ____
ROOT
ATOM      1  C   UNL     1       4.474   3.197  17.932  0.00  0.00    +0.000 A 
ATOM      2  N   UNL     1       5.064   4.246  18.477  0.00  0.00    +0.000 NA
ATOM      3  C   UNL     1       5.801   4.843  17.473  0.00  0.00    +0.000 A 
ATOM      4  C   UNL     1       5.683   4.129  16.286  0.00  0.00    +0.000 A 
ATOM      5  N   UNL     1       4.932   3.034  16.643  0.00  0.00    +0.000 N 
ATOM      6  H   UNL     1       4.675   2.269  16.038  0.00  0.00    +0.000 HD
ENDROOT
BRANCH   1  11
ATOM      7  C   UNL     1       1.735   3.817  20.212  0.00  0.00    +0.000 C 
ATOM      8  C   UNL     1       0.709   2.900  20.901  0.00  0.00    +0.000 C 
ATOM      9  C   UNL     1       3.163   3.412  20.612  0.00  0.00    +0.000 C 
ATOM     10  O   UNL     1       3.579   2.212  19.980  0.00  0.00    +0.000 OA
ATOM     11  C   UNL     1       3.481   2.248  18.559  0.00  0.00    +0.000 C 
ATOM     12  O   UNL     1       2.148   2.511  18.118  0.00  0.00    +0.000 OA
ATOM     13  C   UNL     1       1.564   3.674  18.688  0.00  0.00    +0.000 C 
BRANCH   7  14
ATOM     14  C   UNL     1       1.471   5.305  20.558  0.00  0.00    +0.000 C 
BRANCH  14  15
ATOM     15  C   UNL     1       1.866   6.363  19.517  0.00  0.00    +0.000 C 
BRANCH  15  16
ATOM     16  C   UNL     1       2.175   7.675  20.248  0.00  0.00    +0.000 C 
BRANCH  16  22
ATOM     17  C   UNL     1      -0.537  11.159  18.257  0.00  0.00    +0.000 C 
ATOM     18  C   UNL     1       0.041  10.294  19.311  0.00  0.00    +0.000 A 
ATOM     19  C   UNL     1      -0.086  10.435  20.710  0.00  0.00    +0.000 A 
ATOM     20  C   UNL     1       0.670   9.419  21.248  0.00  0.00    +0.000 A 
ATOM     21  C   UNL     1       0.961   9.072  22.660  0.00  0.00    +0.000 C 
ATOM     22  N   UNL     1       1.193   8.738  20.172  0.00  0.00    +0.000 N 
ATOM     23  N   UNL     1       0.814   9.251  18.988  0.00  0.00    +0.000 NA
ENDBRANCH  16  22
ENDBRANCH  15  16
ENDBRANCH  14  15
ENDBRANCH   7  14
ENDBRANCH   1  11
BRANCH   3  24
ATOM     24  C   UNL     1       6.562   6.067  17.699  0.00  0.00    +0.000 A 
ATOM     25  C   UNL     1       7.665   6.048  18.562  0.00  0.00    +0.000 A 
ATOM     26  C   UNL     1       8.454   7.190  18.735  0.00  0.00    +0.000 A 
ATOM     27  C   UNL     1       8.155   8.359  18.038  0.00  0.00    +0.000 A 
ATOM     28  C   UNL     1       7.045   8.401  17.199  0.00  0.00    +0.000 A 
ATOM     29  C   UNL     1       6.239   7.271  17.055  0.00  0.00    +0.000 A 
ENDBRANCH   3  24
BRANCH   4  30
ATOM     30  C   UNL     1       6.149   4.366  14.914  0.00  0.00    +0.000 A 
ATOM     31  C   UNL     1       5.546   3.726  13.827  0.00  0.00    +0.000 A 
ATOM     32  C   UNL     1       6.141   3.751  12.562  0.00  0.00    +0.000 A 
ATOM     33  C   UNL     1       7.316   4.471  12.360  0.00  0.00    +0.000 A 
ATOM     34  C   UNL     1       7.879   5.187  13.412  0.00  0.00    +0.000 A 
ATOM     35  C   UNL     1       7.302   5.135  14.686  0.00  0.00    +0.000 A 
ENDBRANCH   4  30
TORSDOF 7
ENDMDL
