MODEL 1
REMARK VINA RESULT:      -8.7      0.000      0.000
REMARK  Name = 
REMARK  4 active torsions:
REMARK  status: ('A' for Active; 'I' for Inactive)
REMARK    1  A    between atoms: C_2  and  C_3
REMARK    2  A    between atoms: N_7  and  C_8
REMARK    3  A    between atoms: C_8  and  C_9
REMARK    4  A    between atoms: C_14  and  C_15
REMARK                            x       y       z     vdW  Elec       q    Type
REMARK                         _______ _______ _______ _____ _____    ______ ____
ROOT
ATOM      1  C   UNL     1       3.541   3.157  19.279  0.00  0.00    +0.000 C 
ATOM      2  C   UNL     1       2.438   2.209  19.724  0.00  0.00    +0.000 C 
ATOM      3  C   UNL     1       1.087   2.819  19.412  0.00  0.00    +0.000 C 
ATOM      4  C   UNL     1       0.935   4.181  20.089  0.00  0.00    +0.000 C 
ATOM      5  N   UNL     1       2.052   5.112  19.837  0.00  0.00    +0.000 NA
ATOM      6  C   UNL     1       3.366   4.484  20.080  0.00  0.00    +0.000 C 
ENDROOT
BRANCH   1   8
ATOM      7  O   UNL     1       2.627   3.303  17.065  0.00  0.00    +0.000 OA
ATOM      8  C   UNL     1       3.635   3.462  17.769  0.00  0.00    +0.000 C 
ATOM      9  N   UNL     1       4.755   4.054  17.202  0.00  0.00    +0.000 N 
ATOM     10  C   UNL     1       4.825   4.149  15.738  0.00  0.00    +0.000 C 
ATOM     11  C   UNL     1       6.232   3.801  15.259  0.00  0.00    +0.000 C 
ATOM     12  C   UNL     1       7.280   4.689  15.926  0.00  0.00    +0.000 C 
ATOM     13  C   UNL     1       7.130   4.690  17.450  0.00  0.00    +0.000 C 
ATOM     14  C   UNL     1       5.688   4.960  17.868  0.00  0.00    +0.000 C 
ENDBRANCH   1   8
BRANCH   5  15
ATOM     15  C   UNL     1       1.834   6.341  20.636  0.00  0.00    +0.000 C 
BRANCH  15  16
ATOM     16  C   UNL     1       1.762   7.651  19.865  0.00  0.00    +0.000 A 
ATOM     17  C   UNL     1       2.404   7.697  18.608  0.00  0.00    +0.000 A 
ATOM     18  C   UNL     1       2.321   8.817  17.779  0.00  0.00    +0.000 A 
ATOM     19  C   UNL     1       1.574   9.916  18.173  0.00  0.00    +0.000 A 
ATOM     20  C   UNL     1       0.931   9.899  19.408  0.00  0.00    +0.000 A 
ATOM     21  C   UNL     1       1.020   8.786  20.281  0.00  0.00    +0.000 A 
BRANCH  21  22
ATOM     22  C   UNL     1       0.303   8.957  21.606  0.00  0.00    +0.000 C 
ATOM     23  F   UNL     1       1.062   8.854  22.728  0.00  0.00    +0.000 F 
ATOM     24  F   UNL     1      -0.301  10.178  21.699  0.00  0.00    +0.000 F 
ATOM     25  F   UNL     1      -0.701   8.046  21.767  0.00  0.00    +0.000 F 
ENDBRANCH  21  22
ENDBRANCH  15  16
ENDBRANCH   5  15
TORSDOF 4
ENDMDL
MODEL 2
REMARK VINA RESULT:      -8.0      3.732      6.358
REMARK  Name = 
REMARK  4 active torsions:
REMARK  status: ('A' for Active; 'I' for Inactive)
REMARK    1  A    between atoms: C_2  and  C_3
REMARK    2  A    between atoms: N_7  and  C_8
REMARK    3  A    between atoms: C_8  and  C_9
REMARK    4  A    between atoms: C_14  and  C_15
REMARK                            x       y       z     vdW  Elec       q    Type
REMARK                         _______ _______ _______ _____ _____    ______ ____
ROOT
ATOM      1  C   UNL     1       1.588   4.490  19.140  0.00  0.00    +0.000 C 
ATOM      2  C   UNL     1       1.144   3.158  19.722  0.00  0.00    +0.000 C 
ATOM      3  C   UNL     1       2.156   2.687  20.746  0.00  0.00    +0.000 C 
ATOM      4  C   UNL     1       3.547   2.569  20.124  0.00  0.00    +0.000 C 
ATOM      5  N   UNL     1       3.990   3.774  19.396  0.00  0.00    +0.000 NA
ATOM      6  C   UNL     1       2.966   4.261  18.449  0.00  0.00    +0.000 C 
ENDROOT
BRANCH   1   8
ATOM      7  O   UNL     1       1.770   5.456  21.329  0.00  0.00    +0.000 OA
ATOM      8  C   UNL     1       1.679   5.684  20.114  0.00  0.00    +0.000 C 
ATOM      9  N   UNL     1       1.821   6.992  19.671  0.00  0.00    +0.000 N 
ATOM     10  C   UNL     1       1.727   8.074  20.659  0.00  0.00    +0.000 C 
ATOM     11  C   UNL     1       0.903   9.227  20.092  0.00  0.00    +0.000 C 
ATOM     12  C   UNL     1       1.482   9.727  18.770  0.00  0.00    +0.000 C 
ATOM     13  C   UNL     1       1.699   8.579  17.781  0.00  0.00    +0.000 C 
ATOM     14  C   UNL     1       2.454   7.421  18.426  0.00  0.00    +0.000 C 
ENDBRANCH   1   8
BRANCH   5  15
ATOM     15  C   UNL     1       5.293   3.486  18.752  0.00  0.00    +0.000 C 
BRANCH  15  16
ATOM     16  C   UNL     1       6.073   4.681  18.224  0.00  0.00    +0.000 A 
ATOM     17  C   UNL     1       6.777   5.461  19.169  0.00  0.00    +0.000 A 
ATOM     18  C   UNL     1       7.597   6.522  18.784  0.00  0.00    +0.000 A 
ATOM     19  C   UNL     1       7.756   6.820  17.439  0.00  0.00    +0.000 A 
ATOM     20  C   UNL     1       7.074   6.070  16.486  0.00  0.00    +0.000 A 
ATOM     21  C   UNL     1       6.213   5.004  16.851  0.00  0.00    +0.000 A 
BRANCH  21  22
ATOM     22  C   UNL     1       5.510   4.328  15.690  0.00  0.00    +0.000 C 
ATOM     23  F   UNL     1       4.180   4.095  15.836  0.00  0.00    +0.000 F 
ATOM     24  F   UNL     1       5.618   5.057  14.541  0.00  0.00    +0.000 F 
ATOM     25  F   UNL     1       6.057   3.111  15.398  0.00  0.00    +0.000 F 
ENDBRANCH  21  22
ENDBRANCH  15  16
ENDBRANCH   5  15
TORSDOF 4
ENDMDL
MODEL 3
REMARK VINA RESULT:      -7.9      2.030      2.540
REMARK  Name = 
REMARK  4 active torsions:
REMARK  status: ('A' for Active; 'I' for Inactive)
REMARK    1  A    between atoms: C_2  and  C_3
REMARK    2  A    between atoms: N_7  and  C_8
REMARK    3  A    between atoms: C_8  and  C_9
REMARK    4  A    between atoms: C_14  and  C_15
REMARK                            x       y       z     vdW  Elec       q    Type
REMARK                         _______ _______ _______ _____ _____    ______ ____
ROOT
ATOM      1  C   UNL     1       3.391   2.818  18.895  0.00  0.00    +0.000 C 
ATOM      2  C   UNL     1       2.154   1.998  19.227  0.00  0.00    +0.000 C 
ATOM      3  C   UNL     1       0.919   2.866  19.100  0.00  0.00    +0.000 C 
ATOM      4  C   UNL     1       1.018   4.091  20.009  0.00  0.00    +0.000 C 
ATOM      5  N   UNL     1       2.271   4.857  19.861  0.00  0.00    +0.000 NA
ATOM      6  C   UNL     1       3.464   3.989  19.921  0.00  0.00    +0.000 C 
ENDROOT
BRANCH   1   8
ATOM      7  O   UNL     1       2.483   3.385  16.747  0.00  0.00    +0.000 OA
ATOM      8  C   UNL     1       3.499   3.370  17.457  0.00  0.00    +0.000 C 
ATOM      9  N   UNL     1       4.648   3.990  16.987  0.00  0.00    +0.000 N 
ATOM     10  C   UNL     1       4.720   4.328  15.559  0.00  0.00    +0.000 C 
ATOM     11  C   UNL     1       6.106   3.994  15.014  0.00  0.00    +0.000 C 
ATOM     12  C   UNL     1       7.201   4.700  15.811  0.00  0.00    +0.000 C 
ATOM     13  C   UNL     1       7.053   4.451  17.314  0.00  0.00    +0.000 C 
ATOM     14  C   UNL     1       5.629   4.720  17.787  0.00  0.00    +0.000 C 
ENDBRANCH   1   8
BRANCH   5  15
ATOM     15  C   UNL     1       2.284   5.941  20.871  0.00  0.00    +0.000 C 
BRANCH  15  16
ATOM     16  C   UNL     1       1.628   7.255  20.470  0.00  0.00    +0.000 A 
ATOM     17  C   UNL     1       0.783   7.871  21.420  0.00  0.00    +0.000 A 
ATOM     18  C   UNL     1       0.206   9.120  21.192  0.00  0.00    +0.000 A 
ATOM     19  C   UNL     1       0.476   9.803  20.016  0.00  0.00    +0.000 A 
ATOM     20  C   UNL     1       1.305   9.220  19.061  0.00  0.00    +0.000 A 
ATOM     21  C   UNL     1       1.882   7.940  19.256  0.00  0.00    +0.000 A 
BRANCH  21  22
ATOM     22  C   UNL     1       2.715   7.434  18.093  0.00  0.00    +0.000 C 
ATOM     23  F   UNL     1       3.998   7.086  18.369  0.00  0.00    +0.000 F 
ATOM     24  F   UNL     1       2.163   6.324  17.522  0.00  0.00    +0.000 F 
ATOM     25  F   UNL     1       2.800   8.352  17.086  0.00  0.00    +0.000 F 
ENDBRANCH  21  22
ENDBRANCH  15  16
ENDBRANCH   5  15
TORSDOF 4
ENDMDL
MODEL 4
REMARK VINA RESULT:      -7.9      3.273      6.495
REMARK  Name = 
REMARK  4 active torsions:
REMARK  status: ('A' for Active; 'I' for Inactive)
REMARK    1  A    between atoms: C_2  and  C_3
REMARK    2  A    between atoms: N_7  and  C_8
REMARK    3  A    between atoms: C_8  and  C_9
REMARK    4  A    between atoms: C_14  and  C_15
REMARK                            x       y       z     vdW  Elec       q    Type
REMARK                         _______ _______ _______ _____ _____    ______ ____
ROOT
ATOM      1  C   UNL     1       2.149   5.361  18.149  0.00  0.00    +0.000 C 
ATOM      2  C   UNL     1       1.522   3.976  18.196  0.00  0.00    +0.000 C 
ATOM      3  C   UNL     1       2.209   3.143  19.258  0.00  0.00    +0.000 C 
ATOM      4  C   UNL     1       3.710   3.048  18.990  0.00  0.00    +0.000 C 
ATOM      5  N   UNL     1       4.371   4.349  18.770  0.00  0.00    +0.000 NA
ATOM      6  C   UNL     1       3.653   5.179  17.781  0.00  0.00    +0.000 C 
ENDROOT
BRANCH   1   8
ATOM      7  O   UNL     1       2.188   5.703  20.523  0.00  0.00    +0.000 OA
ATOM      8  C   UNL     1       2.017   6.233  19.415  0.00  0.00    +0.000 C 
ATOM      9  N   UNL     1       1.872   7.612  19.353  0.00  0.00    +0.000 N 
ATOM     10  C   UNL     1       1.583   8.337  20.598  0.00  0.00    +0.000 C 
ATOM     11  C   UNL     1       0.522   9.404  20.344  0.00  0.00    +0.000 C 
ATOM     12  C   UNL     1       0.947  10.357  19.229  0.00  0.00    +0.000 C 
ATOM     13  C   UNL     1       1.369   9.596  17.970  0.00  0.00    +0.000 C 
ATOM     14  C   UNL     1       2.366   8.489  18.294  0.00  0.00    +0.000 C 
ENDBRANCH   1   8
BRANCH   5  15
ATOM     15  C   UNL     1       5.788   4.106  18.412  0.00  0.00    +0.000 C 
BRANCH  15  16
ATOM     16  C   UNL     1       6.195   4.430  16.981  0.00  0.00    +0.000 A 
ATOM     17  C   UNL     1       5.834   3.500  15.981  0.00  0.00    +0.000 A 
ATOM     18  C   UNL     1       6.075   3.743  14.628  0.00  0.00    +0.000 A 
ATOM     19  C   UNL     1       6.664   4.934  14.233  0.00  0.00    +0.000 A 
ATOM     20  C   UNL     1       7.031   5.869  15.198  0.00  0.00    +0.000 A 
ATOM     21  C   UNL     1       6.822   5.636  16.580  0.00  0.00    +0.000 A 
BRANCH  21  22
ATOM     22  C   UNL     1       7.329   6.735  17.494  0.00  0.00    +0.000 C 
ATOM     23  F   UNL     1       8.058   6.344  18.572  0.00  0.00    +0.000 F 
ATOM     24  F   UNL     1       8.130   7.617  16.827  0.00  0.00    +0.000 F 
ATOM     25  F   UNL     1       6.311   7.489  18.004  0.00  0.00    +0.000 F 
ENDBRANCH  21  22
ENDBRANCH  15  16
ENDBRANCH   5  15
TORSDOF 4
ENDMDL
MODEL 5
REMARK VINA RESULT:      -7.8      3.959      6.526
REMARK  Name = 
REMARK  4 active torsions:
REMARK  status: ('A' for Active; 'I' for Inactive)
REMARK    1  A    between atoms: C_2  and  C_3
REMARK    2  A    between atoms: N_7  and  C_8
REMARK    3  A    between atoms: C_8  and  C_9
REMARK    4  A    between atoms: C_14  and  C_15
REMARK                            x       y       z     vdW  Elec       q    Type
REMARK                         _______ _______ _______ _____ _____    ______ ____
ROOT
ATOM      1  C   UNL     1       1.138   3.832  18.524  0.00  0.00    +0.000 C 
ATOM      2  C   UNL     1       0.871   2.363  18.811  0.00  0.00    +0.000 C 
ATOM      3  C   UNL     1       2.079   1.749  19.489  0.00  0.00    +0.000 C 
ATOM      4  C   UNL     1       3.330   1.913  18.625  0.00  0.00    +0.000 C 
ATOM      5  N   UNL     1       3.574   3.295  18.167  0.00  0.00    +0.000 NA
ATOM      6  C   UNL     1       2.369   3.904  17.569  0.00  0.00    +0.000 C 
ENDROOT
BRANCH   1   8
ATOM      7  O   UNL     1       1.333   4.258  20.877  0.00  0.00    +0.000 OA
ATOM      8  C   UNL     1       1.361   4.755  19.741  0.00  0.00    +0.000 C 
ATOM      9  N   UNL     1       1.747   6.081  19.605  0.00  0.00    +0.000 N 
ATOM     10  C   UNL     1       1.768   6.925  20.807  0.00  0.00    +0.000 C 
ATOM     11  C   UNL     1       1.185   8.299  20.488  0.00  0.00    +0.000 C 
ATOM     12  C   UNL     1       1.926   8.961  19.328  0.00  0.00    +0.000 C 
ATOM     13  C   UNL     1       2.014   8.033  18.114  0.00  0.00    +0.000 C 
ATOM     14  C   UNL     1       2.522   6.649  18.506  0.00  0.00    +0.000 C 
ENDBRANCH   1   8
BRANCH   5  15
ATOM     15  C   UNL     1       4.742   3.291  17.255  0.00  0.00    +0.000 C 
BRANCH  15  16
ATOM     16  C   UNL     1       5.733   4.435  17.413  0.00  0.00    +0.000 A 
ATOM     17  C   UNL     1       6.003   4.879  18.727  0.00  0.00    +0.000 A 
ATOM     18  C   UNL     1       6.963   5.856  18.991  0.00  0.00    +0.000 A 
ATOM     19  C   UNL     1       7.699   6.403  17.951  0.00  0.00    +0.000 A 
ATOM     20  C   UNL     1       7.454   5.985  16.645  0.00  0.00    +0.000 A 
ATOM     21  C   UNL     1       6.466   5.014  16.346  0.00  0.00    +0.000 A 
BRANCH  21  22
ATOM     22  C   UNL     1       6.295   4.715  14.869  0.00  0.00    +0.000 C 
ATOM     23  F   UNL     1       7.204   5.269  14.026  0.00  0.00    +0.000 F 
ATOM     24  F   UNL     1       6.348   3.374  14.616  0.00  0.00    +0.000 F 
ATOM     25  F   UNL     1       5.078   5.121  14.402  0.00  0.00    +0.000 F 
ENDBRANCH  21  22
ENDBRANCH  15  16
ENDBRANCH   5  15
TORSDOF 4
ENDMDL
MODEL 6
REMARK VINA RESULT:      -7.6      3.254      6.271
REMARK  Name = 
REMARK  4 active torsions:
REMARK  status: ('A' for Active; 'I' for Inactive)
REMARK    1  A    between atoms: C_2  and  C_3
REMARK    2  A    between atoms: N_7  and  C_8
REMARK    3  A    between atoms: C_8  and  C_9
REMARK    4  A    between atoms: C_14  and  C_15
REMARK                            x       y       z     vdW  Elec       q    Type
REMARK                         _______ _______ _______ _____ _____    ______ ____
ROOT
ATOM      1  C   UNL     1       1.679   4.768  18.900  0.00  0.00    +0.000 C 
ATOM      2  C   UNL     1       1.062   3.445  19.326  0.00  0.00    +0.000 C 
ATOM      3  C   UNL     1       1.887   2.833  20.439  0.00  0.00    +0.000 C 
ATOM      4  C   UNL     1       3.337   2.636  19.997  0.00  0.00    +0.000 C 
ATOM      5  N   UNL     1       3.964   3.840  19.418  0.00  0.00    +0.000 NA
ATOM      6  C   UNL     1       3.118   4.464  18.381  0.00  0.00    +0.000 C 
ENDROOT
BRANCH   1   8
ATOM      7  O   UNL     1       1.843   5.580  21.151  0.00  0.00    +0.000 OA
ATOM      8  C   UNL     1       1.727   5.891  19.957  0.00  0.00    +0.000 C 
ATOM      9  N   UNL     1       1.802   7.232  19.609  0.00  0.00    +0.000 N 
ATOM     10  C   UNL     1       1.670   8.235  20.674  0.00  0.00    +0.000 C 
ATOM     11  C   UNL     1       0.785   9.385  20.200  0.00  0.00    +0.000 C 
ATOM     12  C   UNL     1       1.324  10.006  18.913  0.00  0.00    +0.000 C 
ATOM     13  C   UNL     1       1.582   8.945  17.841  0.00  0.00    +0.000 C 
ATOM     14  C   UNL     1       2.398   7.781  18.393  0.00  0.00    +0.000 C 
ENDBRANCH   1   8
BRANCH   5  15
ATOM     15  C   UNL     1       5.317   3.481  18.931  0.00  0.00    +0.000 C 
BRANCH  15  16
ATOM     16  C   UNL     1       5.775   4.143  17.639  0.00  0.00    +0.000 A 
ATOM     17  C   UNL     1       5.125   3.751  16.448  0.00  0.00    +0.000 A 
ATOM     18  C   UNL     1       5.402   4.359  15.223  0.00  0.00    +0.000 A 
ATOM     19  C   UNL     1       6.321   5.395  15.158  0.00  0.00    +0.000 A 
ATOM     20  C   UNL     1       6.978   5.802  16.316  0.00  0.00    +0.000 A 
ATOM     21  C   UNL     1       6.735   5.183  17.568  0.00  0.00    +0.000 A 
BRANCH  21  22
ATOM     22  C   UNL     1       7.574   5.715  18.714  0.00  0.00    +0.000 C 
ATOM     23  F   UNL     1       6.944   5.879  19.906  0.00  0.00    +0.000 F 
ATOM     24  F   UNL     1       8.635   4.898  18.984  0.00  0.00    +0.000 F 
ATOM     25  F   UNL     1       8.121   6.933  18.426  0.00  0.00    +0.000 F 
ENDBRANCH  21  22
ENDBRANCH  15  16
ENDBRANCH   5  15
TORSDOF 4
ENDMDL
MODEL 7
REMARK VINA RESULT:      -7.5      3.259      6.675
REMARK  Name = 
REMARK  4 active torsions:
REMARK  status: ('A' for Active; 'I' for Inactive)
REMARK    1  A    between atoms: C_2  and  C_3
REMARK    2  A    between atoms: N_7  and  C_8
REMARK    3  A    between atoms: C_8  and  C_9
REMARK    4  A    between atoms: C_14  and  C_15
REMARK                            x       y       z     vdW  Elec       q    Type
REMARK                         _______ _______ _______ _____ _____    ______ ____
ROOT
ATOM      1  C   UNL     1       2.181   5.757  18.052  0.00  0.00    +0.000 C 
ATOM      2  C   UNL     1       1.242   4.608  17.719  0.00  0.00    +0.000 C 
ATOM      3  C   UNL     1       1.553   3.423  18.610  0.00  0.00    +0.000 C 
ATOM      4  C   UNL     1       3.012   2.993  18.455  0.00  0.00    +0.000 C 
ATOM      5  N   UNL     1       3.987   4.090  18.605  0.00  0.00    +0.000 NA
ATOM      6  C   UNL     1       3.635   5.265  17.781  0.00  0.00    +0.000 C 
ENDROOT
BRANCH   1   8
ATOM      7  O   UNL     1       2.482   5.676  20.431  0.00  0.00    +0.000 OA
ATOM      8  C   UNL     1       2.082   6.353  19.473  0.00  0.00    +0.000 C 
ATOM      9  N   UNL     1       1.711   7.671  19.699  0.00  0.00    +0.000 N 
ATOM     10  C   UNL     1       1.479   8.100  21.085  0.00  0.00    +0.000 C 
ATOM     11  C   UNL     1       0.236   8.982  21.155  0.00  0.00    +0.000 C 
ATOM     12  C   UNL     1       0.350  10.179  20.213  0.00  0.00    +0.000 C 
ATOM     13  C   UNL     1       0.716   9.743  18.792  0.00  0.00    +0.000 C 
ATOM     14  C   UNL     1       1.912   8.796  18.789  0.00  0.00    +0.000 C 
ENDBRANCH   1   8
BRANCH   5  15
ATOM     15  C   UNL     1       5.342   3.561  18.320  0.00  0.00    +0.000 C 
BRANCH  15  16
ATOM     16  C   UNL     1       6.023   4.074  17.060  0.00  0.00    +0.000 A 
ATOM     17  C   UNL     1       5.648   3.478  15.835  0.00  0.00    +0.000 A 
ATOM     18  C   UNL     1       6.141   3.934  14.612  0.00  0.00    +0.000 A 
ATOM     19  C   UNL     1       7.007   5.016  14.576  0.00  0.00    +0.000 A 
ATOM     20  C   UNL     1       7.395   5.623  15.767  0.00  0.00    +0.000 A 
ATOM     21  C   UNL     1       6.931   5.162  17.025  0.00  0.00    +0.000 A 
BRANCH  21  22
ATOM     22  C   UNL     1       7.494   5.904  18.221  0.00  0.00    +0.000 C 
ATOM     23  F   UNL     1       8.132   7.076  17.967  0.00  0.00    +0.000 F 
ATOM     24  F   UNL     1       6.519   6.221  19.123  0.00  0.00    +0.000 F 
ATOM     25  F   UNL     1       8.395   5.148  18.915  0.00  0.00    +0.000 F 
ENDBRANCH  21  22
ENDBRANCH  15  16
ENDBRANCH   5  15
TORSDOF 4
ENDMDL
MODEL 8
REMARK VINA RESULT:      -7.2      3.221      5.849
REMARK  Name = 
REMARK  4 active torsions:
REMARK  status: ('A' for Active; 'I' for Inactive)
REMARK    1  A    between atoms: C_2  and  C_3
REMARK    2  A    between atoms: N_7  and  C_8
REMARK    3  A    between atoms: C_8  and  C_9
REMARK    4  A    between atoms: C_14  and  C_15
REMARK                            x       y       z     vdW  Elec       q    Type
REMARK                         _______ _______ _______ _____ _____    ______ ____
ROOT
ATOM      1  C   UNL     1       1.501   4.150  19.392  0.00  0.00    +0.000 C 
ATOM      2  C   UNL     1       1.233   2.917  20.240  0.00  0.00    +0.000 C 
ATOM      3  C   UNL     1       2.397   2.681  21.179  0.00  0.00    +0.000 C 
ATOM      4  C   UNL     1       3.704   2.529  20.400  0.00  0.00    +0.000 C 
ATOM      5  N   UNL     1       3.962   3.612  19.431  0.00  0.00    +0.000 NA
ATOM      6  C   UNL     1       2.794   3.876  18.566  0.00  0.00    +0.000 C 
ENDROOT
BRANCH   1   8
ATOM      7  O   UNL     1       1.526   5.507  21.371  0.00  0.00    +0.000 OA
ATOM      8  C   UNL     1       1.627   5.497  20.136  0.00  0.00    +0.000 C 
ATOM      9  N   UNL     1       2.004   6.667  19.491  0.00  0.00    +0.000 N 
ATOM     10  C   UNL     1       1.931   7.928  20.240  0.00  0.00    +0.000 C 
ATOM     11  C   UNL     1       1.354   9.028  19.353  0.00  0.00    +0.000 C 
ATOM     12  C   UNL     1       2.165   9.188  18.068  0.00  0.00    +0.000 C 
ATOM     13  C   UNL     1       2.349   7.850  17.349  0.00  0.00    +0.000 C 
ATOM     14  C   UNL     1       2.847   6.768  18.302  0.00  0.00    +0.000 C 
ENDBRANCH   1   8
BRANCH   5  15
ATOM     15  C   UNL     1       5.191   3.283  18.671  0.00  0.00    +0.000 C 
BRANCH  15  16
ATOM     16  C   UNL     1       5.534   4.194  17.501  0.00  0.00    +0.000 A 
ATOM     17  C   UNL     1       4.829   3.988  16.294  0.00  0.00    +0.000 A 
ATOM     18  C   UNL     1       4.998   4.825  15.191  0.00  0.00    +0.000 A 
ATOM     19  C   UNL     1       5.861   5.908  15.269  0.00  0.00    +0.000 A 
ATOM     20  C   UNL     1       6.569   6.135  16.446  0.00  0.00    +0.000 A 
ATOM     21  C   UNL     1       6.437   5.285  17.573  0.00  0.00    +0.000 A 
BRANCH  21  22
ATOM     22  C   UNL     1       7.320   5.648  18.751  0.00  0.00    +0.000 C 
ATOM     23  F   UNL     1       8.357   4.811  19.015  0.00  0.00    +0.000 F 
ATOM     24  F   UNL     1       7.890   6.879  18.594  0.00  0.00    +0.000 F 
ATOM     25  F   UNL     1       6.614   5.723  19.917  0.00  0.00    +0.000 F 
ENDBRANCH  21  22
ENDBRANCH  15  16
ENDBRANCH   5  15
TORSDOF 4
ENDMDL
MODEL 9
REMARK VINA RESULT:      -7.1      3.805      7.379
REMARK  Name = 
REMARK  4 active torsions:
REMARK  status: ('A' for Active; 'I' for Inactive)
REMARK    1  A    between atoms: C_2  and  C_3
REMARK    2  A    between atoms: N_7  and  C_8
REMARK    3  A    between atoms: C_8  and  C_9
REMARK    4  A    between atoms: C_14  and  C_15
REMARK                            x       y       z     vdW  Elec       q    Type
REMARK                         _______ _______ _______ _____ _____    ______ ____
ROOT
ATOM      1  C   UNL     1       0.556   9.864  18.512  0.00  0.00    +0.000 C 
ATOM      2  C   UNL     1      -0.127   9.991  19.865  0.00  0.00    +0.000 C 
ATOM      3  C   UNL     1       0.866   9.687  20.967  0.00  0.00    +0.000 C 
ATOM      4  C   UNL     1       1.465   8.292  20.791  0.00  0.00    +0.000 C 
ATOM      5  N   UNL     1       2.009   8.030  19.445  0.00  0.00    +0.000 NA
ATOM      6  C   UNL     1       1.055   8.393  18.378  0.00  0.00    +0.000 C 
ENDROOT
BRANCH   1   8
ATOM      7  O   UNL     1       2.693  10.429  17.580  0.00  0.00    +0.000 OA
ATOM      8  C   UNL     1       1.713  10.842  18.217  0.00  0.00    +0.000 C 
ATOM      9  N   UNL     1       1.627  12.198  18.500  0.00  0.00    +0.000 N 
ATOM     10  C   UNL     1       2.836  13.018  18.345  0.00  0.00    +0.000 C 
ATOM     11  C   UNL     1       2.958  13.992  19.514  0.00  0.00    +0.000 C 
ATOM     12  C   UNL     1       1.708  14.860  19.647  0.00  0.00    +0.000 C 
ATOM     13  C   UNL     1       0.435  14.011  19.682  0.00  0.00    +0.000 C 
ATOM     14  C   UNL     1       0.407  12.999  18.541  0.00  0.00    +0.000 C 
ENDBRANCH   1   8
BRANCH   5  15
ATOM     15  C   UNL     1       2.449   6.616  19.380  0.00  0.00    +0.000 C 
BRANCH  15  16
ATOM     16  C   UNL     1       3.329   6.230  18.199  0.00  0.00    +0.000 A 
ATOM     17  C   UNL     1       4.282   7.180  17.766  0.00  0.00    +0.000 A 
ATOM     18  C   UNL     1       5.199   6.893  16.755  0.00  0.00    +0.000 A 
ATOM     19  C   UNL     1       5.208   5.640  16.163  0.00  0.00    +0.000 A 
ATOM     20  C   UNL     1       4.280   4.684  16.569  0.00  0.00    +0.000 A 
ATOM     21  C   UNL     1       3.319   4.958  17.574  0.00  0.00    +0.000 A 
BRANCH  21  22
ATOM     22  C   UNL     1       2.353   3.823  17.856  0.00  0.00    +0.000 C 
ATOM     23  F   UNL     1       1.030   4.109  17.748  0.00  0.00    +0.000 F 
ATOM     24  F   UNL     1       2.556   2.767  17.015  0.00  0.00    +0.000 F 
ATOM     25  F   UNL     1       2.510   3.317  19.115  0.00  0.00    +0.000 F 
ENDBRANCH  21  22
ENDBRANCH  15  16
ENDBRANCH   5  15
TORSDOF 4
ENDMDL
