MODEL 1
REMARK VINA RESULT:      -8.8      0.000      0.000
REMARK  Name = 
REMARK  7 active torsions:
REMARK  status: ('A' for Active; 'I' for Inactive)
REMARK    1  A    between atoms: C_2  and  C_5
REMARK    2  A    between atoms: N_3  and  O_4
REMARK    3  A    between atoms: C_8  and  N_9
REMARK    4  A    between atoms: N_9  and  C_10
REMARK    5  A    between atoms: C_10  and  C_11
REMARK    6  A    between atoms: C_13  and  C_14
REMARK    7  A    between atoms: N_22  and  C_23
REMARK                            x       y       z     vdW  Elec       q    Type
REMARK                         _______ _______ _______ _____ _____    ______ ____
ROOT
ATOM      1  C   UNL     1       4.170   6.127  17.231  0.00  0.00    +0.000 A 
ATOM      2  N   UNL     1       4.916   6.258  16.139  0.00  0.00    +0.000 NA
ATOM      3  C   UNL     1       5.120   4.961  15.714  0.00  0.00    +0.000 A 
ATOM      4  N   UNL     1       4.612   4.046  16.544  0.00  0.00    +0.000 NA
ATOM      5  N   UNL     1       3.892   4.777  17.420  0.00  0.00    +0.000 N 
ENDROOT
BRANCH   3   6
ATOM      6  C   UNL     1       5.822   4.580  14.484  0.00  0.00    +0.000 A 
ATOM      7  C   UNL     1       7.075   5.116  14.156  0.00  0.00    +0.000 A 
ATOM      8  C   UNL     1       7.715   4.747  12.964  0.00  0.00    +0.000 A 
ATOM      9  C   UNL     1       7.105   3.845  12.098  0.00  0.00    +0.000 A 
ATOM     10  F   UNL     1       7.721   3.496  10.963  0.00  0.00    +0.000 F 
ATOM     11  C   UNL     1       5.860   3.309  12.393  0.00  0.00    +0.000 A 
ATOM     12  C   UNL     1       5.223   3.678  13.579  0.00  0.00    +0.000 A 
ENDBRANCH   3   6
BRANCH   5  13
ATOM     13  C   UNL     1       3.025   4.103  18.324  0.00  0.00    +0.000 A 
ATOM     14  C   UNL     1       3.521   3.743  19.591  0.00  0.00    +0.000 A 
ATOM     15  C   UNL     1       2.704   3.078  20.506  0.00  0.00    +0.000 A 
ATOM     16  C   UNL     1       1.396   2.747  20.162  0.00  0.00    +0.000 A 
ATOM     17  C   UNL     1       0.912   3.062  18.896  0.00  0.00    +0.000 A 
ATOM     18  C   UNL     1       1.724   3.732  17.975  0.00  0.00    +0.000 A 
ENDBRANCH   5  13
BRANCH   1  19
ATOM     19  C   UNL     1       3.756   7.195  18.214  0.00  0.00    +0.000 C 
BRANCH  19  20
ATOM     20  N   UNL     1       2.375   7.682  18.153  0.00  0.00    +0.000 N 
ATOM     21  H   UNL     1       2.155   8.096  17.251  0.00  0.00    +0.000 HD
BRANCH  20  25
ATOM     22  C   UNL     1       0.458   9.700  21.362  0.00  0.00    +0.000 A 
ATOM     23  C   UNL     1       0.521  10.262  20.087  0.00  0.00    +0.000 A 
ATOM     24  C   UNL     1       1.190   9.592  19.048  0.00  0.00    +0.000 A 
ATOM     25  C   UNL     1       1.823   8.356  19.253  0.00  0.00    +0.000 A 
ATOM     26  C   UNL     1       1.729   7.798  20.538  0.00  0.00    +0.000 A 
ATOM     27  C   UNL     1       1.060   8.459  21.585  0.00  0.00    +0.000 A 
BRANCH  22  29
ATOM     28  O   UNL     1      -0.129  10.161  23.616  0.00  0.00    +0.000 OA
ATOM     29  C   UNL     1      -0.311  10.407  22.428  0.00  0.00    +0.000 C 
ATOM     30  N   UNL     1      -1.242  11.328  21.998  0.00  0.00    +0.000 N 
ATOM     31  H   UNL     1      -1.665  11.278  21.078  0.00  0.00    +0.000 HD
BRANCH  30  32
ATOM     32  O   UNL     1      -2.041  11.898  23.017  0.00  0.00    +0.000 OA
ATOM     33  H   UNL     1      -2.677  12.446  22.506  0.00  0.00    +0.000 HD
ENDBRANCH  30  32
ENDBRANCH  22  29
ENDBRANCH  20  25
ENDBRANCH  19  20
ENDBRANCH   1  19
TORSDOF 7
ENDMDL
MODEL 2
REMARK VINA RESULT:      -8.8      0.252      1.542
REMARK  Name = 
REMARK  7 active torsions:
REMARK  status: ('A' for Active; 'I' for Inactive)
REMARK    1  A    between atoms: C_2  and  C_5
REMARK    2  A    between atoms: N_3  and  O_4
REMARK    3  A    between atoms: C_8  and  N_9
REMARK    4  A    between atoms: N_9  and  C_10
REMARK    5  A    between atoms: C_10  and  C_11
REMARK    6  A    between atoms: C_13  and  C_14
REMARK    7  A    between atoms: N_22  and  C_23
REMARK                            x       y       z     vdW  Elec       q    Type
REMARK                         _______ _______ _______ _____ _____    ______ ____
ROOT
ATOM      1  C   UNL     1       4.057   5.975  17.418  0.00  0.00    +0.000 A 
ATOM      2  N   UNL     1       4.768   6.164  16.311  0.00  0.00    +0.000 NA
ATOM      3  C   UNL     1       5.025   4.887  15.855  0.00  0.00    +0.000 A 
ATOM      4  N   UNL     1       4.583   3.932  16.677  0.00  0.00    +0.000 NA
ATOM      5  N   UNL     1       3.850   4.609  17.585  0.00  0.00    +0.000 N 
ENDROOT
BRANCH   3   6
ATOM      6  C   UNL     1       5.715   4.565  14.601  0.00  0.00    +0.000 A 
ATOM      7  C   UNL     1       5.159   3.689  13.659  0.00  0.00    +0.000 A 
ATOM      8  C   UNL     1       5.849   3.385  12.478  0.00  0.00    +0.000 A 
ATOM      9  C   UNL     1       7.096   3.954  12.235  0.00  0.00    +0.000 A 
ATOM     10  F   UNL     1       7.749   3.661  11.105  0.00  0.00    +0.000 F 
ATOM     11  C   UNL     1       7.674   4.815  13.156  0.00  0.00    +0.000 A 
ATOM     12  C   UNL     1       6.987   5.116  14.333  0.00  0.00    +0.000 A 
ENDBRANCH   3   6
BRANCH   5  13
ATOM     13  C   UNL     1       3.039   3.875  18.495  0.00  0.00    +0.000 A 
ATOM     14  C   UNL     1       1.721   3.557  18.117  0.00  0.00    +0.000 A 
ATOM     15  C   UNL     1       0.892   2.840  18.981  0.00  0.00    +0.000 A 
ATOM     16  C   UNL     1       1.359   2.455  20.235  0.00  0.00    +0.000 A 
ATOM     17  C   UNL     1       2.647   2.802  20.632  0.00  0.00    +0.000 A 
ATOM     18  C   UNL     1       3.484   3.517  19.770  0.00  0.00    +0.000 A 
ENDBRANCH   5  13
BRANCH   1  19
ATOM     19  C   UNL     1       3.615   7.002  18.431  0.00  0.00    +0.000 C 
BRANCH  19  20
ATOM     20  N   UNL     1       2.487   7.870  18.079  0.00  0.00    +0.000 N 
ATOM     21  H   UNL     1       2.711   8.494  17.308  0.00  0.00    +0.000 HD
BRANCH  20  25
ATOM     22  C   UNL     1       0.372   9.696  21.278  0.00  0.00    +0.000 A 
ATOM     23  C   UNL     1       1.114   8.529  21.472  0.00  0.00    +0.000 A 
ATOM     24  C   UNL     1       1.778   7.924  20.391  0.00  0.00    +0.000 A 
ATOM     25  C   UNL     1       1.711   8.452  19.092  0.00  0.00    +0.000 A 
ATOM     26  C   UNL     1       0.978   9.637  18.925  0.00  0.00    +0.000 A 
ATOM     27  C   UNL     1       0.310  10.254  19.999  0.00  0.00    +0.000 A 
BRANCH  22  29
ATOM     28  O   UNL     1      -0.220   9.841  23.572  0.00  0.00    +0.000 OA
ATOM     29  C   UNL     1      -0.271  10.347  22.456  0.00  0.00    +0.000 C 
ATOM     30  N   UNL     1      -0.936  11.530  22.211  0.00  0.00    +0.000 N 
ATOM     31  H   UNL     1      -1.305  11.761  21.295  0.00  0.00    +0.000 HD
BRANCH  30  32
ATOM     32  O   UNL     1      -1.638  12.067  23.315  0.00  0.00    +0.000 OA
ATOM     33  H   UNL     1      -0.911  12.326  23.923  0.00  0.00    +0.000 HD
ENDBRANCH  30  32
ENDBRANCH  22  29
ENDBRANCH  20  25
ENDBRANCH  19  20
ENDBRANCH   1  19
TORSDOF 7
ENDMDL
MODEL 3
REMARK VINA RESULT:      -8.6      1.729      2.102
REMARK  Name = 
REMARK  7 active torsions:
REMARK  status: ('A' for Active; 'I' for Inactive)
REMARK    1  A    between atoms: C_2  and  C_5
REMARK    2  A    between atoms: N_3  and  O_4
REMARK    3  A    between atoms: C_8  and  N_9
REMARK    4  A    between atoms: N_9  and  C_10
REMARK    5  A    between atoms: C_10  and  C_11
REMARK    6  A    between atoms: C_13  and  C_14
REMARK    7  A    between atoms: N_22  and  C_23
REMARK                            x       y       z     vdW  Elec       q    Type
REMARK                         _______ _______ _______ _____ _____    ______ ____
ROOT
ATOM      1  C   UNL     1       4.584   5.512  17.926  0.00  0.00    +0.000 A 
ATOM      2  N   UNL     1       5.371   5.769  16.886  0.00  0.00    +0.000 NA
ATOM      3  C   UNL     1       5.271   4.637  16.102  0.00  0.00    +0.000 A 
ATOM      4  N   UNL     1       4.534   3.672  16.657  0.00  0.00    +0.000 NA
ATOM      5  N   UNL     1       3.985   4.271  17.734  0.00  0.00    +0.000 N 
ENDROOT
BRANCH   3   6
ATOM      6  C   UNL     1       5.897   4.469  14.787  0.00  0.00    +0.000 A 
ATOM      7  C   UNL     1       7.105   5.100  14.460  0.00  0.00    +0.000 A 
ATOM      8  C   UNL     1       7.671   4.935  13.188  0.00  0.00    +0.000 A 
ATOM      9  C   UNL     1       7.032   4.141  12.240  0.00  0.00    +0.000 A 
ATOM     10  F   UNL     1       7.578   3.987  11.029  0.00  0.00    +0.000 F 
ATOM     11  C   UNL     1       5.830   3.515  12.533  0.00  0.00    +0.000 A 
ATOM     12  C   UNL     1       5.266   3.680  13.800  0.00  0.00    +0.000 A 
ENDBRANCH   3   6
BRANCH   5  13
ATOM     13  C   UNL     1       2.955   3.592  18.444  0.00  0.00    +0.000 A 
ATOM     14  C   UNL     1       3.289   2.917  19.633  0.00  0.00    +0.000 A 
ATOM     15  C   UNL     1       2.311   2.237  20.358  0.00  0.00    +0.000 A 
ATOM     16  C   UNL     1       0.997   2.206  19.897  0.00  0.00    +0.000 A 
ATOM     17  C   UNL     1       0.667   2.836  18.700  0.00  0.00    +0.000 A 
ATOM     18  C   UNL     1       1.643   3.522  17.970  0.00  0.00    +0.000 A 
ENDBRANCH   5  13
BRANCH   1  19
ATOM     19  C   UNL     1       4.409   6.320  19.188  0.00  0.00    +0.000 C 
BRANCH  19  20
ATOM     20  N   UNL     1       3.057   6.438  19.744  0.00  0.00    +0.000 N 
ATOM     21  H   UNL     1       2.566   5.547  19.747  0.00  0.00    +0.000 HD
BRANCH  20  25
ATOM     22  C   UNL     1       0.797   9.933  18.895  0.00  0.00    +0.000 A 
ATOM     23  C   UNL     1       0.804   9.366  20.170  0.00  0.00    +0.000 A 
ATOM     24  C   UNL     1       1.532   8.190  20.419  0.00  0.00    +0.000 A 
ATOM     25  C   UNL     1       2.259   7.542  19.408  0.00  0.00    +0.000 A 
ATOM     26  C   UNL     1       2.256   8.141  18.139  0.00  0.00    +0.000 A 
ATOM     27  C   UNL     1       1.532   9.319  17.877  0.00  0.00    +0.000 A 
BRANCH  22  29
ATOM     28  O   UNL     1       0.247  12.185  19.403  0.00  0.00    +0.000 OA
ATOM     29  C   UNL     1       0.064  11.214  18.676  0.00  0.00    +0.000 C 
ATOM     30  N   UNL     1      -0.836  11.231  17.632  0.00  0.00    +0.000 N 
ATOM     31  H   UNL     1      -1.268  10.384  17.279  0.00  0.00    +0.000 HD
BRANCH  30  32
ATOM     32  O   UNL     1      -1.605  12.412  17.518  0.00  0.00    +0.000 OA
ATOM     33  H   UNL     1      -1.147  13.024  18.136  0.00  0.00    +0.000 HD
ENDBRANCH  30  32
ENDBRANCH  22  29
ENDBRANCH  20  25
ENDBRANCH  19  20
ENDBRANCH   1  19
TORSDOF 7
ENDMDL
MODEL 4
REMARK VINA RESULT:      -8.6      0.522      1.345
REMARK  Name = 
REMARK  7 active torsions:
REMARK  status: ('A' for Active; 'I' for Inactive)
REMARK    1  A    between atoms: C_2  and  C_5
REMARK    2  A    between atoms: N_3  and  O_4
REMARK    3  A    between atoms: C_8  and  N_9
REMARK    4  A    between atoms: N_9  and  C_10
REMARK    5  A    between atoms: C_10  and  C_11
REMARK    6  A    between atoms: C_13  and  C_14
REMARK    7  A    between atoms: N_22  and  C_23
REMARK                            x       y       z     vdW  Elec       q    Type
REMARK                         _______ _______ _______ _____ _____    ______ ____
ROOT
ATOM      1  C   UNL     1       4.321   6.229  17.004  0.00  0.00    +0.000 A 
ATOM      2  N   UNL     1       5.012   6.311  15.872  0.00  0.00    +0.000 NA
ATOM      3  C   UNL     1       5.209   4.997  15.502  0.00  0.00    +0.000 A 
ATOM      4  N   UNL     1       4.750   4.119  16.399  0.00  0.00    +0.000 NA
ATOM      5  N   UNL     1       4.066   4.887  17.272  0.00  0.00    +0.000 N 
ENDROOT
BRANCH   3   6
ATOM      6  C   UNL     1       5.856   4.561  14.260  0.00  0.00    +0.000 A 
ATOM      7  C   UNL     1       5.250   3.632  13.402  0.00  0.00    +0.000 A 
ATOM      8  C   UNL     1       5.900   3.220  12.230  0.00  0.00    +0.000 A 
ATOM      9  C   UNL     1       7.155   3.733  11.913  0.00  0.00    +0.000 A 
ATOM     10  F   UNL     1       7.768   3.337  10.792  0.00  0.00    +0.000 F 
ATOM     11  C   UNL     1       7.781   4.644  12.750  0.00  0.00    +0.000 A 
ATOM     12  C   UNL     1       7.134   5.053  13.919  0.00  0.00    +0.000 A 
ENDBRANCH   3   6
BRANCH   5  13
ATOM     13  C   UNL     1       3.250   4.251  18.248  0.00  0.00    +0.000 A 
ATOM     14  C   UNL     1       3.876   3.577  19.313  0.00  0.00    +0.000 A 
ATOM     15  C   UNL     1       3.113   2.938  20.291  0.00  0.00    +0.000 A 
ATOM     16  C   UNL     1       1.723   2.947  20.207  0.00  0.00    +0.000 A 
ATOM     17  C   UNL     1       1.097   3.576  19.134  0.00  0.00    +0.000 A 
ATOM     18  C   UNL     1       1.856   4.221  18.152  0.00  0.00    +0.000 A 
ENDBRANCH   5  13
BRANCH   1  19
ATOM     19  C   UNL     1       3.944   7.340  17.952  0.00  0.00    +0.000 C 
BRANCH  19  20
ATOM     20  N   UNL     1       2.745   8.126  17.643  0.00  0.00    +0.000 N 
ATOM     21  H   UNL     1       2.920   8.824  16.924  0.00  0.00    +0.000 HD
BRANCH  20  25
ATOM     22  C   UNL     1       0.432   9.490  20.933  0.00  0.00    +0.000 A 
ATOM     23  C   UNL     1       1.212   8.337  21.024  0.00  0.00    +0.000 A 
ATOM     24  C   UNL     1       1.942   7.885  19.912  0.00  0.00    +0.000 A 
ATOM     25  C   UNL     1       1.906   8.558  18.681  0.00  0.00    +0.000 A 
ATOM     26  C   UNL     1       1.133   9.728  18.618  0.00  0.00    +0.000 A 
ATOM     27  C   UNL     1       0.398  10.191  19.726  0.00  0.00    +0.000 A 
BRANCH  22  29
ATOM     28  O   UNL     1      -0.756   9.195  22.967  0.00  0.00    +0.000 OA
ATOM     29  C   UNL     1      -0.284   9.977  22.149  0.00  0.00    +0.000 C 
ATOM     30  N   UNL     1      -0.399  11.344  22.282  0.00  0.00    +0.000 N 
ATOM     31  H   UNL     1      -0.365  11.968  21.484  0.00  0.00    +0.000 HD
BRANCH  30  32
ATOM     32  O   UNL     1      -1.183  11.781  23.376  0.00  0.00    +0.000 OA
ATOM     33  H   UNL     1      -1.572  12.617  23.038  0.00  0.00    +0.000 HD
ENDBRANCH  30  32
ENDBRANCH  22  29
ENDBRANCH  20  25
ENDBRANCH  19  20
ENDBRANCH   1  19
TORSDOF 7
ENDMDL
MODEL 5
REMARK VINA RESULT:      -8.5      1.668      2.410
REMARK  Name = 
REMARK  7 active torsions:
REMARK  status: ('A' for Active; 'I' for Inactive)
REMARK    1  A    between atoms: C_2  and  C_5
REMARK    2  A    between atoms: N_3  and  O_4
REMARK    3  A    between atoms: C_8  and  N_9
REMARK    4  A    between atoms: N_9  and  C_10
REMARK    5  A    between atoms: C_10  and  C_11
REMARK    6  A    between atoms: C_13  and  C_14
REMARK    7  A    between atoms: N_22  and  C_23
REMARK                            x       y       z     vdW  Elec       q    Type
REMARK                         _______ _______ _______ _____ _____    ______ ____
ROOT
ATOM      1  C   UNL     1       4.488   5.734  17.900  0.00  0.00    +0.000 A 
ATOM      2  N   UNL     1       5.211   5.968  16.810  0.00  0.00    +0.000 NA
ATOM      3  C   UNL     1       5.197   4.766  16.133  0.00  0.00    +0.000 A 
ATOM      4  N   UNL     1       4.577   3.789  16.800  0.00  0.00    +0.000 NA
ATOM      5  N   UNL     1       4.008   4.429  17.842  0.00  0.00    +0.000 N 
ENDROOT
BRANCH   3   6
ATOM      6  C   UNL     1       5.793   4.538  14.812  0.00  0.00    +0.000 A 
ATOM      7  C   UNL     1       5.177   3.716  13.859  0.00  0.00    +0.000 A 
ATOM      8  C   UNL     1       5.779   3.501  12.611  0.00  0.00    +0.000 A 
ATOM      9  C   UNL     1       6.996   4.106  12.313  0.00  0.00    +0.000 A 
ATOM     10  F   UNL     1       7.565   3.898  11.120  0.00  0.00    +0.000 F 
ATOM     11  C   UNL     1       7.633   4.914  13.242  0.00  0.00    +0.000 A 
ATOM     12  C   UNL     1       7.034   5.127  14.486  0.00  0.00    +0.000 A 
ENDBRANCH   3   6
BRANCH   5  13
ATOM     13  C   UNL     1       3.074   3.724  18.651  0.00  0.00    +0.000 A 
ATOM     14  C   UNL     1       1.751   3.589  18.191  0.00  0.00    +0.000 A 
ATOM     15  C   UNL     1       0.803   2.907  18.954  0.00  0.00    +0.000 A 
ATOM     16  C   UNL     1       1.157   2.372  20.190  0.00  0.00    +0.000 A 
ATOM     17  C   UNL     1       2.453   2.537  20.671  0.00  0.00    +0.000 A 
ATOM     18  C   UNL     1       3.409   3.217  19.910  0.00  0.00    +0.000 A 
ENDBRANCH   5  13
BRANCH   1  19
ATOM     19  C   UNL     1       4.277   6.633  19.093  0.00  0.00    +0.000 C 
BRANCH  19  20
ATOM     20  N   UNL     1       2.944   6.656  19.705  0.00  0.00    +0.000 N 
ATOM     21  H   UNL     1       2.521   5.732  19.733  0.00  0.00    +0.000 HD
BRANCH  20  25
ATOM     22  C   UNL     1       0.403   9.972  18.938  0.00  0.00    +0.000 A 
ATOM     23  C   UNL     1       0.521   9.430  20.218  0.00  0.00    +0.000 A 
ATOM     24  C   UNL     1       1.341   8.311  20.442  0.00  0.00    +0.000 A 
ATOM     25  C   UNL     1       2.054   7.696  19.401  0.00  0.00    +0.000 A 
ATOM     26  C   UNL     1       1.939   8.271  18.125  0.00  0.00    +0.000 A 
ATOM     27  C   UNL     1       1.121   9.392  17.889  0.00  0.00    +0.000 A 
BRANCH  22  29
ATOM     28  O   UNL     1      -1.561  11.276  19.206  0.00  0.00    +0.000 OA
ATOM     29  C   UNL     1      -0.428  11.195  18.744  0.00  0.00    +0.000 C 
ATOM     30  N   UNL     1       0.143  12.209  18.004  0.00  0.00    +0.000 N 
ATOM     31  H   UNL     1       0.874  12.034  17.324  0.00  0.00    +0.000 HD
BRANCH  30  32
ATOM     32  O   UNL     1      -0.705  13.308  17.731  0.00  0.00    +0.000 OA
ATOM     33  H   UNL     1      -0.140  13.878  17.165  0.00  0.00    +0.000 HD
ENDBRANCH  30  32
ENDBRANCH  22  29
ENDBRANCH  20  25
ENDBRANCH  19  20
ENDBRANCH   1  19
TORSDOF 7
ENDMDL
MODEL 6
REMARK VINA RESULT:      -8.4      1.869      2.298
REMARK  Name = 
REMARK  7 active torsions:
REMARK  status: ('A' for Active; 'I' for Inactive)
REMARK    1  A    between atoms: C_2  and  C_5
REMARK    2  A    between atoms: N_3  and  O_4
REMARK    3  A    between atoms: C_8  and  N_9
REMARK    4  A    between atoms: N_9  and  C_10
REMARK    5  A    between atoms: C_10  and  C_11
REMARK    6  A    between atoms: C_13  and  C_14
REMARK    7  A    between atoms: N_22  and  C_23
REMARK                            x       y       z     vdW  Elec       q    Type
REMARK                         _______ _______ _______ _____ _____    ______ ____
ROOT
ATOM      1  C   UNL     1       4.533   5.602  17.928  0.00  0.00    +0.000 A 
ATOM      2  N   UNL     1       5.300   5.843  16.869  0.00  0.00    +0.000 NA
ATOM      3  C   UNL     1       5.197   4.695  16.112  0.00  0.00    +0.000 A 
ATOM      4  N   UNL     1       4.477   3.735  16.699  0.00  0.00    +0.000 NA
ATOM      5  N   UNL     1       3.941   4.352  17.772  0.00  0.00    +0.000 N 
ENDROOT
BRANCH   3   6
ATOM      6  C   UNL     1       5.803   4.503  14.790  0.00  0.00    +0.000 A 
ATOM      7  C   UNL     1       5.196   3.704  13.811  0.00  0.00    +0.000 A 
ATOM      8  C   UNL     1       5.807   3.524  12.562  0.00  0.00    +0.000 A 
ATOM      9  C   UNL     1       7.025   4.140  12.289  0.00  0.00    +0.000 A 
ATOM     10  F   UNL     1       7.603   3.965  11.095  0.00  0.00    +0.000 F 
ATOM     11  C   UNL     1       7.653   4.925  13.244  0.00  0.00    +0.000 A 
ATOM     12  C   UNL     1       7.044   5.103  14.488  0.00  0.00    +0.000 A 
ENDBRANCH   3   6
BRANCH   5  13
ATOM     13  C   UNL     1       2.929   3.681  18.513  0.00  0.00    +0.000 A 
ATOM     14  C   UNL     1       3.296   2.997  19.687  0.00  0.00    +0.000 A 
ATOM     15  C   UNL     1       2.335   2.323  20.442  0.00  0.00    +0.000 A 
ATOM     16  C   UNL     1       1.007   2.307  20.024  0.00  0.00    +0.000 A 
ATOM     17  C   UNL     1       0.643   2.945  18.842  0.00  0.00    +0.000 A 
ATOM     18  C   UNL     1       1.601   3.625  18.083  0.00  0.00    +0.000 A 
ENDBRANCH   5  13
BRANCH   1  19
ATOM     19  C   UNL     1       4.371   6.436  19.175  0.00  0.00    +0.000 C 
BRANCH  19  20
ATOM     20  N   UNL     1       3.027   6.559  19.747  0.00  0.00    +0.000 N 
ATOM     21  H   UNL     1       2.525   5.674  19.739  0.00  0.00    +0.000 HD
BRANCH  20  25
ATOM     22  C   UNL     1       0.469   9.778  18.681  0.00  0.00    +0.000 A 
ATOM     23  C   UNL     1       1.207   9.089  17.718  0.00  0.00    +0.000 A 
ATOM     24  C   UNL     1       2.073   8.049  18.097  0.00  0.00    +0.000 A 
ATOM     25  C   UNL     1       2.238   7.677  19.441  0.00  0.00    +0.000 A 
ATOM     26  C   UNL     1       1.469   8.369  20.391  0.00  0.00    +0.000 A 
ATOM     27  C   UNL     1       0.597   9.411  20.022  0.00  0.00    +0.000 A 
BRANCH  22  29
ATOM     28  O   UNL     1      -1.630  10.558  17.893  0.00  0.00    +0.000 OA
ATOM     29  C   UNL     1      -0.487  10.836  18.240  0.00  0.00    +0.000 C 
ATOM     30  N   UNL     1      -0.003  12.127  18.228  0.00  0.00    +0.000 N 
ATOM     31  H   UNL     1       0.985  12.331  18.142  0.00  0.00    +0.000 HD
BRANCH  30  32
ATOM     32  O   UNL     1      -0.885  13.096  17.695  0.00  0.00    +0.000 OA
ATOM     33  H   UNL     1      -0.468  13.940  17.975  0.00  0.00    +0.000 HD
ENDBRANCH  30  32
ENDBRANCH  22  29
ENDBRANCH  20  25
ENDBRANCH  19  20
ENDBRANCH   1  19
TORSDOF 7
ENDMDL
MODEL 7
REMARK VINA RESULT:      -8.2      0.778      1.585
REMARK  Name = 
REMARK  7 active torsions:
REMARK  status: ('A' for Active; 'I' for Inactive)
REMARK    1  A    between atoms: C_2  and  C_5
REMARK    2  A    between atoms: N_3  and  O_4
REMARK    3  A    between atoms: C_8  and  N_9
REMARK    4  A    between atoms: N_9  and  C_10
REMARK    5  A    between atoms: C_10  and  C_11
REMARK    6  A    between atoms: C_13  and  C_14
REMARK    7  A    between atoms: N_22  and  C_23
REMARK                            x       y       z     vdW  Elec       q    Type
REMARK                         _______ _______ _______ _____ _____    ______ ____
ROOT
ATOM      1  C   UNL     1       3.884   6.024  17.475  0.00  0.00    +0.000 A 
ATOM      2  N   UNL     1       4.609   6.209  16.377  0.00  0.00    +0.000 NA
ATOM      3  C   UNL     1       4.960   4.932  15.988  0.00  0.00    +0.000 A 
ATOM      4  N   UNL     1       4.559   3.988  16.843  0.00  0.00    +0.000 NA
ATOM      5  N   UNL     1       3.760   4.657  17.701  0.00  0.00    +0.000 N 
ENDROOT
BRANCH   3   6
ATOM      6  C   UNL     1       5.701   4.600  14.766  0.00  0.00    +0.000 A 
ATOM      7  C   UNL     1       6.969   5.136  14.506  0.00  0.00    +0.000 A 
ATOM      8  C   UNL     1       7.647   4.815  13.321  0.00  0.00    +0.000 A 
ATOM      9  C   UNL     1       7.059   3.959  12.394  0.00  0.00    +0.000 A 
ATOM     10  F   UNL     1       7.711   3.656  11.266  0.00  0.00    +0.000 F 
ATOM     11  C   UNL     1       5.800   3.425  12.621  0.00  0.00    +0.000 A 
ATOM     12  C   UNL     1       5.125   3.746  13.801  0.00  0.00    +0.000 A 
ENDBRANCH   3   6
BRANCH   5  13
ATOM     13  C   UNL     1       2.975   3.913  18.626  0.00  0.00    +0.000 A 
ATOM     14  C   UNL     1       1.699   3.475  18.226  0.00  0.00    +0.000 A 
ATOM     15  C   UNL     1       0.896   2.745  19.103  0.00  0.00    +0.000 A 
ATOM     16  C   UNL     1       1.347   2.464  20.391  0.00  0.00    +0.000 A 
ATOM     17  C   UNL     1       2.590   2.931  20.807  0.00  0.00    +0.000 A 
ATOM     18  C   UNL     1       3.401   3.660  19.932  0.00  0.00    +0.000 A 
ENDBRANCH   5  13
BRANCH   1  19
ATOM     19  C   UNL     1       3.351   7.065  18.429  0.00  0.00    +0.000 C 
BRANCH  19  20
ATOM     20  N   UNL     1       2.765   8.281  17.858  0.00  0.00    +0.000 N 
ATOM     21  H   UNL     1       3.460   8.856  17.388  0.00  0.00    +0.000 HD
BRANCH  20  25
ATOM     22  C   UNL     1       0.054  10.498  20.262  0.00  0.00    +0.000 A 
ATOM     23  C   UNL     1       0.508   9.238  20.655  0.00  0.00    +0.000 A 
ATOM     24  C   UNL     1       1.378   8.508  19.827  0.00  0.00    +0.000 A 
ATOM     25  C   UNL     1       1.807   9.003  18.586  0.00  0.00    +0.000 A 
ATOM     26  C   UNL     1       1.356  10.281  18.220  0.00  0.00    +0.000 A 
ATOM     27  C   UNL     1       0.486  11.023  19.041  0.00  0.00    +0.000 A 
BRANCH  22  29
ATOM     28  O   UNL     1      -1.847  11.816  20.793  0.00  0.00    +0.000 OA
ATOM     29  C   UNL     1      -0.821  11.273  21.189  0.00  0.00    +0.000 C 
ATOM     30  N   UNL     1      -0.397  11.358  22.498  0.00  0.00    +0.000 N 
ATOM     31  H   UNL     1       0.578  11.259  22.757  0.00  0.00    +0.000 HD
BRANCH  30  32
ATOM     32  O   UNL     1      -1.176  12.196  23.331  0.00  0.00    +0.000 OA
ATOM     33  H   UNL     1      -1.750  12.663  22.685  0.00  0.00    +0.000 HD
ENDBRANCH  30  32
ENDBRANCH  22  29
ENDBRANCH  20  25
ENDBRANCH  19  20
ENDBRANCH   1  19
TORSDOF 7
ENDMDL
MODEL 8
REMARK VINA RESULT:      -8.2      1.288      1.940
REMARK  Name = 
REMARK  7 active torsions:
REMARK  status: ('A' for Active; 'I' for Inactive)
REMARK    1  A    between atoms: C_2  and  C_5
REMARK    2  A    between atoms: N_3  and  O_4
REMARK    3  A    between atoms: C_8  and  N_9
REMARK    4  A    between atoms: N_9  and  C_10
REMARK    5  A    between atoms: C_10  and  C_11
REMARK    6  A    between atoms: C_13  and  C_14
REMARK    7  A    between atoms: N_22  and  C_23
REMARK                            x       y       z     vdW  Elec       q    Type
REMARK                         _______ _______ _______ _____ _____    ______ ____
ROOT
ATOM      1  C   UNL     1       4.232   5.889  17.525  0.00  0.00    +0.000 A 
ATOM      2  N   UNL     1       4.935   6.085  16.413  0.00  0.00    +0.000 NA
ATOM      3  C   UNL     1       5.091   4.819  15.889  0.00  0.00    +0.000 A 
ATOM      4  N   UNL     1       4.596   3.855  16.670  0.00  0.00    +0.000 NA
ATOM      5  N   UNL     1       3.930   4.535  17.627  0.00  0.00    +0.000 N 
ENDROOT
BRANCH   3   6
ATOM      6  C   UNL     1       5.733   4.514  14.605  0.00  0.00    +0.000 A 
ATOM      7  C   UNL     1       5.141   3.651  13.673  0.00  0.00    +0.000 A 
ATOM      8  C   UNL     1       5.787   3.364  12.462  0.00  0.00    +0.000 A 
ATOM      9  C   UNL     1       7.024   3.937  12.179  0.00  0.00    +0.000 A 
ATOM     10  F   UNL     1       7.633   3.660  11.022  0.00  0.00    +0.000 F 
ATOM     11  C   UNL     1       7.636   4.785  13.090  0.00  0.00    +0.000 A 
ATOM     12  C   UNL     1       6.994   5.069  14.297  0.00  0.00    +0.000 A 
ENDBRANCH   3   6
BRANCH   5  13
ATOM     13  C   UNL     1       3.086   3.814  18.516  0.00  0.00    +0.000 A 
ATOM     14  C   UNL     1       1.776   3.508  18.103  0.00  0.00    +0.000 A 
ATOM     15  C   UNL     1       0.915   2.805  18.945  0.00  0.00    +0.000 A 
ATOM     16  C   UNL     1       1.342   2.419  20.213  0.00  0.00    +0.000 A 
ATOM     17  C   UNL     1       2.621   2.754  20.646  0.00  0.00    +0.000 A 
ATOM     18  C   UNL     1       3.491   3.455  19.805  0.00  0.00    +0.000 A 
ENDBRANCH   5  13
BRANCH   1  19
ATOM     19  C   UNL     1       3.884   6.891  18.599  0.00  0.00    +0.000 C 
BRANCH  19  20
ATOM     20  N   UNL     1       2.511   6.892  19.114  0.00  0.00    +0.000 N 
ATOM     21  H   UNL     1       1.940   6.168  18.684  0.00  0.00    +0.000 HD
BRANCH  20  25
ATOM     22  C   UNL     1       0.299  10.488  19.578  0.00  0.00    +0.000 A 
ATOM     23  C   UNL     1       0.886  10.150  18.358  0.00  0.00    +0.000 A 
ATOM     24  C   UNL     1       1.642   8.972  18.236  0.00  0.00    +0.000 A 
ATOM     25  C   UNL     1       1.845   8.108  19.324  0.00  0.00    +0.000 A 
ATOM     26  C   UNL     1       1.228   8.456  20.536  0.00  0.00    +0.000 A 
ATOM     27  C   UNL     1       0.467   9.633  20.669  0.00  0.00    +0.000 A 
BRANCH  22  29
ATOM     28  O   UNL     1      -0.162  12.717  20.253  0.00  0.00    +0.000 OA
ATOM     29  C   UNL     1      -0.547  11.714  19.659  0.00  0.00    +0.000 C 
ATOM     30  N   UNL     1      -1.781  11.644  19.050  0.00  0.00    +0.000 N 
ATOM     31  H   UNL     1      -2.258  10.763  18.897  0.00  0.00    +0.000 HD
BRANCH  30  32
ATOM     32  O   UNL     1      -2.613  12.773  19.241  0.00  0.00    +0.000 OA
ATOM     33  H   UNL     1      -3.385  12.567  18.669  0.00  0.00    +0.000 HD
ENDBRANCH  30  32
ENDBRANCH  22  29
ENDBRANCH  20  25
ENDBRANCH  19  20
ENDBRANCH   1  19
TORSDOF 7
ENDMDL
MODEL 9
REMARK VINA RESULT:      -8.1      1.390      1.571
REMARK  Name = 
REMARK  7 active torsions:
REMARK  status: ('A' for Active; 'I' for Inactive)
REMARK    1  A    between atoms: C_2  and  C_5
REMARK    2  A    between atoms: N_3  and  O_4
REMARK    3  A    between atoms: C_8  and  N_9
REMARK    4  A    between atoms: N_9  and  C_10
REMARK    5  A    between atoms: C_10  and  C_11
REMARK    6  A    between atoms: C_13  and  C_14
REMARK    7  A    between atoms: N_22  and  C_23
REMARK                            x       y       z     vdW  Elec       q    Type
REMARK                         _______ _______ _______ _____ _____    ______ ____
ROOT
ATOM      1  C   UNL     1       4.218   5.911  17.503  0.00  0.00    +0.000 A 
ATOM      2  N   UNL     1       4.957   6.112  16.417  0.00  0.00    +0.000 NA
ATOM      3  C   UNL     1       5.132   4.848  15.891  0.00  0.00    +0.000 A 
ATOM      4  N   UNL     1       4.612   3.881  16.651  0.00  0.00    +0.000 NA
ATOM      5  N   UNL     1       3.913   4.555  17.588  0.00  0.00    +0.000 N 
ENDROOT
BRANCH   3   6
ATOM      6  C   UNL     1       5.817   4.551  14.629  0.00  0.00    +0.000 A 
ATOM      7  C   UNL     1       7.057   5.122  14.312  0.00  0.00    +0.000 A 
ATOM      8  C   UNL     1       7.680   4.834  13.089  0.00  0.00    +0.000 A 
ATOM      9  C   UNL     1       7.067   3.976  12.181  0.00  0.00    +0.000 A 
ATOM     10  F   UNL     1       7.667   3.704  11.017  0.00  0.00    +0.000 F 
ATOM     11  C   UNL     1       5.835   3.407  12.465  0.00  0.00    +0.000 A 
ATOM     12  C   UNL     1       5.214   3.695  13.682  0.00  0.00    +0.000 A 
ENDBRANCH   3   6
BRANCH   5  13
ATOM     13  C   UNL     1       3.040   3.830  18.444  0.00  0.00    +0.000 A 
ATOM     14  C   UNL     1       3.488   3.492  19.735  0.00  0.00    +0.000 A 
ATOM     15  C   UNL     1       2.664   2.779  20.605  0.00  0.00    +0.000 A 
ATOM     16  C   UNL     1       1.396   2.377  20.193  0.00  0.00    +0.000 A 
ATOM     17  C   UNL     1       0.961   2.671  18.904  0.00  0.00    +0.000 A 
ATOM     18  C   UNL     1       1.781   3.389  18.027  0.00  0.00    +0.000 A 
ENDBRANCH   5  13
BRANCH   1  19
ATOM     19  C   UNL     1       3.833   6.906  18.569  0.00  0.00    +0.000 C 
BRANCH  19  20
ATOM     20  N   UNL     1       2.419   6.989  18.949  0.00  0.00    +0.000 N 
ATOM     21  H   UNL     1       1.845   6.327  18.433  0.00  0.00    +0.000 HD
BRANCH  20  25
ATOM     22  C   UNL     1       0.412  10.707  19.390  0.00  0.00    +0.000 A 
ATOM     23  C   UNL     1       0.969  10.324  18.169  0.00  0.00    +0.000 A 
ATOM     24  C   UNL     1       1.658   9.104  18.055  0.00  0.00    +0.000 A 
ATOM     25  C   UNL     1       1.823   8.243  19.151  0.00  0.00    +0.000 A 
ATOM     26  C   UNL     1       1.237   8.637  20.364  0.00  0.00    +0.000 A 
ATOM     27  C   UNL     1       0.543   9.855  20.490  0.00  0.00    +0.000 A 
BRANCH  22  29
ATOM     28  O   UNL     1       0.192  13.057  19.643  0.00  0.00    +0.000 OA
ATOM     29  C   UNL     1      -0.365  11.978  19.464  0.00  0.00    +0.000 C 
ATOM     30  N   UNL     1      -1.733  11.864  19.341  0.00  0.00    +0.000 N 
ATOM     31  H   UNL     1      -2.225  11.008  19.567  0.00  0.00    +0.000 HD
BRANCH  30  32
ATOM     32  O   UNL     1      -2.458  13.064  19.533  0.00  0.00    +0.000 OA
ATOM     33  H   UNL     1      -3.330  12.738  19.844  0.00  0.00    +0.000 HD
ENDBRANCH  30  32
ENDBRANCH  22  29
ENDBRANCH  20  25
ENDBRANCH  19  20
ENDBRANCH   1  19
TORSDOF 7
ENDMDL
