MODEL 1
REMARK VINA RESULT:      -7.8      0.000      0.000
REMARK  Name = 
REMARK  10 active torsions:
REMARK  status: ('A' for Active; 'I' for Inactive)
REMARK    1  A    between atoms: N_10  and  O_11
REMARK    2  A    between atoms: O_11  and  C_12
REMARK    3  A    between atoms: C_12  and  C_13
REMARK    4  A    between atoms: C_13  and  C_14
REMARK    5  A    between atoms: C_14  and  C_15
REMARK    6  A    between atoms: C_15  and  C_16
REMARK    7  A    between atoms: C_16  and  C_17
REMARK    8  A    between atoms: C_17  and  C_18
REMARK    9  A    between atoms: C_18  and  C_19
REMARK   10  A    between atoms: C_19  and  N_20
REMARK                            x       y       z     vdW  Elec       q    Type
REMARK                         _______ _______ _______ _____ _____    ______ ____
ROOT
ATOM      1  C   UNL     1       4.574   2.730  19.097  0.00  0.00    +0.000 C 
ENDROOT
BRANCH   1   2
ATOM      2  C   UNL     1       5.287   4.057  19.352  0.00  0.00    +0.000 C 
BRANCH   2   3
ATOM      3  O   UNL     1       6.462   4.218  18.554  0.00  0.00    +0.000 OA
BRANCH   3  13
ATOM      4  N   UNL     1       8.489   9.193  17.774  0.00  0.00    +0.000 N 
ATOM      5  C   UNL     1       7.972   7.944  17.877  0.00  0.00    +0.000 C 
ATOM      6  N   UNL     1       7.144   7.559  16.979  0.00  0.00    +0.000 NA
ATOM      7  C   UNL     1       6.595   6.192  17.055  0.00  0.00    +0.000 C 
ATOM      8  C   UNL     1       5.115   6.385  16.626  0.00  0.00    +0.000 C 
ATOM      9  C   UNL     1       4.407   5.267  15.857  0.00  0.00    +0.000 C 
ATOM     10  C   UNL     1       5.283   4.362  15.005  0.00  0.00    +0.000 C 
ATOM     11  C   UNL     1       6.688   4.111  15.529  0.00  0.00    +0.000 C 
ATOM     12  C   UNL     1       7.376   5.386  15.997  0.00  0.00    +0.000 C 
ATOM     13  N   UNL     1       6.694   5.612  18.408  0.00  0.00    +0.000 N 
ATOM     14  C   UNL     1       7.733   6.099  19.164  0.00  0.00    +0.000 C 
ATOM     15  N   UNL     1       8.115   5.356  20.238  0.00  0.00    +0.000 N 
ATOM     16  N   UNL     1       8.356   7.212  18.949  0.00  0.00    +0.000 NA
ATOM     17  H   UNL     1       7.920   9.804  17.203  0.00  0.00    +0.000 HD
ATOM     18  H   UNL     1       8.772   9.576  18.665  0.00  0.00    +0.000 HD
ATOM     19  H   UNL     1       7.388   4.769  20.615  0.00  0.00    +0.000 HD
ATOM     20  H   UNL     1       8.649   5.882  20.917  0.00  0.00    +0.000 HD
ENDBRANCH   3  13
ENDBRANCH   2   3
ENDBRANCH   1   2
BRANCH   1  21
ATOM     21  C   UNL     1       3.826   2.630  17.770  0.00  0.00    +0.000 C 
BRANCH  21  22
ATOM     22  C   UNL     1       2.417   2.039  17.856  0.00  0.00    +0.000 C 
BRANCH  22  23
ATOM     23  C   UNL     1       1.415   2.933  18.589  0.00  0.00    +0.000 C 
BRANCH  23  24
ATOM     24  C   UNL     1       1.712   4.411  18.313  0.00  0.00    +0.000 C 
BRANCH  24  25
ATOM     25  C   UNL     1       1.748   5.276  19.576  0.00  0.00    +0.000 C 
BRANCH  25  26
ATOM     26  C   UNL     1       2.752   6.423  19.478  0.00  0.00    +0.000 C 
BRANCH  26  27
ATOM     27  N   UNL     1       2.237   7.461  18.611  0.00  0.00    +0.000 N 
ATOM     28  C   UNL     1       1.686   8.566  19.240  0.00  0.00    +0.000 A 
ATOM     29  N   UNL     1       1.398   8.519  20.535  0.00  0.00    +0.000 NA
ATOM     30  C   UNL     1       0.836   9.604  21.036  0.00  0.00    +0.000 A 
ATOM     31  N   UNL     1       0.546   9.604  22.385  0.00  0.00    +0.000 N 
ATOM     32  N   UNL     1       0.564  10.700  20.351  0.00  0.00    +0.000 NA
ATOM     33  C   UNL     1       0.898  10.651  19.075  0.00  0.00    +0.000 A 
ATOM     34  N   UNL     1       0.575  11.747  18.292  0.00  0.00    +0.000 N 
ATOM     35  N   UNL     1       1.467   9.622  18.471  0.00  0.00    +0.000 NA
ATOM     36  H   UNL     1       2.793   7.761  17.821  0.00  0.00    +0.000 HD
ATOM     37  H   UNL     1       1.142   8.951  22.866  0.00  0.00    +0.000 HD
ATOM     38  H   UNL     1       0.521  10.552  22.735  0.00  0.00    +0.000 HD
ATOM     39  H   UNL     1      -0.202  12.240  18.711  0.00  0.00    +0.000 HD
ATOM     40  H   UNL     1       0.455  11.449  17.333  0.00  0.00    +0.000 HD
ENDBRANCH  26  27
ENDBRANCH  25  26
ENDBRANCH  24  25
ENDBRANCH  23  24
ENDBRANCH  22  23
ENDBRANCH  21  22
ENDBRANCH   1  21
TORSDOF 10
ENDMDL
MODEL 2
REMARK VINA RESULT:      -7.7      4.356      6.462
REMARK  Name = 
REMARK  10 active torsions:
REMARK  status: ('A' for Active; 'I' for Inactive)
REMARK    1  A    between atoms: N_10  and  O_11
REMARK    2  A    between atoms: O_11  and  C_12
REMARK    3  A    between atoms: C_12  and  C_13
REMARK    4  A    between atoms: C_13  and  C_14
REMARK    5  A    between atoms: C_14  and  C_15
REMARK    6  A    between atoms: C_15  and  C_16
REMARK    7  A    between atoms: C_16  and  C_17
REMARK    8  A    between atoms: C_17  and  C_18
REMARK    9  A    between atoms: C_18  and  C_19
REMARK   10  A    between atoms: C_19  and  N_20
REMARK                            x       y       z     vdW  Elec       q    Type
REMARK                         _______ _______ _______ _____ _____    ______ ____
ROOT
ATOM      1  C   UNL     1       2.365   8.632  18.239  0.00  0.00    +0.000 C 
ENDROOT
BRANCH   1   2
ATOM      2  C   UNL     1       2.262   7.108  18.258  0.00  0.00    +0.000 C 
BRANCH   2   3
ATOM      3  O   UNL     1       3.463   6.476  18.708  0.00  0.00    +0.000 OA
BRANCH   3  13
ATOM      4  N   UNL     1       6.243   3.212  15.379  0.00  0.00    +0.000 N 
ATOM      5  C   UNL     1       5.520   3.951  16.256  0.00  0.00    +0.000 C 
ATOM      6  N   UNL     1       4.488   3.414  16.791  0.00  0.00    +0.000 NA
ATOM      7  C   UNL     1       3.708   4.191  17.772  0.00  0.00    +0.000 C 
ATOM      8  C   UNL     1       2.241   3.811  17.432  0.00  0.00    +0.000 C 
ATOM      9  C   UNL     1       1.206   3.742  18.558  0.00  0.00    +0.000 C 
ATOM     10  C   UNL     1       1.726   3.401  19.945  0.00  0.00    +0.000 C 
ATOM     11  C   UNL     1       3.126   3.896  20.271  0.00  0.00    +0.000 C 
ATOM     12  C   UNL     1       4.119   3.628  19.148  0.00  0.00    +0.000 C 
ATOM     13  N   UNL     1       3.931   5.645  17.657  0.00  0.00    +0.000 N 
ATOM     14  C   UNL     1       5.161   5.997  17.155  0.00  0.00    +0.000 C 
ATOM     15  N   UNL     1       5.576   7.272  17.380  0.00  0.00    +0.000 N 
ATOM     16  N   UNL     1       5.939   5.221  16.472  0.00  0.00    +0.000 NA
ATOM     17  H   UNL     1       5.711   2.448  14.984  0.00  0.00    +0.000 HD
ATOM     18  H   UNL     1       6.747   3.777  14.710  0.00  0.00    +0.000 HD
ATOM     19  H   UNL     1       4.828   7.934  17.514  0.00  0.00    +0.000 HD
ATOM     20  H   UNL     1       6.313   7.568  16.753  0.00  0.00    +0.000 HD
ENDBRANCH   3  13
ENDBRANCH   2   3
ENDBRANCH   1   2
BRANCH   1  21
ATOM     21  C   UNL     1       1.110   9.370  17.777  0.00  0.00    +0.000 C 
BRANCH  21  22
ATOM     22  C   UNL     1       0.243   9.950  18.896  0.00  0.00    +0.000 C 
BRANCH  22  23
ATOM     23  C   UNL     1      -0.879  10.864  18.400  0.00  0.00    +0.000 C 
BRANCH  23  24
ATOM     24  C   UNL     1      -1.788  10.113  17.421  0.00  0.00    +0.000 C 
BRANCH  24  25
ATOM     25  C   UNL     1      -2.558  11.033  16.470  0.00  0.00    +0.000 C 
BRANCH  25  26
ATOM     26  C   UNL     1      -4.064  11.020  16.726  0.00  0.00    +0.000 C 
BRANCH  26  27
ATOM     27  N   UNL     1      -4.403  11.991  17.745  0.00  0.00    +0.000 N 
ATOM     28  C   UNL     1      -5.292  11.568  18.721  0.00  0.00    +0.000 A 
ATOM     29  N   UNL     1      -5.992  10.454  18.544  0.00  0.00    +0.000 NA
ATOM     30  C   UNL     1      -6.846  10.156  19.507  0.00  0.00    +0.000 A 
ATOM     31  N   UNL     1      -7.573   8.991  19.373  0.00  0.00    +0.000 N 
ATOM     32  N   UNL     1      -7.029  10.869  20.603  0.00  0.00    +0.000 NA
ATOM     33  C   UNL     1      -6.278  11.952  20.689  0.00  0.00    +0.000 A 
ATOM     34  N   UNL     1      -6.475  12.775  21.785  0.00  0.00    +0.000 N 
ATOM     35  N   UNL     1      -5.391  12.343  19.790  0.00  0.00    +0.000 NA
ATOM     36  H   UNL     1      -3.663  12.533  18.171  0.00  0.00    +0.000 HD
ATOM     37  H   UNL     1      -7.086   8.347  18.772  0.00  0.00    +0.000 HD
ATOM     38  H   UNL     1      -7.856   8.652  20.283  0.00  0.00    +0.000 HD
ATOM     39  H   UNL     1      -7.412  12.641  22.140  0.00  0.00    +0.000 HD
ATOM     40  H   UNL     1      -6.217  13.722  21.543  0.00  0.00    +0.000 HD
ENDBRANCH  26  27
ENDBRANCH  25  26
ENDBRANCH  24  25
ENDBRANCH  23  24
ENDBRANCH  22  23
ENDBRANCH  21  22
ENDBRANCH   1  21
TORSDOF 10
ENDMDL
MODEL 3
REMARK VINA RESULT:      -7.6      1.392      2.443
REMARK  Name = 
REMARK  10 active torsions:
REMARK  status: ('A' for Active; 'I' for Inactive)
REMARK    1  A    between atoms: N_10  and  O_11
REMARK    2  A    between atoms: O_11  and  C_12
REMARK    3  A    between atoms: C_12  and  C_13
REMARK    4  A    between atoms: C_13  and  C_14
REMARK    5  A    between atoms: C_14  and  C_15
REMARK    6  A    between atoms: C_15  and  C_16
REMARK    7  A    between atoms: C_16  and  C_17
REMARK    8  A    between atoms: C_17  and  C_18
REMARK    9  A    between atoms: C_18  and  C_19
REMARK   10  A    between atoms: C_19  and  N_20
REMARK                            x       y       z     vdW  Elec       q    Type
REMARK                         _______ _______ _______ _____ _____    ______ ____
ROOT
ATOM      1  C   UNL     1       2.409   2.406  17.678  0.00  0.00    +0.000 C 
ENDROOT
BRANCH   1   2
ATOM      2  C   UNL     1       3.231   3.679  17.486  0.00  0.00    +0.000 C 
BRANCH   2   3
ATOM      3  O   UNL     1       4.617   3.416  17.260  0.00  0.00    +0.000 OA
BRANCH   3  13
ATOM      4  N   UNL     1       8.288   6.825  19.351  0.00  0.00    +0.000 N 
ATOM      5  C   UNL     1       7.412   5.985  18.746  0.00  0.00    +0.000 C 
ATOM      6  N   UNL     1       7.160   6.169  17.504  0.00  0.00    +0.000 NA
ATOM      7  C   UNL     1       6.235   5.245  16.820  0.00  0.00    +0.000 C 
ATOM      8  C   UNL     1       5.428   6.187  15.887  0.00  0.00    +0.000 C 
ATOM      9  C   UNL     1       4.942   5.663  14.533  0.00  0.00    +0.000 C 
ATOM     10  C   UNL     1       5.770   4.562  13.889  0.00  0.00    +0.000 C 
ATOM     11  C   UNL     1       6.449   3.594  14.846  0.00  0.00    +0.000 C 
ATOM     12  C   UNL     1       7.141   4.302  16.003  0.00  0.00    +0.000 C 
ATOM     13  N   UNL     1       5.352   4.524  17.756  0.00  0.00    +0.000 N 
ATOM     14  C   UNL     1       5.877   4.344  19.014  0.00  0.00    +0.000 C 
ATOM     15  N   UNL     1       5.308   3.380  19.787  0.00  0.00    +0.000 N 
ATOM     16  N   UNL     1       6.848   5.030  19.523  0.00  0.00    +0.000 NA
ATOM     17  H   UNL     1       8.388   7.702  18.858  0.00  0.00    +0.000 HD
ATOM     18  H   UNL     1       8.132   6.906  20.346  0.00  0.00    +0.000 HD
ATOM     19  H   UNL     1       4.347   3.180  19.559  0.00  0.00    +0.000 HD
ATOM     20  H   UNL     1       5.509   3.489  20.772  0.00  0.00    +0.000 HD
ENDBRANCH   3  13
ENDBRANCH   2   3
ENDBRANCH   1   2
BRANCH   1  21
ATOM     21  C   UNL     1       2.197   1.972  19.127  0.00  0.00    +0.000 C 
BRANCH  21  22
ATOM     22  C   UNL     1       1.076   2.699  19.870  0.00  0.00    +0.000 C 
BRANCH  22  23
ATOM     23  C   UNL     1       1.573   3.719  20.897  0.00  0.00    +0.000 C 
BRANCH  23  24
ATOM     24  C   UNL     1       1.249   5.144  20.438  0.00  0.00    +0.000 C 
BRANCH  24  25
ATOM     25  C   UNL     1       2.489   5.973  20.089  0.00  0.00    +0.000 C 
BRANCH  25  26
ATOM     26  C   UNL     1       2.166   7.449  19.858  0.00  0.00    +0.000 C 
BRANCH  26  27
ATOM     27  N   UNL     1       1.685   8.049  21.084  0.00  0.00    +0.000 N 
ATOM     28  C   UNL     1       0.897   9.180  20.942  0.00  0.00    +0.000 A 
ATOM     29  N   UNL     1       0.848   9.814  19.777  0.00  0.00    +0.000 NA
ATOM     30  C   UNL     1       0.105  10.906  19.751  0.00  0.00    +0.000 A 
ATOM     31  N   UNL     1       0.006  11.579  18.550  0.00  0.00    +0.000 N 
ATOM     32  N   UNL     1      -0.577  11.382  20.777  0.00  0.00    +0.000 NA
ATOM     33  C   UNL     1      -0.472  10.674  21.886  0.00  0.00    +0.000 A 
ATOM     34  N   UNL     1      -1.111  11.162  23.014  0.00  0.00    +0.000 N 
ATOM     35  N   UNL     1       0.238   9.567  22.024  0.00  0.00    +0.000 NA
ATOM     36  H   UNL     1       1.298   7.453  21.803  0.00  0.00    +0.000 HD
ATOM     37  H   UNL     1       0.188  10.949  17.786  0.00  0.00    +0.000 HD
ATOM     38  H   UNL     1      -0.854  12.109  18.519  0.00  0.00    +0.000 HD
ATOM     39  H   UNL     1      -1.228  12.162  22.925  0.00  0.00    +0.000 HD
ATOM     40  H   UNL     1      -0.628  10.836  23.840  0.00  0.00    +0.000 HD
ENDBRANCH  26  27
ENDBRANCH  25  26
ENDBRANCH  24  25
ENDBRANCH  23  24
ENDBRANCH  22  23
ENDBRANCH  21  22
ENDBRANCH   1  21
TORSDOF 10
ENDMDL
MODEL 4
REMARK VINA RESULT:      -7.5      0.917      1.848
REMARK  Name = 
REMARK  10 active torsions:
REMARK  status: ('A' for Active; 'I' for Inactive)
REMARK    1  A    between atoms: N_10  and  O_11
REMARK    2  A    between atoms: O_11  and  C_12
REMARK    3  A    between atoms: C_12  and  C_13
REMARK    4  A    between atoms: C_13  and  C_14
REMARK    5  A    between atoms: C_14  and  C_15
REMARK    6  A    between atoms: C_15  and  C_16
REMARK    7  A    between atoms: C_16  and  C_17
REMARK    8  A    between atoms: C_17  and  C_18
REMARK    9  A    between atoms: C_18  and  C_19
REMARK   10  A    between atoms: C_19  and  N_20
REMARK                            x       y       z     vdW  Elec       q    Type
REMARK                         _______ _______ _______ _____ _____    ______ ____
ROOT
ATOM      1  C   UNL     1       4.481   2.854  18.277  0.00  0.00    +0.000 C 
ENDROOT
BRANCH   1   2
ATOM      2  C   UNL     1       5.234   3.982  18.981  0.00  0.00    +0.000 C 
BRANCH   2   3
ATOM      3  O   UNL     1       6.541   4.196  18.445  0.00  0.00    +0.000 OA
BRANCH   3  13
ATOM      4  N   UNL     1       8.420   9.244  17.770  0.00  0.00    +0.000 N 
ATOM      5  C   UNL     1       7.942   7.978  17.847  0.00  0.00    +0.000 C 
ATOM      6  N   UNL     1       7.141   7.580  16.930  0.00  0.00    +0.000 NA
ATOM      7  C   UNL     1       6.636   6.195  16.977  0.00  0.00    +0.000 C 
ATOM      8  C   UNL     1       5.158   6.347  16.526  0.00  0.00    +0.000 C 
ATOM      9  C   UNL     1       4.499   5.218  15.729  0.00  0.00    +0.000 C 
ATOM     10  C   UNL     1       5.417   4.355  14.879  0.00  0.00    +0.000 C 
ATOM     11  C   UNL     1       6.821   4.141  15.423  0.00  0.00    +0.000 C 
ATOM     12  C   UNL     1       7.459   5.430  15.921  0.00  0.00    +0.000 C 
ATOM     13  N   UNL     1       6.732   5.598  18.322  0.00  0.00    +0.000 N 
ATOM     14  C   UNL     1       7.741   6.107  19.104  0.00  0.00    +0.000 C 
ATOM     15  N   UNL     1       8.129   5.360  20.173  0.00  0.00    +0.000 N 
ATOM     16  N   UNL     1       8.332   7.242  18.915  0.00  0.00    +0.000 NA
ATOM     17  H   UNL     1       7.841   9.844  17.199  0.00  0.00    +0.000 HD
ATOM     18  H   UNL     1       8.676   9.623  18.672  0.00  0.00    +0.000 HD
ATOM     19  H   UNL     1       7.416   4.745  20.529  0.00  0.00    +0.000 HD
ATOM     20  H   UNL     1       8.635   5.893  20.869  0.00  0.00    +0.000 HD
ENDBRANCH   3  13
ENDBRANCH   2   3
ENDBRANCH   1   2
BRANCH   1  21
ATOM     21  C   UNL     1       2.982   2.787  18.560  0.00  0.00    +0.000 C 
BRANCH  21  22
ATOM     22  C   UNL     1       2.245   4.127  18.503  0.00  0.00    +0.000 C 
BRANCH  22  23
ATOM     23  C   UNL     1       1.624   4.550  19.835  0.00  0.00    +0.000 C 
BRANCH  23  24
ATOM     24  C   UNL     1       2.152   5.925  20.260  0.00  0.00    +0.000 C 
BRANCH  24  25
ATOM     25  C   UNL     1       2.864   6.683  19.137  0.00  0.00    +0.000 C 
BRANCH  25  26
ATOM     26  C   UNL     1       2.170   7.996  18.779  0.00  0.00    +0.000 C 
BRANCH  26  27
ATOM     27  N   UNL     1       1.365   8.451  19.892  0.00  0.00    +0.000 N 
ATOM     28  C   UNL     1       0.874   9.745  19.804  0.00  0.00    +0.000 A 
ATOM     29  N   UNL     1       1.366  10.581  18.897  0.00  0.00    +0.000 NA
ATOM     30  C   UNL     1       0.868  11.805  18.918  0.00  0.00    +0.000 A 
ATOM     31  N   UNL     1       1.334  12.696  17.974  0.00  0.00    +0.000 N 
ATOM     32  N   UNL     1      -0.065  12.227  19.751  0.00  0.00    +0.000 NA
ATOM     33  C   UNL     1      -0.496  11.317  20.606  0.00  0.00    +0.000 A 
ATOM     34  N   UNL     1      -1.427  11.722  21.547  0.00  0.00    +0.000 N 
ATOM     35  N   UNL     1      -0.073  10.066  20.671  0.00  0.00    +0.000 NA
ATOM     36  H   UNL     1       0.647   7.841  20.260  0.00  0.00    +0.000 HD
ATOM     37  H   UNL     1       1.688  12.198  17.174  0.00  0.00    +0.000 HD
ATOM     38  H   UNL     1       0.643  13.414  17.803  0.00  0.00    +0.000 HD
ATOM     39  H   UNL     1      -1.344  12.719  21.692  0.00  0.00    +0.000 HD
ATOM     40  H   UNL     1      -1.346  11.139  22.369  0.00  0.00    +0.000 HD
ENDBRANCH  26  27
ENDBRANCH  25  26
ENDBRANCH  24  25
ENDBRANCH  23  24
ENDBRANCH  22  23
ENDBRANCH  21  22
ENDBRANCH   1  21
TORSDOF 10
ENDMDL
MODEL 5
REMARK VINA RESULT:      -7.5      0.929      1.725
REMARK  Name = 
REMARK  10 active torsions:
REMARK  status: ('A' for Active; 'I' for Inactive)
REMARK    1  A    between atoms: N_10  and  O_11
REMARK    2  A    between atoms: O_11  and  C_12
REMARK    3  A    between atoms: C_12  and  C_13
REMARK    4  A    between atoms: C_13  and  C_14
REMARK    5  A    between atoms: C_14  and  C_15
REMARK    6  A    between atoms: C_15  and  C_16
REMARK    7  A    between atoms: C_16  and  C_17
REMARK    8  A    between atoms: C_17  and  C_18
REMARK    9  A    between atoms: C_18  and  C_19
REMARK   10  A    between atoms: C_19  and  N_20
REMARK                            x       y       z     vdW  Elec       q    Type
REMARK                         _______ _______ _______ _____ _____    ______ ____
ROOT
ATOM      1  C   UNL     1       5.130   2.899  20.064  0.00  0.00    +0.000 C 
ENDROOT
BRANCH   1   2
ATOM      2  C   UNL     1       5.199   3.923  18.932  0.00  0.00    +0.000 C 
BRANCH   2   3
ATOM      3  O   UNL     1       6.533   4.156  18.474  0.00  0.00    +0.000 OA
BRANCH   3  13
ATOM      4  N   UNL     1       8.354   9.224  17.793  0.00  0.00    +0.000 N 
ATOM      5  C   UNL     1       7.887   7.953  17.871  0.00  0.00    +0.000 C 
ATOM      6  N   UNL     1       7.071   7.554  16.969  0.00  0.00    +0.000 NA
ATOM      7  C   UNL     1       6.579   6.164  17.018  0.00  0.00    +0.000 C 
ATOM      8  C   UNL     1       5.090   6.307  16.599  0.00  0.00    +0.000 C 
ATOM      9  C   UNL     1       4.424   5.178  15.809  0.00  0.00    +0.000 C 
ATOM     10  C   UNL     1       5.331   4.327  14.934  0.00  0.00    +0.000 C 
ATOM     11  C   UNL     1       6.748   4.122  15.447  0.00  0.00    +0.000 C 
ATOM     12  C   UNL     1       7.386   5.414  15.939  0.00  0.00    +0.000 C 
ATOM     13  N   UNL     1       6.708   5.560  18.357  0.00  0.00    +0.000 N 
ATOM     14  C   UNL     1       7.730   6.072  19.120  0.00  0.00    +0.000 C 
ATOM     15  N   UNL     1       8.147   5.323  20.175  0.00  0.00    +0.000 N 
ATOM     16  N   UNL     1       8.306   7.214  18.927  0.00  0.00    +0.000 NA
ATOM     17  H   UNL     1       7.757   9.823  17.239  0.00  0.00    +0.000 HD
ATOM     18  H   UNL     1       8.625   9.599  18.692  0.00  0.00    +0.000 HD
ATOM     19  H   UNL     1       7.447   4.699  20.543  0.00  0.00    +0.000 HD
ATOM     20  H   UNL     1       8.663   5.855  20.864  0.00  0.00    +0.000 HD
ENDBRANCH   3  13
ENDBRANCH   2   3
ENDBRANCH   1   2
BRANCH   1  21
ATOM     21  C   UNL     1       3.791   2.182  20.222  0.00  0.00    +0.000 C 
BRANCH  21  22
ATOM     22  C   UNL     1       2.615   2.824  19.484  0.00  0.00    +0.000 C 
BRANCH  22  23
ATOM     23  C   UNL     1       1.425   3.157  20.387  0.00  0.00    +0.000 C 
BRANCH  23  24
ATOM     24  C   UNL     1       1.105   4.654  20.321  0.00  0.00    +0.000 C 
BRANCH  24  25
ATOM     25  C   UNL     1       1.756   5.370  19.135  0.00  0.00    +0.000 C 
BRANCH  25  26
ATOM     26  C   UNL     1       2.611   6.563  19.562  0.00  0.00    +0.000 C 
BRANCH  26  27
ATOM     27  N   UNL     1       2.094   7.129  20.790  0.00  0.00    +0.000 N 
ATOM     28  C   UNL     1       1.339   8.284  20.661  0.00  0.00    +0.000 A 
ATOM     29  N   UNL     1       1.352   8.962  19.520  0.00  0.00    +0.000 NA
ATOM     30  C   UNL     1       0.637  10.073  19.507  0.00  0.00    +0.000 A 
ATOM     31  N   UNL     1       0.603  10.792  18.330  0.00  0.00    +0.000 N 
ATOM     32  N   UNL     1      -0.075  10.526  20.522  0.00  0.00    +0.000 NA
ATOM     33  C   UNL     1      -0.031   9.775  21.607  0.00  0.00    +0.000 A 
ATOM     34  N   UNL     1      -0.705  10.235  22.726  0.00  0.00    +0.000 N 
ATOM     35  N   UNL     1       0.646   8.646  21.730  0.00  0.00    +0.000 NA
ATOM     36  H   UNL     1       1.664   6.515  21.470  0.00  0.00    +0.000 HD
ATOM     37  H   UNL     1       0.801  10.187  17.550  0.00  0.00    +0.000 HD
ATOM     38  H   UNL     1      -0.243  11.344  18.285  0.00  0.00    +0.000 HD
ATOM     39  H   UNL     1      -0.794  11.241  22.671  0.00  0.00    +0.000 HD
ATOM     40  H   UNL     1      -0.263   9.867  23.557  0.00  0.00    +0.000 HD
ENDBRANCH  26  27
ENDBRANCH  25  26
ENDBRANCH  24  25
ENDBRANCH  23  24
ENDBRANCH  22  23
ENDBRANCH  21  22
ENDBRANCH   1  21
TORSDOF 10
ENDMDL
MODEL 6
REMARK VINA RESULT:      -7.4      2.738      8.764
REMARK  Name = 
REMARK  10 active torsions:
REMARK  status: ('A' for Active; 'I' for Inactive)
REMARK    1  A    between atoms: N_10  and  O_11
REMARK    2  A    between atoms: O_11  and  C_12
REMARK    3  A    between atoms: C_12  and  C_13
REMARK    4  A    between atoms: C_13  and  C_14
REMARK    5  A    between atoms: C_14  and  C_15
REMARK    6  A    between atoms: C_15  and  C_16
REMARK    7  A    between atoms: C_16  and  C_17
REMARK    8  A    between atoms: C_17  and  C_18
REMARK    9  A    between atoms: C_18  and  C_19
REMARK   10  A    between atoms: C_19  and  N_20
REMARK                            x       y       z     vdW  Elec       q    Type
REMARK                         _______ _______ _______ _____ _____    ______ ____
ROOT
ATOM      1  C   UNL     1       1.936   9.402  18.612  0.00  0.00    +0.000 C 
ENDROOT
BRANCH   1   2
ATOM      2  C   UNL     1       0.682   9.655  19.448  0.00  0.00    +0.000 C 
BRANCH   2   3
ATOM      3  O   UNL     1       0.890  10.619  20.482  0.00  0.00    +0.000 OA
BRANCH   3  13
ATOM      4  N   UNL     1      -3.198  12.000  23.776  0.00  0.00    +0.000 N 
ATOM      5  C   UNL     1      -2.184  11.739  22.914  0.00  0.00    +0.000 C 
ATOM      6  N   UNL     1      -2.185  12.339  21.783  0.00  0.00    +0.000 NA
ATOM      7  C   UNL     1      -1.073  12.093  20.846  0.00  0.00    +0.000 C 
ATOM      8  C   UNL     1      -1.783  12.050  19.465  0.00  0.00    +0.000 C 
ATOM      9  C   UNL     1      -1.042  12.561  18.227  0.00  0.00    +0.000 C 
ATOM     10  C   UNL     1       0.007  13.637  18.453  0.00  0.00    +0.000 C 
ATOM     11  C   UNL     1       0.757  13.568  19.774  0.00  0.00    +0.000 C 
ATOM     12  C   UNL     1      -0.168  13.337  20.961  0.00  0.00    +0.000 C 
ATOM     13  N   UNL     1      -0.357  10.835  21.126  0.00  0.00    +0.000 N 
ATOM     14  C   UNL     1      -0.398  10.434  22.440  0.00  0.00    +0.000 C 
ATOM     15  N   UNL     1       0.535   9.527  22.837  0.00  0.00    +0.000 N 
ATOM     16  N   UNL     1      -1.261  10.833  23.317  0.00  0.00    +0.000 NA
ATOM     17  H   UNL     1      -4.016  12.371  23.311  0.00  0.00    +0.000 HD
ATOM     18  H   UNL     1      -3.375  11.240  24.417  0.00  0.00    +0.000 HD
ATOM     19  H   UNL     1       0.886   8.943  22.095  0.00  0.00    +0.000 HD
ATOM     20  H   UNL     1       0.285   9.045  23.691  0.00  0.00    +0.000 HD
ENDBRANCH   3  13
ENDBRANCH   2   3
ENDBRANCH   1   2
BRANCH   1  21
ATOM     21  C   UNL     1       1.938   8.105  17.805  0.00  0.00    +0.000 C 
BRANCH  21  22
ATOM     22  C   UNL     1       2.618   6.914  18.483  0.00  0.00    +0.000 C 
BRANCH  22  23
ATOM     23  C   UNL     1       2.235   5.559  17.885  0.00  0.00    +0.000 C 
BRANCH  23  24
ATOM     24  C   UNL     1       1.968   4.539  18.997  0.00  0.00    +0.000 C 
BRANCH  24  25
ATOM     25  C   UNL     1       2.304   3.098  18.601  0.00  0.00    +0.000 C 
BRANCH  25  26
ATOM     26  C   UNL     1       3.642   2.984  17.872  0.00  0.00    +0.000 C 
BRANCH  26  27
ATOM     27  N   UNL     1       4.725   3.334  18.765  0.00  0.00    +0.000 N 
ATOM     28  C   UNL     1       5.659   4.232  18.272  0.00  0.00    +0.000 A 
ATOM     29  N   UNL     1       5.696   4.504  16.973  0.00  0.00    +0.000 NA
ATOM     30  C   UNL     1       6.648   5.337  16.591  0.00  0.00    +0.000 A 
ATOM     31  N   UNL     1       6.703   5.667  15.252  0.00  0.00    +0.000 N 
ATOM     32  N   UNL     1       7.527   5.903  17.397  0.00  0.00    +0.000 NA
ATOM     33  C   UNL     1       7.399   5.577  18.670  0.00  0.00    +0.000 A 
ATOM     34  N   UNL     1       8.335   6.087  19.554  0.00  0.00    +0.000 N 
ATOM     35  N   UNL     1       6.484   4.759  19.163  0.00  0.00    +0.000 NA
ATOM     36  H   UNL     1       4.514   3.559  19.729  0.00  0.00    +0.000 HD
ATOM     37  H   UNL     1       5.799   5.543  14.828  0.00  0.00    +0.000 HD
ATOM     38  H   UNL     1       7.149   6.567  15.134  0.00  0.00    +0.000 HD
ATOM     39  H   UNL     1       9.186   6.304  19.051  0.00  0.00    +0.000 HD
ATOM     40  H   UNL     1       8.425   5.463  20.343  0.00  0.00    +0.000 HD
ENDBRANCH  26  27
ENDBRANCH  25  26
ENDBRANCH  24  25
ENDBRANCH  23  24
ENDBRANCH  22  23
ENDBRANCH  21  22
ENDBRANCH   1  21
TORSDOF 10
ENDMDL
MODEL 7
REMARK VINA RESULT:      -7.4      3.360      5.894
REMARK  Name = 
REMARK  10 active torsions:
REMARK  status: ('A' for Active; 'I' for Inactive)
REMARK    1  A    between atoms: N_10  and  O_11
REMARK    2  A    between atoms: O_11  and  C_12
REMARK    3  A    between atoms: C_12  and  C_13
REMARK    4  A    between atoms: C_13  and  C_14
REMARK    5  A    between atoms: C_14  and  C_15
REMARK    6  A    between atoms: C_15  and  C_16
REMARK    7  A    between atoms: C_16  and  C_17
REMARK    8  A    between atoms: C_17  and  C_18
REMARK    9  A    between atoms: C_18  and  C_19
REMARK   10  A    between atoms: C_19  and  N_20
REMARK                            x       y       z     vdW  Elec       q    Type
REMARK                         _______ _______ _______ _____ _____    ______ ____
ROOT
ATOM      1  C   UNL     1       2.693   8.138  17.892  0.00  0.00    +0.000 C 
ENDROOT
BRANCH   1   2
ATOM      2  C   UNL     1       2.535   6.935  18.821  0.00  0.00    +0.000 C 
BRANCH   2   3
ATOM      3  O   UNL     1       2.687   5.686  18.142  0.00  0.00    +0.000 OA
BRANCH   3  13
ATOM      4  N   UNL     1       5.161   1.559  20.655  0.00  0.00    +0.000 N 
ATOM      5  C   UNL     1       4.611   2.588  19.964  0.00  0.00    +0.000 C 
ATOM      6  N   UNL     1       5.392   3.348  19.292  0.00  0.00    +0.000 NA
ATOM      7  C   UNL     1       4.809   4.453  18.507  0.00  0.00    +0.000 C 
ATOM      8  C   UNL     1       5.833   5.603  18.711  0.00  0.00    +0.000 C 
ATOM      9  C   UNL     1       6.068   6.605  17.577  0.00  0.00    +0.000 C 
ATOM     10  C   UNL     1       5.834   6.102  16.161  0.00  0.00    +0.000 C 
ATOM     11  C   UNL     1       4.741   5.059  15.998  0.00  0.00    +0.000 C 
ATOM     12  C   UNL     1       4.820   3.958  17.047  0.00  0.00    +0.000 C 
ATOM     13  N   UNL     1       3.464   4.837  18.974  0.00  0.00    +0.000 N 
ATOM     14  C   UNL     1       2.756   3.824  19.575  0.00  0.00    +0.000 C 
ATOM     15  N   UNL     1       1.409   3.988  19.673  0.00  0.00    +0.000 N 
ATOM     16  N   UNL     1       3.270   2.745  20.070  0.00  0.00    +0.000 NA
ATOM     17  H   UNL     1       6.145   1.699  20.842  0.00  0.00    +0.000 HD
ATOM     18  H   UNL     1       4.606   1.280  21.452  0.00  0.00    +0.000 HD
ATOM     19  H   UNL     1       1.108   4.949  19.684  0.00  0.00    +0.000 HD
ATOM     20  H   UNL     1       0.985   3.390  20.370  0.00  0.00    +0.000 HD
ENDBRANCH   3  13
ENDBRANCH   2   3
ENDBRANCH   1   2
BRANCH   1  21
ATOM     21  C   UNL     1       1.772   9.321  18.185  0.00  0.00    +0.000 C 
BRANCH  21  22
ATOM     22  C   UNL     1       2.347  10.697  17.844  0.00  0.00    +0.000 C 
BRANCH  22  23
ATOM     23  C   UNL     1       1.746  11.839  18.665  0.00  0.00    +0.000 C 
BRANCH  23  24
ATOM     24  C   UNL     1       0.868  11.286  19.792  0.00  0.00    +0.000 C 
BRANCH  24  25
ATOM     25  C   UNL     1      -0.436  12.063  19.992  0.00  0.00    +0.000 C 
BRANCH  25  26
ATOM     26  C   UNL     1      -1.677  11.219  19.701  0.00  0.00    +0.000 C 
BRANCH  26  27
ATOM     27  N   UNL     1      -1.504  10.494  18.461  0.00  0.00    +0.000 N 
ATOM     28  C   UNL     1      -2.460  10.718  17.483  0.00  0.00    +0.000 A 
ATOM     29  N   UNL     1      -3.598  11.327  17.794  0.00  0.00    +0.000 NA
ATOM     30  C   UNL     1      -4.466  11.456  16.806  0.00  0.00    +0.000 A 
ATOM     31  N   UNL     1      -5.650  12.109  17.083  0.00  0.00    +0.000 N 
ATOM     32  N   UNL     1      -4.271  11.041  15.568  0.00  0.00    +0.000 NA
ATOM     33  C   UNL     1      -3.104  10.458  15.358  0.00  0.00    +0.000 A 
ATOM     34  N   UNL     1      -2.871   9.941  14.095  0.00  0.00    +0.000 N 
ATOM     35  N   UNL     1      -2.163  10.279  16.269  0.00  0.00    +0.000 NA
ATOM     36  H   UNL     1      -0.586  10.459  18.036  0.00  0.00    +0.000 HD
ATOM     37  H   UNL     1      -5.529  12.724  17.870  0.00  0.00    +0.000 HD
ATOM     38  H   UNL     1      -6.032  12.509  16.236  0.00  0.00    +0.000 HD
ATOM     39  H   UNL     1      -3.755   9.738  13.649  0.00  0.00    +0.000 HD
ATOM     40  H   UNL     1      -2.214   9.176  14.163  0.00  0.00    +0.000 HD
ENDBRANCH  26  27
ENDBRANCH  25  26
ENDBRANCH  24  25
ENDBRANCH  23  24
ENDBRANCH  22  23
ENDBRANCH  21  22
ENDBRANCH   1  21
TORSDOF 10
ENDMDL
MODEL 8
REMARK VINA RESULT:      -7.4      2.921      8.846
REMARK  Name = 
REMARK  10 active torsions:
REMARK  status: ('A' for Active; 'I' for Inactive)
REMARK    1  A    between atoms: N_10  and  O_11
REMARK    2  A    between atoms: O_11  and  C_12
REMARK    3  A    between atoms: C_12  and  C_13
REMARK    4  A    between atoms: C_13  and  C_14
REMARK    5  A    between atoms: C_14  and  C_15
REMARK    6  A    between atoms: C_15  and  C_16
REMARK    7  A    between atoms: C_16  and  C_17
REMARK    8  A    between atoms: C_17  and  C_18
REMARK    9  A    between atoms: C_18  and  C_19
REMARK   10  A    between atoms: C_19  and  N_20
REMARK                            x       y       z     vdW  Elec       q    Type
REMARK                         _______ _______ _______ _____ _____    ______ ____
ROOT
ATOM      1  C   UNL     1       1.977   9.232  18.975  0.00  0.00    +0.000 C 
ENDROOT
BRANCH   1   2
ATOM      2  C   UNL     1       0.648   9.706  19.560  0.00  0.00    +0.000 C 
BRANCH   2   3
ATOM      3  O   UNL     1       0.810  10.713  20.562  0.00  0.00    +0.000 OA
BRANCH   3  13
ATOM      4  N   UNL     1      -3.355  12.042  23.780  0.00  0.00    +0.000 N 
ATOM      5  C   UNL     1      -2.324  11.793  22.935  0.00  0.00    +0.000 C 
ATOM      6  N   UNL     1      -2.330  12.366  21.790  0.00  0.00    +0.000 NA
ATOM      7  C   UNL     1      -1.200  12.134  20.871  0.00  0.00    +0.000 C 
ATOM      8  C   UNL     1      -1.893  12.037  19.484  0.00  0.00    +0.000 C 
ATOM      9  C   UNL     1      -1.155  12.542  18.242  0.00  0.00    +0.000 C 
ATOM     10  C   UNL     1      -0.141  13.655  18.454  0.00  0.00    +0.000 C 
ATOM     11  C   UNL     1       0.595  13.639  19.785  0.00  0.00    +0.000 C 
ATOM     12  C   UNL     1      -0.336  13.407  20.968  0.00  0.00    +0.000 C 
ATOM     13  N   UNL     1      -0.450  10.904  21.188  0.00  0.00    +0.000 N 
ATOM     14  C   UNL     1      -0.493  10.532  22.509  0.00  0.00    +0.000 C 
ATOM     15  N   UNL     1       0.462   9.663  22.937  0.00  0.00    +0.000 N 
ATOM     16  N   UNL     1      -1.378  10.925  23.368  0.00  0.00    +0.000 NA
ATOM     17  H   UNL     1      -4.179  12.376  23.299  0.00  0.00    +0.000 HD
ATOM     18  H   UNL     1      -3.515  11.290  24.437  0.00  0.00    +0.000 HD
ATOM     19  H   UNL     1       0.840   9.074  22.213  0.00  0.00    +0.000 HD
ATOM     20  H   UNL     1       0.218   9.194  23.799  0.00  0.00    +0.000 HD
ENDBRANCH   3  13
ENDBRANCH   2   3
ENDBRANCH   1   2
BRANCH   1  21
ATOM     21  C   UNL     1       1.872   8.170  17.882  0.00  0.00    +0.000 C 
BRANCH  21  22
ATOM     22  C   UNL     1       2.541   6.832  18.204  0.00  0.00    +0.000 C 
BRANCH  22  23
ATOM     23  C   UNL     1       2.462   6.440  19.681  0.00  0.00    +0.000 C 
BRANCH  23  24
ATOM     24  C   UNL     1       2.548   4.918  19.837  0.00  0.00    +0.000 C 
BRANCH  24  25
ATOM     25  C   UNL     1       2.138   4.148  18.578  0.00  0.00    +0.000 C 
BRANCH  25  26
ATOM     26  C   UNL     1       3.243   3.227  18.064  0.00  0.00    +0.000 C 
BRANCH  26  27
ATOM     27  N   UNL     1       3.780   3.741  16.822  0.00  0.00    +0.000 N 
ATOM     28  C   UNL     1       5.092   4.186  16.861  0.00  0.00    +0.000 A 
ATOM     29  N   UNL     1       5.690   4.389  18.029  0.00  0.00    +0.000 NA
ATOM     30  C   UNL     1       6.925   4.855  17.966  0.00  0.00    +0.000 A 
ATOM     31  N   UNL     1       7.590   5.053  19.159  0.00  0.00    +0.000 N 
ATOM     32  N   UNL     1       7.580   5.111  16.850  0.00  0.00    +0.000 NA
ATOM     33  C   UNL     1       6.903   4.867  15.743  0.00  0.00    +0.000 A 
ATOM     34  N   UNL     1       7.516   5.180  14.541  0.00  0.00    +0.000 N 
ATOM     35  N   UNL     1       5.668   4.397  15.688  0.00  0.00    +0.000 NA
ATOM     36  H   UNL     1       3.622   3.223  15.967  0.00  0.00    +0.000 HD
ATOM     37  H   UNL     1       7.199   4.463  19.874  0.00  0.00    +0.000 HD
ATOM     38  H   UNL     1       8.589   5.002  19.012  0.00  0.00    +0.000 HD
ATOM     39  H   UNL     1       8.210   5.899  14.698  0.00  0.00    +0.000 HD
ATOM     40  H   UNL     1       6.809   5.381  13.847  0.00  0.00    +0.000 HD
ENDBRANCH  26  27
ENDBRANCH  25  26
ENDBRANCH  24  25
ENDBRANCH  23  24
ENDBRANCH  22  23
ENDBRANCH  21  22
ENDBRANCH   1  21
TORSDOF 10
ENDMDL
MODEL 9
REMARK VINA RESULT:      -7.4      4.056      8.057
REMARK  Name = 
REMARK  10 active torsions:
REMARK  status: ('A' for Active; 'I' for Inactive)
REMARK    1  A    between atoms: N_10  and  O_11
REMARK    2  A    between atoms: O_11  and  C_12
REMARK    3  A    between atoms: C_12  and  C_13
REMARK    4  A    between atoms: C_13  and  C_14
REMARK    5  A    between atoms: C_14  and  C_15
REMARK    6  A    between atoms: C_15  and  C_16
REMARK    7  A    between atoms: C_16  and  C_17
REMARK    8  A    between atoms: C_17  and  C_18
REMARK    9  A    between atoms: C_18  and  C_19
REMARK   10  A    between atoms: C_19  and  N_20
REMARK                            x       y       z     vdW  Elec       q    Type
REMARK                         _______ _______ _______ _____ _____    ______ ____
ROOT
ATOM      1  C   UNL     1       6.742   4.752  18.322  0.00  0.00    +0.000 C 
ENDROOT
BRANCH   1   2
ATOM      2  C   UNL     1       5.468   5.540  18.626  0.00  0.00    +0.000 C 
BRANCH   2   3
ATOM      3  O   UNL     1       4.692   4.957  19.676  0.00  0.00    +0.000 OA
BRANCH   3  13
ATOM      4  N   UNL     1       0.677   1.494  18.511  0.00  0.00    +0.000 N 
ATOM      5  C   UNL     1       1.615   2.423  18.819  0.00  0.00    +0.000 C 
ATOM      6  N   UNL     1       1.332   3.655  18.617  0.00  0.00    +0.000 NA
ATOM      7  C   UNL     1       2.327   4.684  18.976  0.00  0.00    +0.000 C 
ATOM      8  C   UNL     1       2.201   5.711  17.819  0.00  0.00    +0.000 C 
ATOM      9  C   UNL     1       2.429   7.197  18.109  0.00  0.00    +0.000 C 
ATOM     10  C   UNL     1       2.123   7.673  19.520  0.00  0.00    +0.000 C 
ATOM     11  C   UNL     1       2.373   6.665  20.631  0.00  0.00    +0.000 C 
ATOM     12  C   UNL     1       1.823   5.283  20.304  0.00  0.00    +0.000 C 
ATOM     13  N   UNL     1       3.696   4.144  19.073  0.00  0.00    +0.000 N 
ATOM     14  C   UNL     1       3.764   2.814  19.411  0.00  0.00    +0.000 C 
ATOM     15  N   UNL     1       4.954   2.359  19.889  0.00  0.00    +0.000 N 
ATOM     16  N   UNL     1       2.798   1.962  19.292  0.00  0.00    +0.000 NA
ATOM     17  H   UNL     1      -0.005   1.836  17.847  0.00  0.00    +0.000 HD
ATOM     18  H   UNL     1       1.075   0.590  18.293  0.00  0.00    +0.000 HD
ATOM     19  H   UNL     1       5.753   2.888  19.581  0.00  0.00    +0.000 HD
ATOM     20  H   UNL     1       5.048   1.353  19.833  0.00  0.00    +0.000 HD
ENDBRANCH   3  13
ENDBRANCH   2   3
ENDBRANCH   1   2
BRANCH   1  21
ATOM     21  C   UNL     1       8.050   5.449  18.692  0.00  0.00    +0.000 C 
BRANCH  21  22
ATOM     22  C   UNL     1       7.973   6.974  18.791  0.00  0.00    +0.000 C 
BRANCH  22  23
ATOM     23  C   UNL     1       7.678   7.666  17.459  0.00  0.00    +0.000 C 
BRANCH  23  24
ATOM     24  C   UNL     1       7.804   9.187  17.605  0.00  0.00    +0.000 C 
BRANCH  24  25
ATOM     25  C   UNL     1       8.849   9.619  18.637  0.00  0.00    +0.000 C 
BRANCH  25  26
ATOM     26  C   UNL     1       9.689  10.805  18.166  0.00  0.00    +0.000 C 
BRANCH  26  27
ATOM     27  N   UNL     1      10.120  11.591  19.302  0.00  0.00    +0.000 N 
ATOM     28  C   UNL     1      10.439  12.915  19.044  0.00  0.00    +0.000 A 
ATOM     29  N   UNL     1      10.612  13.325  17.793  0.00  0.00    +0.000 NA
ATOM     30  C   UNL     1      10.956  14.593  17.650  0.00  0.00    +0.000 A 
ATOM     31  N   UNL     1      11.118  15.064  16.363  0.00  0.00    +0.000 N 
ATOM     32  N   UNL     1      11.122  15.448  18.641  0.00  0.00    +0.000 NA
ATOM     33  C   UNL     1      10.916  14.946  19.845  0.00  0.00    +0.000 A 
ATOM     34  N   UNL     1      11.141  15.780  20.927  0.00  0.00    +0.000 N 
ATOM     35  N   UNL     1      10.566  13.698  20.104  0.00  0.00    +0.000 NA
ATOM     36  H   UNL     1       9.599  11.529  20.167  0.00  0.00    +0.000 HD
ATOM     37  H   UNL     1      10.586  14.503  15.720  0.00  0.00    +0.000 HD
ATOM     38  H   UNL     1      10.969  16.064  16.339  0.00  0.00    +0.000 HD
ATOM     39  H   UNL     1      11.794  16.505  20.661  0.00  0.00    +0.000 HD
ATOM     40  H   UNL     1      11.391  15.222  21.733  0.00  0.00    +0.000 HD
ENDBRANCH  26  27
ENDBRANCH  25  26
ENDBRANCH  24  25
ENDBRANCH  23  24
ENDBRANCH  22  23
ENDBRANCH  21  22
ENDBRANCH   1  21
TORSDOF 10
ENDMDL
