MODEL 1
REMARK VINA RESULT:      -7.9      0.000      0.000
REMARK  Name = 
REMARK  4 active torsions:
REMARK  status: ('A' for Active; 'I' for Inactive)
REMARK    1  A    between atoms: C_1  and  C_2
REMARK    2  A    between atoms: C_5  and  S_6
REMARK    3  A    between atoms: S_6  and  N_9
REMARK    4  A    between atoms: C_16  and  C_17
REMARK                            x       y       z     vdW  Elec       q    Type
REMARK                         _______ _______ _______ _____ _____    ______ ____
ROOT
ATOM      1  S   UNL     1       7.194   5.398  16.736  0.00  0.00    +0.000 S 
ATOM      2  O   UNL     1       8.206   4.469  17.187  0.00  0.00    +0.000 OA
ATOM      3  O   UNL     1       7.496   6.806  16.577  0.00  0.00    +0.000 OA
ENDROOT
BRANCH   1   4
ATOM      4  N   UNL     1       5.896   5.272  17.777  0.00  0.00    +0.000 NA
ATOM      5  C   UNL     1       4.608   5.886  17.397  0.00  0.00    +0.000 C 
ATOM      6  C   UNL     1       3.673   5.120  18.223  0.00  0.00    +0.000 C 
ATOM      7  C   UNL     1       4.260   4.188  18.980  0.00  0.00    +0.000 C 
ATOM      8  C   UNL     1       5.715   4.111  18.696  0.00  0.00    +0.000 C 
ATOM      9  C   UNL     1       3.340   3.488  19.877  0.00  0.00    +0.000 C 
ATOM     10  C   UNL     1       2.279   2.618  19.278  0.00  0.00    +0.000 C 
ATOM     11  C   UNL     1       1.948   4.087  19.500  0.00  0.00    +0.000 C 
ATOM     12  C   UNL     1       0.744   4.325  20.357  0.00  0.00    +0.000 C 
ATOM     13  C   UNL     1       2.215   5.188  18.455  0.00  0.00    +0.000 C 
ENDBRANCH   1   4
BRANCH   1  18
ATOM     14  C   UNL     1       5.380   2.908  11.493  0.00  0.00    +0.000 C 
ATOM     15  C   UNL     1       5.796   3.607  12.756  0.00  0.00    +0.000 A 
ATOM     16  C   UNL     1       6.974   4.370  12.815  0.00  0.00    +0.000 A 
ATOM     17  C   UNL     1       7.378   4.963  14.013  0.00  0.00    +0.000 A 
ATOM     18  C   UNL     1       6.594   4.817  15.158  0.00  0.00    +0.000 A 
ATOM     19  C   UNL     1       5.422   4.055  15.115  0.00  0.00    +0.000 A 
ATOM     20  C   UNL     1       5.024   3.459  13.917  0.00  0.00    +0.000 A 
ENDBRANCH   1  18
TORSDOF 2
ENDMDL
MODEL 2
REMARK VINA RESULT:      -7.8      0.958      1.630
REMARK  Name = 
REMARK  4 active torsions:
REMARK  status: ('A' for Active; 'I' for Inactive)
REMARK    1  A    between atoms: C_1  and  C_2
REMARK    2  A    between atoms: C_5  and  S_6
REMARK    3  A    between atoms: S_6  and  N_9
REMARK    4  A    between atoms: C_16  and  C_17
REMARK                            x       y       z     vdW  Elec       q    Type
REMARK                         _______ _______ _______ _____ _____    ______ ____
ROOT
ATOM      1  S   UNL     1       6.384   5.800  16.574  0.00  0.00    +0.000 S 
ATOM      2  O   UNL     1       7.593   5.399  17.258  0.00  0.00    +0.000 OA
ATOM      3  O   UNL     1       6.042   7.200  16.424  0.00  0.00    +0.000 OA
ENDROOT
BRANCH   1   4
ATOM      4  N   UNL     1       5.103   5.044  17.332  0.00  0.00    +0.000 NA
ATOM      5  C   UNL     1       5.379   4.025  18.363  0.00  0.00    +0.000 C 
ATOM      6  C   UNL     1       4.124   4.035  19.117  0.00  0.00    +0.000 C 
ATOM      7  C   UNL     1       3.223   4.906  18.652  0.00  0.00    +0.000 C 
ATOM      8  C   UNL     1       3.788   5.715  17.543  0.00  0.00    +0.000 C 
ATOM      9  C   UNL     1       1.934   4.850  19.343  0.00  0.00    +0.000 C 
ATOM     10  C   UNL     1       1.875   5.252  20.783  0.00  0.00    +0.000 C 
ATOM     11  C   UNL     1       2.177   3.794  20.468  0.00  0.00    +0.000 C 
ATOM     12  C   UNL     1       1.225   2.820  21.088  0.00  0.00    +0.000 C 
ATOM     13  C   UNL     1       3.601   3.247  20.252  0.00  0.00    +0.000 C 
ENDBRANCH   1   4
BRANCH   1  18
ATOM     14  C   UNL     1       6.816   2.963  11.211  0.00  0.00    +0.000 C 
ATOM     15  C   UNL     1       6.677   3.742  12.489  0.00  0.00    +0.000 A 
ATOM     16  C   UNL     1       7.641   4.687  12.877  0.00  0.00    +0.000 A 
ATOM     17  C   UNL     1       7.528   5.357  14.097  0.00  0.00    +0.000 A 
ATOM     18  C   UNL     1       6.438   5.103  14.930  0.00  0.00    +0.000 A 
ATOM     19  C   UNL     1       5.475   4.159  14.559  0.00  0.00    +0.000 A 
ATOM     20  C   UNL     1       5.593   3.487  13.342  0.00  0.00    +0.000 A 
ENDBRANCH   1  18
TORSDOF 2
ENDMDL
MODEL 3
REMARK VINA RESULT:      -7.7      2.992      4.055
REMARK  Name = 
REMARK  4 active torsions:
REMARK  status: ('A' for Active; 'I' for Inactive)
REMARK    1  A    between atoms: C_1  and  C_2
REMARK    2  A    between atoms: C_5  and  S_6
REMARK    3  A    between atoms: S_6  and  N_9
REMARK    4  A    between atoms: C_16  and  C_17
REMARK                            x       y       z     vdW  Elec       q    Type
REMARK                         _______ _______ _______ _____ _____    ______ ____
ROOT
ATOM      1  S   UNL     1       4.980   4.769  18.911  0.00  0.00    +0.000 S 
ATOM      2  O   UNL     1       4.470   3.489  19.351  0.00  0.00    +0.000 OA
ATOM      3  O   UNL     1       5.984   5.474  19.682  0.00  0.00    +0.000 OA
ENDROOT
BRANCH   1   4
ATOM      4  N   UNL     1       3.676   5.792  18.721  0.00  0.00    +0.000 NA
ATOM      5  C   UNL     1       2.922   6.225  19.914  0.00  0.00    +0.000 C 
ATOM      6  C   UNL     1       2.292   7.452  19.424  0.00  0.00    +0.000 C 
ATOM      7  C   UNL     1       2.597   7.745  18.156  0.00  0.00    +0.000 C 
ATOM      8  C   UNL     1       3.592   6.786  17.612  0.00  0.00    +0.000 C 
ATOM      9  C   UNL     1       1.893   8.917  17.633  0.00  0.00    +0.000 C 
ATOM     10  C   UNL     1       2.196  10.257  18.226  0.00  0.00    +0.000 C 
ATOM     11  C   UNL     1       1.090   9.433  18.870  0.00  0.00    +0.000 C 
ATOM     12  C   UNL     1      -0.237  10.121  18.930  0.00  0.00    +0.000 C 
ATOM     13  C   UNL     1       1.335   8.417  20.003  0.00  0.00    +0.000 C 
ENDBRANCH   1   4
BRANCH   1  18
ATOM     14  C   UNL     1       7.083   4.547  13.209  0.00  0.00    +0.000 C 
ATOM     15  C   UNL     1       6.588   4.510  14.627  0.00  0.00    +0.000 A 
ATOM     16  C   UNL     1       5.339   3.953  14.950  0.00  0.00    +0.000 A 
ATOM     17  C   UNL     1       4.868   3.981  16.264  0.00  0.00    +0.000 A 
ATOM     18  C   UNL     1       5.651   4.547  17.271  0.00  0.00    +0.000 A 
ATOM     19  C   UNL     1       6.893   5.110  16.962  0.00  0.00    +0.000 A 
ATOM     20  C   UNL     1       7.359   5.086  15.647  0.00  0.00    +0.000 A 
ENDBRANCH   1  18
TORSDOF 2
ENDMDL
MODEL 4
REMARK VINA RESULT:      -7.7      0.918      1.443
REMARK  Name = 
REMARK  4 active torsions:
REMARK  status: ('A' for Active; 'I' for Inactive)
REMARK    1  A    between atoms: C_1  and  C_2
REMARK    2  A    between atoms: C_5  and  S_6
REMARK    3  A    between atoms: S_6  and  N_9
REMARK    4  A    between atoms: C_16  and  C_17
REMARK                            x       y       z     vdW  Elec       q    Type
REMARK                         _______ _______ _______ _____ _____    ______ ____
ROOT
ATOM      1  S   UNL     1       6.513   6.262  17.101  0.00  0.00    +0.000 S 
ATOM      2  O   UNL     1       7.866   6.161  17.603  0.00  0.00    +0.000 OA
ATOM      3  O   UNL     1       5.954   7.543  16.720  0.00  0.00    +0.000 OA
ENDROOT
BRANCH   1   4
ATOM      4  N   UNL     1       5.502   5.587  18.244  0.00  0.00    +0.000 NA
ATOM      5  C   UNL     1       4.131   6.113  18.391  0.00  0.00    +0.000 C 
ATOM      6  C   UNL     1       3.455   4.979  19.022  0.00  0.00    +0.000 C 
ATOM      7  C   UNL     1       4.252   3.924  19.230  0.00  0.00    +0.000 C 
ATOM      8  C   UNL     1       5.602   4.158  18.659  0.00  0.00    +0.000 C 
ATOM      9  C   UNL     1       3.604   2.826  19.947  0.00  0.00    +0.000 C 
ATOM     10  C   UNL     1       2.481   2.098  19.279  0.00  0.00    +0.000 C 
ATOM     11  C   UNL     1       2.133   3.323  20.111  0.00  0.00    +0.000 C 
ATOM     12  C   UNL     1       1.151   3.064  21.211  0.00  0.00    +0.000 C 
ATOM     13  C   UNL     1       2.091   4.756  19.542  0.00  0.00    +0.000 C 
ENDBRANCH   1   4
BRANCH   1  18
ATOM     14  C   UNL     1       5.929   3.105  11.936  0.00  0.00    +0.000 C 
ATOM     15  C   UNL     1       6.090   3.802  13.257  0.00  0.00    +0.000 A 
ATOM     16  C   UNL     1       5.054   3.819  14.205  0.00  0.00    +0.000 A 
ATOM     17  C   UNL     1       5.198   4.522  15.402  0.00  0.00    +0.000 A 
ATOM     18  C   UNL     1       6.389   5.198  15.672  0.00  0.00    +0.000 A 
ATOM     19  C   UNL     1       7.426   5.195  14.734  0.00  0.00    +0.000 A 
ATOM     20  C   UNL     1       7.277   4.495  13.535  0.00  0.00    +0.000 A 
ENDBRANCH   1  18
TORSDOF 2
ENDMDL
MODEL 5
REMARK VINA RESULT:      -7.5      0.931      1.943
REMARK  Name = 
REMARK  4 active torsions:
REMARK  status: ('A' for Active; 'I' for Inactive)
REMARK    1  A    between atoms: C_1  and  C_2
REMARK    2  A    between atoms: C_5  and  S_6
REMARK    3  A    between atoms: S_6  and  N_9
REMARK    4  A    between atoms: C_16  and  C_17
REMARK                            x       y       z     vdW  Elec       q    Type
REMARK                         _______ _______ _______ _____ _____    ______ ____
ROOT
ATOM      1  S   UNL     1       6.549   5.740  16.789  0.00  0.00    +0.000 S 
ATOM      2  O   UNL     1       7.701   5.381  17.585  0.00  0.00    +0.000 OA
ATOM      3  O   UNL     1       6.219   7.129  16.542  0.00  0.00    +0.000 OA
ENDROOT
BRANCH   1   4
ATOM      4  N   UNL     1       5.214   5.018  17.484  0.00  0.00    +0.000 NA
ATOM      5  C   UNL     1       5.411   4.027  18.560  0.00  0.00    +0.000 C 
ATOM      6  C   UNL     1       4.110   4.070  19.230  0.00  0.00    +0.000 C 
ATOM      7  C   UNL     1       3.250   4.935  18.682  0.00  0.00    +0.000 C 
ATOM      8  C   UNL     1       3.894   5.706  17.589  0.00  0.00    +0.000 C 
ATOM      9  C   UNL     1       1.919   4.910  19.288  0.00  0.00    +0.000 C 
ATOM     10  C   UNL     1       1.770   5.355  20.709  0.00  0.00    +0.000 C 
ATOM     11  C   UNL     1       2.077   3.886  20.457  0.00  0.00    +0.000 C 
ATOM     12  C   UNL     1       1.077   2.938  21.042  0.00  0.00    +0.000 C 
ATOM     13  C   UNL     1       3.507   3.320  20.351  0.00  0.00    +0.000 C 
ENDBRANCH   1   4
BRANCH   1  18
ATOM     14  C   UNL     1       6.851   3.513  11.138  0.00  0.00    +0.000 C 
ATOM     15  C   UNL     1       6.822   3.984  12.564  0.00  0.00    +0.000 A 
ATOM     16  C   UNL     1       5.882   3.483  13.480  0.00  0.00    +0.000 A 
ATOM     17  C   UNL     1       5.830   3.977  14.785  0.00  0.00    +0.000 A 
ATOM     18  C   UNL     1       6.731   4.960  15.193  0.00  0.00    +0.000 A 
ATOM     19  C   UNL     1       7.668   5.473  14.290  0.00  0.00    +0.000 A 
ATOM     20  C   UNL     1       7.715   4.982  12.984  0.00  0.00    +0.000 A 
ENDBRANCH   1  18
TORSDOF 2
ENDMDL
MODEL 6
REMARK VINA RESULT:      -7.5      0.206      1.101
REMARK  Name = 
REMARK  4 active torsions:
REMARK  status: ('A' for Active; 'I' for Inactive)
REMARK    1  A    between atoms: C_1  and  C_2
REMARK    2  A    between atoms: C_5  and  S_6
REMARK    3  A    between atoms: S_6  and  N_9
REMARK    4  A    between atoms: C_16  and  C_17
REMARK                            x       y       z     vdW  Elec       q    Type
REMARK                         _______ _______ _______ _____ _____    ______ ____
ROOT
ATOM      1  S   UNL     1       7.174   5.238  16.719  0.00  0.00    +0.000 S 
ATOM      2  O   UNL     1       8.208   4.379  17.250  0.00  0.00    +0.000 OA
ATOM      3  O   UNL     1       7.439   6.634  16.434  0.00  0.00    +0.000 OA
ENDROOT
BRANCH   1   4
ATOM      4  N   UNL     1       5.878   5.173  17.769  0.00  0.00    +0.000 NA
ATOM      5  C   UNL     1       4.595   5.781  17.366  0.00  0.00    +0.000 C 
ATOM      6  C   UNL     1       3.656   5.063  18.230  0.00  0.00    +0.000 C 
ATOM      7  C   UNL     1       4.237   4.161  19.027  0.00  0.00    +0.000 C 
ATOM      8  C   UNL     1       5.691   4.057  18.741  0.00  0.00    +0.000 C 
ATOM      9  C   UNL     1       3.314   3.512  19.958  0.00  0.00    +0.000 C 
ATOM     10  C   UNL     1       2.243   2.626  19.404  0.00  0.00    +0.000 C 
ATOM     11  C   UNL     1       1.926   4.106  19.560  0.00  0.00    +0.000 C 
ATOM     12  C   UNL     1       0.728   4.395  20.409  0.00  0.00    +0.000 C 
ATOM     13  C   UNL     1       2.200   5.156  18.464  0.00  0.00    +0.000 C 
ENDBRANCH   1   4
BRANCH   1  18
ATOM     14  C   UNL     1       4.944   3.243  11.424  0.00  0.00    +0.000 C 
ATOM     15  C   UNL     1       5.523   3.646  12.750  0.00  0.00    +0.000 A 
ATOM     16  C   UNL     1       4.841   3.397  13.952  0.00  0.00    +0.000 A 
ATOM     17  C   UNL     1       5.365   3.833  15.171  0.00  0.00    +0.000 A 
ATOM     18  C   UNL     1       6.589   4.503  15.200  0.00  0.00    +0.000 A 
ATOM     19  C   UNL     1       7.276   4.763  14.010  0.00  0.00    +0.000 A 
ATOM     20  C   UNL     1       6.747   4.331  12.793  0.00  0.00    +0.000 A 
ENDBRANCH   1  18
TORSDOF 2
ENDMDL
MODEL 7
REMARK VINA RESULT:      -7.5      2.838      4.412
REMARK  Name = 
REMARK  4 active torsions:
REMARK  status: ('A' for Active; 'I' for Inactive)
REMARK    1  A    between atoms: C_1  and  C_2
REMARK    2  A    between atoms: C_5  and  S_6
REMARK    3  A    between atoms: S_6  and  N_9
REMARK    4  A    between atoms: C_16  and  C_17
REMARK                            x       y       z     vdW  Elec       q    Type
REMARK                         _______ _______ _______ _____ _____    ______ ____
ROOT
ATOM      1  S   UNL     1       6.193   5.250  16.673  0.00  0.00    +0.000 S 
ATOM      2  O   UNL     1       5.271   5.795  15.702  0.00  0.00    +0.000 OA
ATOM      3  O   UNL     1       7.254   4.351  16.268  0.00  0.00    +0.000 OA
ENDROOT
BRANCH   1   4
ATOM      4  N   UNL     1       5.290   4.475  17.843  0.00  0.00    +0.000 NA
ATOM      5  C   UNL     1       4.755   5.257  18.975  0.00  0.00    +0.000 C 
ATOM      6  C   UNL     1       3.646   4.407  19.410  0.00  0.00    +0.000 C 
ATOM      7  C   UNL     1       3.501   3.295  18.683  0.00  0.00    +0.000 C 
ATOM      8  C   UNL     1       4.456   3.274  17.547  0.00  0.00    +0.000 C 
ATOM      9  C   UNL     1       2.455   2.398  19.176  0.00  0.00    +0.000 C 
ATOM     10  C   UNL     1       1.032   2.858  19.121  0.00  0.00    +0.000 C 
ATOM     11  C   UNL     1       1.835   3.192  20.370  0.00  0.00    +0.000 C 
ATOM     12  C   UNL     1       1.232   2.689  21.644  0.00  0.00    +0.000 C 
ATOM     13  C   UNL     1       2.677   4.474  20.524  0.00  0.00    +0.000 C 
ENDBRANCH   1   4
BRANCH   1  18
ATOM     14  C   UNL     1       9.256   9.899  19.120  0.00  0.00    +0.000 C 
ATOM     15  C   UNL     1       8.439   8.755  18.590  0.00  0.00    +0.000 A 
ATOM     16  C   UNL     1       8.578   7.457  19.107  0.00  0.00    +0.000 A 
ATOM     17  C   UNL     1       7.855   6.394  18.562  0.00  0.00    +0.000 A 
ATOM     18  C   UNL     1       6.970   6.624  17.508  0.00  0.00    +0.000 A 
ATOM     19  C   UNL     1       6.827   7.910  16.979  0.00  0.00    +0.000 A 
ATOM     20  C   UNL     1       7.555   8.970  17.523  0.00  0.00    +0.000 A 
ENDBRANCH   1  18
TORSDOF 2
ENDMDL
MODEL 8
REMARK VINA RESULT:      -7.4      1.493      6.492
REMARK  Name = 
REMARK  4 active torsions:
REMARK  status: ('A' for Active; 'I' for Inactive)
REMARK    1  A    between atoms: C_1  and  C_2
REMARK    2  A    between atoms: C_5  and  S_6
REMARK    3  A    between atoms: S_6  and  N_9
REMARK    4  A    between atoms: C_16  and  C_17
REMARK                            x       y       z     vdW  Elec       q    Type
REMARK                         _______ _______ _______ _____ _____    ______ ____
ROOT
ATOM      1  S   UNL     1       5.463   5.772  18.321  0.00  0.00    +0.000 S 
ATOM      2  O   UNL     1       4.836   7.001  17.889  0.00  0.00    +0.000 OA
ATOM      3  O   UNL     1       6.622   5.793  19.190  0.00  0.00    +0.000 OA
ENDROOT
BRANCH   1   4
ATOM      4  N   UNL     1       5.871   4.907  16.954  0.00  0.00    +0.000 NA
ATOM      5  C   UNL     1       4.799   4.443  16.050  0.00  0.00    +0.000 C 
ATOM      6  C   UNL     1       5.539   4.258  14.801  0.00  0.00    +0.000 C 
ATOM      7  C   UNL     1       6.840   4.557  14.895  0.00  0.00    +0.000 C 
ATOM      8  C   UNL     1       7.164   5.104  16.237  0.00  0.00    +0.000 C 
ATOM      9  C   UNL     1       7.600   4.281  13.676  0.00  0.00    +0.000 C 
ATOM     10  C   UNL     1       7.300   5.083  12.448  0.00  0.00    +0.000 C 
ATOM     11  C   UNL     1       6.504   3.805  12.670  0.00  0.00    +0.000 C 
ATOM     12  C   UNL     1       6.596   2.818  11.549  0.00  0.00    +0.000 C 
ATOM     13  C   UNL     1       5.181   3.752  13.460  0.00  0.00    +0.000 C 
ENDBRANCH   1   4
BRANCH   1  18
ATOM     14  C   UNL     1       1.459   2.608  21.630  0.00  0.00    +0.000 C 
ATOM     15  C   UNL     1       2.410   3.350  20.734  0.00  0.00    +0.000 A 
ATOM     16  C   UNL     1       3.540   2.721  20.187  0.00  0.00    +0.000 A 
ATOM     17  C   UNL     1       4.446   3.441  19.406  0.00  0.00    +0.000 A 
ATOM     18  C   UNL     1       4.218   4.793  19.147  0.00  0.00    +0.000 A 
ATOM     19  C   UNL     1       3.100   5.434  19.691  0.00  0.00    +0.000 A 
ATOM     20  C   UNL     1       2.199   4.712  20.475  0.00  0.00    +0.000 A 
ENDBRANCH   1  18
TORSDOF 2
ENDMDL
MODEL 9
REMARK VINA RESULT:      -7.4      2.773      4.576
REMARK  Name = 
REMARK  4 active torsions:
REMARK  status: ('A' for Active; 'I' for Inactive)
REMARK    1  A    between atoms: C_1  and  C_2
REMARK    2  A    between atoms: C_5  and  S_6
REMARK    3  A    between atoms: S_6  and  N_9
REMARK    4  A    between atoms: C_16  and  C_17
REMARK                            x       y       z     vdW  Elec       q    Type
REMARK                         _______ _______ _______ _____ _____    ______ ____
ROOT
ATOM      1  S   UNL     1       6.943   5.211  16.514  0.00  0.00    +0.000 S 
ATOM      2  O   UNL     1       6.743   5.629  15.144  0.00  0.00    +0.000 OA
ATOM      3  O   UNL     1       7.872   4.148  16.840  0.00  0.00    +0.000 OA
ENDROOT
BRANCH   1   4
ATOM      4  N   UNL     1       5.453   4.789  17.134  0.00  0.00    +0.000 NA
ATOM      5  C   UNL     1       5.377   3.750  18.180  0.00  0.00    +0.000 C 
ATOM      6  C   UNL     1       4.091   4.066  18.804  0.00  0.00    +0.000 C 
ATOM      7  C   UNL     1       3.470   5.117  18.258  0.00  0.00    +0.000 C 
ATOM      8  C   UNL     1       4.317   5.753  17.217  0.00  0.00    +0.000 C 
ATOM      9  C   UNL     1       2.143   5.375  18.816  0.00  0.00    +0.000 C 
ATOM     10  C   UNL     1       2.038   5.802  20.246  0.00  0.00    +0.000 C 
ATOM     11  C   UNL     1       2.018   4.309  19.951  0.00  0.00    +0.000 C 
ATOM     12  C   UNL     1       0.807   3.595  20.465  0.00  0.00    +0.000 C 
ATOM     13  C   UNL     1       3.288   3.439  19.874  0.00  0.00    +0.000 C 
ENDBRANCH   1   4
BRANCH   1  18
ATOM     14  C   UNL     1       9.171  10.091  19.381  0.00  0.00    +0.000 C 
ATOM     15  C   UNL     1       8.546   8.887  18.734  0.00  0.00    +0.000 A 
ATOM     16  C   UNL     1       8.655   7.610  19.308  0.00  0.00    +0.000 A 
ATOM     17  C   UNL     1       8.121   6.493  18.662  0.00  0.00    +0.000 A 
ATOM     18  C   UNL     1       7.454   6.647  17.446  0.00  0.00    +0.000 A 
ATOM     19  C   UNL     1       7.344   7.912  16.860  0.00  0.00    +0.000 A 
ATOM     20  C   UNL     1       7.883   9.026  17.506  0.00  0.00    +0.000 A 
ENDBRANCH   1  18
TORSDOF 2
ENDMDL
