MODEL 1
REMARK VINA RESULT:      -8.4      0.000      0.000
REMARK  Name = 
REMARK  7 active torsions:
REMARK  status: ('A' for Active; 'I' for Inactive)
REMARK    1  A    between atoms: C_1  and  N_2
REMARK    2  A    between atoms: C_6  and  C_7
REMARK    3  A    between atoms: N_9  and  C_10
REMARK    4  A    between atoms: C_10  and  C_11
REMARK    5  A    between atoms: C_11  and  C_12
REMARK    6  A    between atoms: C_11  and  O_13
REMARK    7  A    between atoms: C_11  and  C_14
REMARK                            x       y       z     vdW  Elec       q    Type
REMARK                         _______ _______ _______ _____ _____    ______ ____
ROOT
ATOM      1  C   UNL     1       3.505   6.752  17.774  0.00  0.00    +0.000 C 
ATOM      2  O   UNL     1       3.373   7.935  17.465  0.00  0.00    +0.000 OA
ATOM      3  N   UNL     1       4.399   5.929  17.120  0.00  0.00    +0.000 N 
ATOM      4  H   UNL     1       4.195   4.940  17.097  0.00  0.00    +0.000 HD
ENDROOT
BRANCH   1  10
ATOM      5  C   UNL     1       1.932   8.246  19.972  0.00  0.00    +0.000 C 
ATOM      6  N   UNL     1       2.078   6.814  19.830  0.00  0.00    +0.000 N 
ATOM      7  N   UNL     1       1.482   6.021  20.744  0.00  0.00    +0.000 NA
ATOM      8  C   UNL     1       1.778   4.786  20.353  0.00  0.00    +0.000 A 
ATOM      9  C   UNL     1       2.565   4.780  19.175  0.00  0.00    +0.000 A 
ATOM     10  C   UNL     1       2.744   6.122  18.839  0.00  0.00    +0.000 A 
ATOM     11  C   UNL     1       3.117   3.553  18.548  0.00  0.00    +0.000 C 
ATOM     12  S   UNL     1       2.330   2.051  19.127  0.00  0.00    +0.000 S 
ATOM     13  O   UNL     1       3.281   0.966  18.966  0.00  0.00    +0.000 OA
ATOM     14  O   UNL     1       1.011   1.961  18.532  0.00  0.00    +0.000 OA
ATOM     15  C   UNL     1       2.133   2.360  20.871  0.00  0.00    +0.000 C 
ATOM     16  C   UNL     1       1.289   3.599  21.114  0.00  0.00    +0.000 C 
ENDBRANCH   1  10
BRANCH   3  17
ATOM     17  C   UNL     1       5.266   6.403  16.042  0.00  0.00    +0.000 C 
BRANCH  17  18
ATOM     18  C   UNL     1       6.596   5.598  15.912  0.00  0.00    +0.000 C 
ATOM     19  C   UNL     1       6.653   4.528  17.017  0.00  0.00    +0.000 C 
BRANCH  18  20
ATOM     20  C   UNL     1       6.766   5.010  14.508  0.00  0.00    +0.000 A 
ATOM     21  C   UNL     1       7.731   5.532  13.624  0.00  0.00    +0.000 A 
ATOM     22  C   UNL     1       7.838   5.085  12.303  0.00  0.00    +0.000 A 
ATOM     23  C   UNL     1       6.995   4.080  11.845  0.00  0.00    +0.000 A 
ATOM     24  C   UNL     1       6.066   3.526  12.716  0.00  0.00    +0.000 A 
ATOM     25  F   UNL     1       5.266   2.542  12.283  0.00  0.00    +0.000 F 
ATOM     26  C   UNL     1       5.940   3.980  14.029  0.00  0.00    +0.000 A 
ENDBRANCH  18  20
BRANCH  18  27
ATOM     27  O   UNL     1       7.688   6.499  16.182  0.00  0.00    +0.000 OA
ATOM     28  H   UNL     1       8.392   5.967  16.595  0.00  0.00    +0.000 HD
ENDBRANCH  18  27
ENDBRANCH  17  18
ENDBRANCH   3  17
TORSDOF 5
ENDMDL
MODEL 2
REMARK VINA RESULT:      -8.3      1.531      1.955
REMARK  Name = 
REMARK  7 active torsions:
REMARK  status: ('A' for Active; 'I' for Inactive)
REMARK    1  A    between atoms: C_1  and  N_2
REMARK    2  A    between atoms: C_6  and  C_7
REMARK    3  A    between atoms: N_9  and  C_10
REMARK    4  A    between atoms: C_10  and  C_11
REMARK    5  A    between atoms: C_11  and  C_12
REMARK    6  A    between atoms: C_11  and  O_13
REMARK    7  A    between atoms: C_11  and  C_14
REMARK                            x       y       z     vdW  Elec       q    Type
REMARK                         _______ _______ _______ _____ _____    ______ ____
ROOT
ATOM      1  C   UNL     1       4.879   6.489  17.159  0.00  0.00    +0.000 C 
ATOM      2  O   UNL     1       5.725   7.359  17.361  0.00  0.00    +0.000 OA
ATOM      3  N   UNL     1       4.807   5.818  15.954  0.00  0.00    +0.000 N 
ATOM      4  H   UNL     1       3.908   5.450  15.676  0.00  0.00    +0.000 HD
ENDROOT
BRANCH   1  10
ATOM      5  C   UNL     1       2.508   8.223  18.111  0.00  0.00    +0.000 C 
ATOM      6  N   UNL     1       2.864   6.903  18.584  0.00  0.00    +0.000 N 
ATOM      7  N   UNL     1       2.103   6.348  19.550  0.00  0.00    +0.000 NA
ATOM      8  C   UNL     1       2.657   5.159  19.764  0.00  0.00    +0.000 A 
ATOM      9  C   UNL     1       3.779   4.941  18.927  0.00  0.00    +0.000 A 
ATOM     10  C   UNL     1       3.895   6.094  18.150  0.00  0.00    +0.000 A 
ATOM     11  C   UNL     1       4.649   3.741  18.996  0.00  0.00    +0.000 C 
ATOM     12  S   UNL     1       3.904   2.381  19.895  0.00  0.00    +0.000 S 
ATOM     13  O   UNL     1       4.978   1.560  20.421  0.00  0.00    +0.000 OA
ATOM     14  O   UNL     1       2.871   1.790  19.066  0.00  0.00    +0.000 OA
ATOM     15  C   UNL     1       3.113   3.203  21.263  0.00  0.00    +0.000 C 
ATOM     16  C   UNL     1       2.094   4.218  20.777  0.00  0.00    +0.000 C 
ENDBRANCH   1  10
BRANCH   3  17
ATOM     17  C   UNL     1       5.736   6.069  14.854  0.00  0.00    +0.000 C 
BRANCH  17  18
ATOM     18  C   UNL     1       6.720   4.887  14.587  0.00  0.00    +0.000 C 
ATOM     19  C   UNL     1       6.844   4.031  15.860  0.00  0.00    +0.000 C 
BRANCH  18  20
ATOM     20  C   UNL     1       6.301   4.069  13.361  0.00  0.00    +0.000 A 
ATOM     21  C   UNL     1       4.943   3.964  13.000  0.00  0.00    +0.000 A 
ATOM     22  C   UNL     1       4.523   3.141  11.949  0.00  0.00    +0.000 A 
ATOM     23  C   UNL     1       5.462   2.425  11.217  0.00  0.00    +0.000 A 
ATOM     24  C   UNL     1       6.808   2.550  11.534  0.00  0.00    +0.000 A 
ATOM     25  F   UNL     1       7.717   1.877  10.816  0.00  0.00    +0.000 F 
ATOM     26  C   UNL     1       7.233   3.353  12.592  0.00  0.00    +0.000 A 
ENDBRANCH  18  20
BRANCH  18  27
ATOM     27  O   UNL     1       8.029   5.444  14.358  0.00  0.00    +0.000 OA
ATOM     28  H   UNL     1       8.184   6.091  15.070  0.00  0.00    +0.000 HD
ENDBRANCH  18  27
ENDBRANCH  17  18
ENDBRANCH   3  17
TORSDOF 5
ENDMDL
MODEL 3
REMARK VINA RESULT:      -8.2      0.944      1.386
REMARK  Name = 
REMARK  7 active torsions:
REMARK  status: ('A' for Active; 'I' for Inactive)
REMARK    1  A    between atoms: C_1  and  N_2
REMARK    2  A    between atoms: C_6  and  C_7
REMARK    3  A    between atoms: N_9  and  C_10
REMARK    4  A    between atoms: C_10  and  C_11
REMARK    5  A    between atoms: C_11  and  C_12
REMARK    6  A    between atoms: C_11  and  O_13
REMARK    7  A    between atoms: C_11  and  C_14
REMARK                            x       y       z     vdW  Elec       q    Type
REMARK                         _______ _______ _______ _____ _____    ______ ____
ROOT
ATOM      1  C   UNL     1       3.495   6.876  18.083  0.00  0.00    +0.000 C 
ATOM      2  O   UNL     1       3.071   7.819  17.414  0.00  0.00    +0.000 OA
ATOM      3  N   UNL     1       4.794   6.428  17.957  0.00  0.00    +0.000 N 
ATOM      4  H   UNL     1       4.978   5.459  18.175  0.00  0.00    +0.000 HD
ENDROOT
BRANCH   1  10
ATOM      5  C   UNL     1       1.836   8.181  20.337  0.00  0.00    +0.000 C 
ATOM      6  N   UNL     1       1.975   6.766  20.069  0.00  0.00    +0.000 N 
ATOM      7  N   UNL     1       1.331   5.900  20.877  0.00  0.00    +0.000 NA
ATOM      8  C   UNL     1       1.634   4.703  20.387  0.00  0.00    +0.000 A 
ATOM      9  C   UNL     1       2.474   4.796  19.250  0.00  0.00    +0.000 A 
ATOM     10  C   UNL     1       2.680   6.160  19.048  0.00  0.00    +0.000 A 
ATOM     11  C   UNL     1       3.043   3.625  18.537  0.00  0.00    +0.000 C 
ATOM     12  S   UNL     1       2.217   2.086  18.937  0.00  0.00    +0.000 S 
ATOM     13  O   UNL     1       3.165   1.009  18.719  0.00  0.00    +0.000 OA
ATOM     14  O   UNL     1       0.926   2.069  18.278  0.00  0.00    +0.000 OA
ATOM     15  C   UNL     1       1.943   2.235  20.692  0.00  0.00    +0.000 C 
ATOM     16  C   UNL     1       1.100   3.457  21.012  0.00  0.00    +0.000 C 
ENDBRANCH   1  10
BRANCH   3  17
ATOM     17  C   UNL     1       5.760   7.049  17.053  0.00  0.00    +0.000 C 
BRANCH  17  18
ATOM     18  C   UNL     1       6.925   6.098  16.635  0.00  0.00    +0.000 C 
ATOM     19  C   UNL     1       7.295   5.195  17.826  0.00  0.00    +0.000 C 
BRANCH  18  20
ATOM     20  C   UNL     1       6.580   5.303  15.373  0.00  0.00    +0.000 A 
ATOM     21  C   UNL     1       5.514   4.381  15.376  0.00  0.00    +0.000 A 
ATOM     22  C   UNL     1       5.242   3.566  14.271  0.00  0.00    +0.000 A 
ATOM     23  C   UNL     1       6.018   3.679  13.125  0.00  0.00    +0.000 A 
ATOM     24  C   UNL     1       7.047   4.612  13.091  0.00  0.00    +0.000 A 
ATOM     25  F   UNL     1       7.782   4.738  11.978  0.00  0.00    +0.000 F 
ATOM     26  C   UNL     1       7.335   5.414  14.195  0.00  0.00    +0.000 A 
ENDBRANCH  18  20
BRANCH  18  27
ATOM     27  O   UNL     1       8.089   6.908  16.380  0.00  0.00    +0.000 OA
ATOM     28  H   UNL     1       8.639   6.413  15.747  0.00  0.00    +0.000 HD
ENDBRANCH  18  27
ENDBRANCH  17  18
ENDBRANCH   3  17
TORSDOF 5
ENDMDL
MODEL 4
REMARK VINA RESULT:      -8.0      4.072      7.806
REMARK  Name = 
REMARK  7 active torsions:
REMARK  status: ('A' for Active; 'I' for Inactive)
REMARK    1  A    between atoms: C_1  and  N_2
REMARK    2  A    between atoms: C_6  and  C_7
REMARK    3  A    between atoms: N_9  and  C_10
REMARK    4  A    between atoms: C_10  and  C_11
REMARK    5  A    between atoms: C_11  and  C_12
REMARK    6  A    between atoms: C_11  and  O_13
REMARK    7  A    between atoms: C_11  and  C_14
REMARK                            x       y       z     vdW  Elec       q    Type
REMARK                         _______ _______ _______ _____ _____    ______ ____
ROOT
ATOM      1  C   UNL     1       2.361   6.545  19.349  0.00  0.00    +0.000 C 
ATOM      2  O   UNL     1       2.103   6.367  20.539  0.00  0.00    +0.000 OA
ATOM      3  N   UNL     1       2.108   7.752  18.729  0.00  0.00    +0.000 N 
ATOM      4  H   UNL     1       1.933   7.739  17.733  0.00  0.00    +0.000 HD
ENDROOT
BRANCH   1  10
ATOM      5  C   UNL     1       1.164   3.740  18.865  0.00  0.00    +0.000 C 
ATOM      6  N   UNL     1       2.404   4.259  18.330  0.00  0.00    +0.000 N 
ATOM      7  N   UNL     1       3.142   3.453  17.540  0.00  0.00    +0.000 NA
ATOM      8  C   UNL     1       4.192   4.194  17.202  0.00  0.00    +0.000 A 
ATOM      9  C   UNL     1       4.129   5.489  17.771  0.00  0.00    +0.000 A 
ATOM     10  C   UNL     1       2.942   5.519  18.502  0.00  0.00    +0.000 A 
ATOM     11  C   UNL     1       5.198   6.511  17.638  0.00  0.00    +0.000 C 
ATOM     12  S   UNL     1       6.359   6.148  16.323  0.00  0.00    +0.000 S 
ATOM     13  O   UNL     1       7.617   6.792  16.656  0.00  0.00    +0.000 OA
ATOM     14  O   UNL     1       5.716   6.417  15.051  0.00  0.00    +0.000 OA
ATOM     15  C   UNL     1       6.582   4.387  16.471  0.00  0.00    +0.000 C 
ATOM     16  C   UNL     1       5.262   3.654  16.311  0.00  0.00    +0.000 C 
ENDBRANCH   1  10
BRANCH   3  17
ATOM     17  C   UNL     1       1.551   8.903  19.437  0.00  0.00    +0.000 C 
BRANCH  17  18
ATOM     18  C   UNL     1       1.136  10.074  18.493  0.00  0.00    +0.000 C 
ATOM     19  C   UNL     1      -0.374   9.985  18.205  0.00  0.00    +0.000 C 
BRANCH  18  20
ATOM     20  C   UNL     1       1.552  11.434  19.062  0.00  0.00    +0.000 A 
ATOM     21  C   UNL     1       1.108  11.844  20.335  0.00  0.00    +0.000 A 
ATOM     22  C   UNL     1       1.386  13.120  20.836  0.00  0.00    +0.000 A 
ATOM     23  C   UNL     1       2.142  14.007  20.080  0.00  0.00    +0.000 A 
ATOM     24  C   UNL     1       2.623  13.603  18.841  0.00  0.00    +0.000 A 
ATOM     25  F   UNL     1       3.371  14.449  18.120  0.00  0.00    +0.000 F 
ATOM     26  C   UNL     1       2.333  12.340  18.327  0.00  0.00    +0.000 A 
ENDBRANCH  18  20
BRANCH  18  27
ATOM     27  O   UNL     1       1.789   9.873  17.224  0.00  0.00    +0.000 OA
ATOM     28  H   UNL     1       2.745   9.823  17.408  0.00  0.00    +0.000 HD
ENDBRANCH  18  27
ENDBRANCH  17  18
ENDBRANCH   3  17
TORSDOF 5
ENDMDL
MODEL 5
REMARK VINA RESULT:      -8.0      4.374      7.942
REMARK  Name = 
REMARK  7 active torsions:
REMARK  status: ('A' for Active; 'I' for Inactive)
REMARK    1  A    between atoms: C_1  and  N_2
REMARK    2  A    between atoms: C_6  and  C_7
REMARK    3  A    between atoms: N_9  and  C_10
REMARK    4  A    between atoms: C_10  and  C_11
REMARK    5  A    between atoms: C_11  and  C_12
REMARK    6  A    between atoms: C_11  and  O_13
REMARK    7  A    between atoms: C_11  and  C_14
REMARK                            x       y       z     vdW  Elec       q    Type
REMARK                         _______ _______ _______ _____ _____    ______ ____
ROOT
ATOM      1  C   UNL     1       2.119   6.499  19.654  0.00  0.00    +0.000 C 
ATOM      2  O   UNL     1       1.864   6.235  20.828  0.00  0.00    +0.000 OA
ATOM      3  N   UNL     1       1.840   7.739  19.115  0.00  0.00    +0.000 N 
ATOM      4  H   UNL     1       1.667   7.790  18.121  0.00  0.00    +0.000 HD
ENDROOT
BRANCH   1  10
ATOM      5  C   UNL     1       1.076   3.647  19.096  0.00  0.00    +0.000 C 
ATOM      6  N   UNL     1       2.259   4.264  18.536  0.00  0.00    +0.000 N 
ATOM      7  N   UNL     1       3.011   3.538  17.684  0.00  0.00    +0.000 NA
ATOM      8  C   UNL     1       3.999   4.356  17.337  0.00  0.00    +0.000 A 
ATOM      9  C   UNL     1       3.881   5.621  17.964  0.00  0.00    +0.000 A 
ATOM     10  C   UNL     1       2.726   5.546  18.741  0.00  0.00    +0.000 A 
ATOM     11  C   UNL     1       4.880   6.711  17.834  0.00  0.00    +0.000 C 
ATOM     12  S   UNL     1       6.005   6.475  16.459  0.00  0.00    +0.000 S 
ATOM     13  O   UNL     1       7.234   7.182  16.771  0.00  0.00    +0.000 OA
ATOM     14  O   UNL     1       5.294   6.755  15.226  0.00  0.00    +0.000 OA
ATOM     15  C   UNL     1       6.340   4.727  16.523  0.00  0.00    +0.000 C 
ATOM     16  C   UNL     1       5.061   3.920  16.383  0.00  0.00    +0.000 C 
ENDBRANCH   1  10
BRANCH   3  17
ATOM     17  C   UNL     1       1.254   8.826  19.897  0.00  0.00    +0.000 C 
BRANCH  17  18
ATOM     18  C   UNL     1       1.071  10.148  19.088  0.00  0.00    +0.000 C 
ATOM     19  C   UNL     1       2.031  10.145  17.885  0.00  0.00    +0.000 C 
BRANCH  18  20
ATOM     20  C   UNL     1      -0.390  10.363  18.680  0.00  0.00    +0.000 A 
ATOM     21  C   UNL     1      -0.937   9.670  17.581  0.00  0.00    +0.000 A 
ATOM     22  C   UNL     1      -2.234   9.923  17.122  0.00  0.00    +0.000 A 
ATOM     23  C   UNL     1      -3.025  10.859  17.776  0.00  0.00    +0.000 A 
ATOM     24  C   UNL     1      -2.516  11.521  18.886  0.00  0.00    +0.000 A 
ATOM     25  F   UNL     1      -3.285  12.408  19.531  0.00  0.00    +0.000 F 
ATOM     26  C   UNL     1      -1.217  11.288  19.337  0.00  0.00    +0.000 A 
ENDBRANCH  18  20
BRANCH  18  27
ATOM     27  O   UNL     1       1.493  11.242  19.924  0.00  0.00    +0.000 OA
ATOM     28  H   UNL     1       1.833  10.848  20.748  0.00  0.00    +0.000 HD
ENDBRANCH  18  27
ENDBRANCH  17  18
ENDBRANCH   3  17
TORSDOF 5
ENDMDL
MODEL 6
REMARK VINA RESULT:      -8.0      4.315      7.985
REMARK  Name = 
REMARK  7 active torsions:
REMARK  status: ('A' for Active; 'I' for Inactive)
REMARK    1  A    between atoms: C_1  and  N_2
REMARK    2  A    between atoms: C_6  and  C_7
REMARK    3  A    between atoms: N_9  and  C_10
REMARK    4  A    between atoms: C_10  and  C_11
REMARK    5  A    between atoms: C_11  and  C_12
REMARK    6  A    between atoms: C_11  and  O_13
REMARK    7  A    between atoms: C_11  and  C_14
REMARK                            x       y       z     vdW  Elec       q    Type
REMARK                         _______ _______ _______ _____ _____    ______ ____
ROOT
ATOM      1  C   UNL     1       2.336   6.493  19.290  0.00  0.00    +0.000 C 
ATOM      2  O   UNL     1       2.038   6.291  20.466  0.00  0.00    +0.000 OA
ATOM      3  N   UNL     1       2.125   7.718  18.691  0.00  0.00    +0.000 N 
ATOM      4  H   UNL     1       1.981   7.732  17.691  0.00  0.00    +0.000 HD
ENDROOT
BRANCH   1  10
ATOM      5  C   UNL     1       1.150   3.690  18.767  0.00  0.00    +0.000 C 
ATOM      6  N   UNL     1       2.393   4.217  18.247  0.00  0.00    +0.000 N 
ATOM      7  N   UNL     1       3.138   3.421  17.454  0.00  0.00    +0.000 NA
ATOM      8  C   UNL     1       4.189   4.168  17.132  0.00  0.00    +0.000 A 
ATOM      9  C   UNL     1       4.119   5.457  17.714  0.00  0.00    +0.000 A 
ATOM     10  C   UNL     1       2.926   5.477  18.436  0.00  0.00    +0.000 A 
ATOM     11  C   UNL     1       5.187   6.482  17.600  0.00  0.00    +0.000 C 
ATOM     12  S   UNL     1       6.358   6.136  16.289  0.00  0.00    +0.000 S 
ATOM     13  O   UNL     1       7.612   6.779  16.638  0.00  0.00    +0.000 OA
ATOM     14  O   UNL     1       5.724   6.416  15.016  0.00  0.00    +0.000 OA
ATOM     15  C   UNL     1       6.584   4.374  16.421  0.00  0.00    +0.000 C 
ATOM     16  C   UNL     1       5.266   3.639  16.244  0.00  0.00    +0.000 C 
ENDBRANCH   1  10
BRANCH   3  17
ATOM     17  C   UNL     1       1.565   8.862  19.409  0.00  0.00    +0.000 C 
BRANCH  17  18
ATOM     18  C   UNL     1       1.114  10.026  18.472  0.00  0.00    +0.000 C 
ATOM     19  C   UNL     1      -0.318   9.754  17.977  0.00  0.00    +0.000 C 
BRANCH  18  20
ATOM     20  C   UNL     1       1.256  11.389  19.156  0.00  0.00    +0.000 A 
ATOM     21  C   UNL     1       2.120  12.369  18.628  0.00  0.00    +0.000 A 
ATOM     22  C   UNL     1       2.348  13.582  19.287  0.00  0.00    +0.000 A 
ATOM     23  C   UNL     1       1.690  13.852  20.480  0.00  0.00    +0.000 A 
ATOM     24  C   UNL     1       0.803  12.914  20.993  0.00  0.00    +0.000 A 
ATOM     25  F   UNL     1       0.151  13.181  22.132  0.00  0.00    +0.000 F 
ATOM     26  C   UNL     1       0.586  11.694  20.351  0.00  0.00    +0.000 A 
ENDBRANCH  18  20
BRANCH  18  27
ATOM     27  O   UNL     1       1.948   9.997  17.297  0.00  0.00    +0.000 OA
ATOM     28  H   UNL     1       1.347   9.955  16.531  0.00  0.00    +0.000 HD
ENDBRANCH  18  27
ENDBRANCH  17  18
ENDBRANCH   3  17
TORSDOF 5
ENDMDL
MODEL 7
REMARK VINA RESULT:      -8.0      1.456      1.745
REMARK  Name = 
REMARK  7 active torsions:
REMARK  status: ('A' for Active; 'I' for Inactive)
REMARK    1  A    between atoms: C_1  and  N_2
REMARK    2  A    between atoms: C_6  and  C_7
REMARK    3  A    between atoms: N_9  and  C_10
REMARK    4  A    between atoms: C_10  and  C_11
REMARK    5  A    between atoms: C_11  and  C_12
REMARK    6  A    between atoms: C_11  and  O_13
REMARK    7  A    between atoms: C_11  and  C_14
REMARK                            x       y       z     vdW  Elec       q    Type
REMARK                         _______ _______ _______ _____ _____    ______ ____
ROOT
ATOM      1  C   UNL     1       4.828   6.412  17.122  0.00  0.00    +0.000 C 
ATOM      2  O   UNL     1       5.682   7.271  17.337  0.00  0.00    +0.000 OA
ATOM      3  N   UNL     1       4.737   5.772  15.903  0.00  0.00    +0.000 N 
ATOM      4  H   UNL     1       3.833   5.418  15.625  0.00  0.00    +0.000 HD
ENDROOT
BRANCH   1  10
ATOM      5  C   UNL     1       2.448   8.118  18.103  0.00  0.00    +0.000 C 
ATOM      6  N   UNL     1       2.816   6.796  18.561  0.00  0.00    +0.000 N 
ATOM      7  N   UNL     1       2.064   6.226  19.525  0.00  0.00    +0.000 NA
ATOM      8  C   UNL     1       2.629   5.039  19.725  0.00  0.00    +0.000 A 
ATOM      9  C   UNL     1       3.748   4.839  18.881  0.00  0.00    +0.000 A 
ATOM     10  C   UNL     1       3.851   6.000  18.115  0.00  0.00    +0.000 A 
ATOM     11  C   UNL     1       4.628   3.644  18.934  0.00  0.00    +0.000 C 
ATOM     12  S   UNL     1       3.898   2.270  19.822  0.00  0.00    +0.000 S 
ATOM     13  O   UNL     1       4.981   1.453  20.335  0.00  0.00    +0.000 OA
ATOM     14  O   UNL     1       2.866   1.679  18.992  0.00  0.00    +0.000 OA
ATOM     15  C   UNL     1       3.108   3.073  21.203  0.00  0.00    +0.000 C 
ATOM     16  C   UNL     1       2.078   4.084  20.731  0.00  0.00    +0.000 C 
ENDBRANCH   1  10
BRANCH   3  17
ATOM     17  C   UNL     1       5.656   6.044  14.798  0.00  0.00    +0.000 C 
BRANCH  17  18
ATOM     18  C   UNL     1       6.701   4.909  14.563  0.00  0.00    +0.000 C 
ATOM     19  C   UNL     1       6.900   4.122  15.871  0.00  0.00    +0.000 C 
BRANCH  18  20
ATOM     20  C   UNL     1       6.306   4.012  13.386  0.00  0.00    +0.000 A 
ATOM     21  C   UNL     1       7.292   3.359  12.619  0.00  0.00    +0.000 A 
ATOM     22  C   UNL     1       6.967   2.619  11.478  0.00  0.00    +0.000 A 
ATOM     23  C   UNL     1       5.638   2.492  11.094  0.00  0.00    +0.000 A 
ATOM     24  C   UNL     1       4.650   3.095  11.862  0.00  0.00    +0.000 A 
ATOM     25  F   UNL     1       3.366   2.956  11.507  0.00  0.00    +0.000 F 
ATOM     26  C   UNL     1       4.968   3.851  12.991  0.00  0.00    +0.000 A 
ENDBRANCH  18  20
BRANCH  18  27
ATOM     27  O   UNL     1       7.971   5.527  14.280  0.00  0.00    +0.000 OA
ATOM     28  H   UNL     1       8.474   4.895  13.735  0.00  0.00    +0.000 HD
ENDBRANCH  18  27
ENDBRANCH  17  18
ENDBRANCH   3  17
TORSDOF 5
ENDMDL
MODEL 8
REMARK VINA RESULT:      -8.0      3.936      7.709
REMARK  Name = 
REMARK  7 active torsions:
REMARK  status: ('A' for Active; 'I' for Inactive)
REMARK    1  A    between atoms: C_1  and  N_2
REMARK    2  A    between atoms: C_6  and  C_7
REMARK    3  A    between atoms: N_9  and  C_10
REMARK    4  A    between atoms: C_10  and  C_11
REMARK    5  A    between atoms: C_11  and  C_12
REMARK    6  A    between atoms: C_11  and  O_13
REMARK    7  A    between atoms: C_11  and  C_14
REMARK                            x       y       z     vdW  Elec       q    Type
REMARK                         _______ _______ _______ _____ _____    ______ ____
ROOT
ATOM      1  C   UNL     1       2.079   6.560  19.677  0.00  0.00    +0.000 C 
ATOM      2  O   UNL     1       1.813   6.315  20.853  0.00  0.00    +0.000 OA
ATOM      3  N   UNL     1       1.800   7.789  19.114  0.00  0.00    +0.000 N 
ATOM      4  H   UNL     1       1.637   7.822  18.117  0.00  0.00    +0.000 HD
ENDROOT
BRANCH   1  10
ATOM      5  C   UNL     1       1.077   3.679  19.191  0.00  0.00    +0.000 C 
ATOM      6  N   UNL     1       2.250   4.300  18.614  0.00  0.00    +0.000 N 
ATOM      7  N   UNL     1       3.012   3.564  17.779  0.00  0.00    +0.000 NA
ATOM      8  C   UNL     1       3.987   4.388  17.410  0.00  0.00    +0.000 A 
ATOM      9  C   UNL     1       3.851   5.666  18.006  0.00  0.00    +0.000 A 
ATOM     10  C   UNL     1       2.698   5.594  18.787  0.00  0.00    +0.000 A 
ATOM     11  C   UNL     1       4.833   6.768  17.846  0.00  0.00    +0.000 C 
ATOM     12  S   UNL     1       5.960   6.515  16.476  0.00  0.00    +0.000 S 
ATOM     13  O   UNL     1       7.179   7.247  16.768  0.00  0.00    +0.000 OA
ATOM     14  O   UNL     1       5.243   6.753  15.238  0.00  0.00    +0.000 OA
ATOM     15  C   UNL     1       6.321   4.773  16.583  0.00  0.00    +0.000 C 
ATOM     16  C   UNL     1       5.054   3.944  16.465  0.00  0.00    +0.000 C 
ENDBRANCH   1  10
BRANCH   3  17
ATOM     17  C   UNL     1       1.203   8.888  19.871  0.00  0.00    +0.000 C 
BRANCH  17  18
ATOM     18  C   UNL     1       1.090  10.215  19.059  0.00  0.00    +0.000 C 
ATOM     19  C   UNL     1       2.082  10.178  17.883  0.00  0.00    +0.000 C 
BRANCH  18  20
ATOM     20  C   UNL     1      -0.350  10.485  18.612  0.00  0.00    +0.000 A 
ATOM     21  C   UNL     1      -1.162  11.395  19.319  0.00  0.00    +0.000 A 
ATOM     22  C   UNL     1      -2.510  11.582  18.997  0.00  0.00    +0.000 A 
ATOM     23  C   UNL     1      -3.069  10.880  17.937  0.00  0.00    +0.000 A 
ATOM     24  C   UNL     1      -2.272  10.011  17.204  0.00  0.00    +0.000 A 
ATOM     25  F   UNL     1      -2.804   9.349  16.167  0.00  0.00    +0.000 F 
ATOM     26  C   UNL     1      -0.932   9.804  17.531  0.00  0.00    +0.000 A 
ENDBRANCH  18  20
BRANCH  18  27
ATOM     27  O   UNL     1       1.530  11.293  19.909  0.00  0.00    +0.000 OA
ATOM     28  H   UNL     1       1.384  12.117  19.412  0.00  0.00    +0.000 HD
ENDBRANCH  18  27
ENDBRANCH  17  18
ENDBRANCH   3  17
TORSDOF 5
ENDMDL
MODEL 9
REMARK VINA RESULT:      -7.8      4.267      8.239
REMARK  Name = 
REMARK  7 active torsions:
REMARK  status: ('A' for Active; 'I' for Inactive)
REMARK    1  A    between atoms: C_1  and  N_2
REMARK    2  A    between atoms: C_6  and  C_7
REMARK    3  A    between atoms: N_9  and  C_10
REMARK    4  A    between atoms: C_10  and  C_11
REMARK    5  A    between atoms: C_11  and  C_12
REMARK    6  A    between atoms: C_11  and  O_13
REMARK    7  A    between atoms: C_11  and  C_14
REMARK                            x       y       z     vdW  Elec       q    Type
REMARK                         _______ _______ _______ _____ _____    ______ ____
ROOT
ATOM      1  C   UNL     1       2.504   7.627  18.237  0.00  0.00    +0.000 C 
ATOM      2  O   UNL     1       2.360   8.421  17.308  0.00  0.00    +0.000 OA
ATOM      3  N   UNL     1       2.002   7.889  19.495  0.00  0.00    +0.000 N 
ATOM      4  H   UNL     1       2.470   7.465  20.284  0.00  0.00    +0.000 HD
ENDROOT
BRANCH   1  10
ATOM      5  C   UNL     1       5.441   7.304  17.337  0.00  0.00    +0.000 C 
ATOM      6  N   UNL     1       4.509   6.245  17.659  0.00  0.00    +0.000 N 
ATOM      7  N   UNL     1       4.937   4.969  17.557  0.00  0.00    +0.000 NA
ATOM      8  C   UNL     1       3.888   4.239  17.918  0.00  0.00    +0.000 A 
ATOM      9  C   UNL     1       2.777   5.047  18.264  0.00  0.00    +0.000 A 
ATOM     10  C   UNL     1       3.206   6.363  18.097  0.00  0.00    +0.000 A 
ATOM     11  C   UNL     1       1.441   4.513  18.628  0.00  0.00    +0.000 C 
ATOM     12  S   UNL     1       1.468   2.772  19.049  0.00  0.00    +0.000 S 
ATOM     13  O   UNL     1       0.146   2.234  18.784  0.00  0.00    +0.000 OA
ATOM     14  O   UNL     1       2.069   2.622  20.360  0.00  0.00    +0.000 OA
ATOM     15  C   UNL     1       2.592   2.095  17.843  0.00  0.00    +0.000 C 
ATOM     16  C   UNL     1       3.959   2.748  17.943  0.00  0.00    +0.000 C 
ENDBRANCH   1  10
BRANCH   3  17
ATOM     17  C   UNL     1       1.246   9.100  19.808  0.00  0.00    +0.000 C 
BRANCH  17  18
ATOM     18  C   UNL     1       0.589   9.078  21.223  0.00  0.00    +0.000 C 
ATOM     19  C   UNL     1       1.690   8.955  22.292  0.00  0.00    +0.000 C 
BRANCH  18  20
ATOM     20  C   UNL     1      -0.319  10.291  21.445  0.00  0.00    +0.000 A 
ATOM     21  C   UNL     1      -0.764  10.626  22.739  0.00  0.00    +0.000 A 
ATOM     22  C   UNL     1      -1.676  11.664  22.958  0.00  0.00    +0.000 A 
ATOM     23  C   UNL     1      -2.141  12.411  21.883  0.00  0.00    +0.000 A 
ATOM     24  C   UNL     1      -1.680  12.121  20.605  0.00  0.00    +0.000 A 
ATOM     25  F   UNL     1      -2.110  12.853  19.570  0.00  0.00    +0.000 F 
ATOM     26  C   UNL     1      -0.786  11.075  20.377  0.00  0.00    +0.000 A 
ENDBRANCH  18  20
BRANCH  18  27
ATOM     27  O   UNL     1      -0.196   7.874  21.328  0.00  0.00    +0.000 OA
ATOM     28  H   UNL     1      -0.715   7.808  20.506  0.00  0.00    +0.000 HD
ENDBRANCH  18  27
ENDBRANCH  17  18
ENDBRANCH   3  17
TORSDOF 5
ENDMDL
