MODEL 1
REMARK VINA RESULT:      -7.5      0.000      0.000
REMARK  Name = 
REMARK  14 active torsions:
REMARK  status: ('A' for Active; 'I' for Inactive)
REMARK    1  A    between atoms: C_1  and  C_2
REMARK    2  A    between atoms: C_2  and  N_3
REMARK    3  A    between atoms: C_4  and  C_6
REMARK    4  A    between atoms: C_9  and  C_10
REMARK    5  A    between atoms: C_12  and  C_13
REMARK    6  A    between atoms: C_13  and  C_14
REMARK    7  A    between atoms: C_13  and  C_15
REMARK    8  A    between atoms: C_16  and  O_17
REMARK    9  A    between atoms: C_19  and  O_20
REMARK   10  A    between atoms: C_21  and  N_22
REMARK   11  A    between atoms: C_23  and  C_25
REMARK   12  A    between atoms: C_28  and  C_29
REMARK   13  A    between atoms: C_29  and  N_30
REMARK   14  A    between atoms: N_30  and  C_31
REMARK                            x       y       z     vdW  Elec       q    Type
REMARK                         _______ _______ _______ _____ _____    ______ ____
ROOT
ATOM      1  C   UNL     1       0.162  10.048  22.195  0.00  0.00    +0.000 A 
ATOM      2  N   UNL     1       1.291   9.712  22.851  0.00  0.00    +0.000 NA
ATOM      3  O   UNL     1       1.845   8.659  22.137  0.00  0.00    +0.000 OA
ATOM      4  C   UNL     1       1.081   8.380  21.036  0.00  0.00    +0.000 A 
ATOM      5  C   UNL     1       0.019   9.262  21.020  0.00  0.00    +0.000 A 
ENDROOT
BRANCH   4   6
ATOM      6  C   UNL     1       1.619   7.373  20.109  0.00  0.00    +0.000 A 
ATOM      7  C   UNL     1       1.608   6.006  20.473  0.00  0.00    +0.000 A 
ATOM      8  C   UNL     1       2.246   5.002  19.705  0.00  0.00    +0.000 A 
ATOM      9  C   UNL     1       2.888   5.412  18.528  0.00  0.00    +0.000 A 
ATOM     10  C   UNL     1       2.876   6.743  18.120  0.00  0.00    +0.000 A 
ATOM     11  C   UNL     1       2.251   7.712  18.902  0.00  0.00    +0.000 A 
BRANCH   8  12
ATOM     12  C   UNL     1       2.324   3.567  20.218  0.00  0.00    +0.000 C 
ATOM     13  C   UNL     1       2.204   3.557  21.746  0.00  0.00    +0.000 C 
ATOM     14  C   UNL     1       1.308   2.594  19.608  0.00  0.00    +0.000 C 
ENDBRANCH   8  12
BRANCH   9  15
ATOM     15  O   UNL     1       3.594   4.582  17.705  0.00  0.00    +0.000 OA
ATOM     16  H   UNL     1       4.171   4.000  18.220  0.00  0.00    +0.000 HD
ENDBRANCH   9  15
BRANCH  11  17
ATOM     17  O   UNL     1       2.304   9.013  18.465  0.00  0.00    +0.000 OA
ATOM     18  H   UNL     1       2.728   9.555  19.157  0.00  0.00    +0.000 HD
ENDBRANCH  11  17
ENDBRANCH   4   6
BRANCH   1  20
ATOM     19  N   UNL     1      -0.539  12.329  22.328  0.00  0.00    +0.000 N 
ATOM     20  C   UNL     1      -0.780  11.031  22.723  0.00  0.00    +0.000 C 
ATOM     21  O   UNL     1      -1.701  10.728  23.484  0.00  0.00    +0.000 OA
ATOM     22  H   UNL     1       0.176  12.473  21.622  0.00  0.00    +0.000 HD
BRANCH  19  24
ATOM     23  C   UNL     1      -1.572  14.440  21.615  0.00  0.00    +0.000 C 
ATOM     24  C   UNL     1      -1.399  13.419  22.725  0.00  0.00    +0.000 C 
ENDBRANCH  19  24
ENDBRANCH   1  20
BRANCH   5  25
ATOM     25  N   UNL     1      -0.936   9.353  20.016  0.00  0.00    +0.000 N 
ATOM     26  C   UNL     1      -0.991  10.463  19.191  0.00  0.00    +0.000 C 
ATOM     27  O   UNL     1      -0.255  11.441  19.293  0.00  0.00    +0.000 OA
ATOM     28  H   UNL     1      -1.210   8.462  19.609  0.00  0.00    +0.000 HD
BRANCH  26  29
ATOM     29  C   UNL     1      -1.986  10.290  18.041  0.00  0.00    +0.000 C 
ATOM     30  C   UNL     1      -2.596  11.626  17.611  0.00  0.00    +0.000 C 
ATOM     31  C   UNL     1      -3.628  11.426  16.501  0.00  0.00    +0.000 C 
ATOM     32  C   UNL     1      -3.047  10.684  15.281  0.00  0.00    +0.000 C 
ATOM     33  C   UNL     1      -2.353   9.380  15.713  0.00  0.00    +0.000 C 
ATOM     34  C   UNL     1      -1.337   9.607  16.831  0.00  0.00    +0.000 C 
BRANCH  32  35
ATOM     35  C   UNL     1      -4.131  10.374  14.226  0.00  0.00    +0.000 C 
BRANCH  35  36
ATOM     36  N   UNL     1      -3.534   9.905  12.974  0.00  0.00    +0.000 NA
ATOM     37  C   UNL     1      -4.525   9.817  11.911  0.00  0.00    +0.000 C 
ATOM     38  H   UNL     1      -3.117   8.986  13.124  0.00  0.00    +0.000 HD
ENDBRANCH  35  36
ENDBRANCH  32  35
ENDBRANCH  26  29
ENDBRANCH   5  25
TORSDOF 10
ENDMDL
MODEL 2
REMARK VINA RESULT:      -7.4      0.563      1.051
REMARK  Name = 
REMARK  14 active torsions:
REMARK  status: ('A' for Active; 'I' for Inactive)
REMARK    1  A    between atoms: C_1  and  C_2
REMARK    2  A    between atoms: C_2  and  N_3
REMARK    3  A    between atoms: C_4  and  C_6
REMARK    4  A    between atoms: C_9  and  C_10
REMARK    5  A    between atoms: C_12  and  C_13
REMARK    6  A    between atoms: C_13  and  C_14
REMARK    7  A    between atoms: C_13  and  C_15
REMARK    8  A    between atoms: C_16  and  O_17
REMARK    9  A    between atoms: C_19  and  O_20
REMARK   10  A    between atoms: C_21  and  N_22
REMARK   11  A    between atoms: C_23  and  C_25
REMARK   12  A    between atoms: C_28  and  C_29
REMARK   13  A    between atoms: C_29  and  N_30
REMARK   14  A    between atoms: N_30  and  C_31
REMARK                            x       y       z     vdW  Elec       q    Type
REMARK                         _______ _______ _______ _____ _____    ______ ____
ROOT
ATOM      1  C   UNL     1       0.045  10.235  22.286  0.00  0.00    +0.000 A 
ATOM      2  N   UNL     1       1.029   9.725  23.055  0.00  0.00    +0.000 NA
ATOM      3  O   UNL     1       1.587   8.690  22.317  0.00  0.00    +0.000 OA
ATOM      4  C   UNL     1       0.973   8.592  21.098  0.00  0.00    +0.000 A 
ATOM      5  C   UNL     1       0.008   9.578  21.027  0.00  0.00    +0.000 A 
ENDROOT
BRANCH   4   6
ATOM      6  C   UNL     1       1.550   7.623  20.154  0.00  0.00    +0.000 A 
ATOM      7  C   UNL     1       1.637   6.258  20.514  0.00  0.00    +0.000 A 
ATOM      8  C   UNL     1       2.318   5.299  19.727  0.00  0.00    +0.000 A 
ATOM      9  C   UNL     1       2.900   5.751  18.534  0.00  0.00    +0.000 A 
ATOM     10  C   UNL     1       2.791   7.079  18.131  0.00  0.00    +0.000 A 
ATOM     11  C   UNL     1       2.126   8.004  18.932  0.00  0.00    +0.000 A 
BRANCH   8  12
ATOM     12  C   UNL     1       2.503   3.872  20.233  0.00  0.00    +0.000 C 
ATOM     13  C   UNL     1       2.247   3.822  21.744  0.00  0.00    +0.000 C 
ATOM     14  C   UNL     1       1.656   2.807  19.525  0.00  0.00    +0.000 C 
ENDBRANCH   8  12
BRANCH   9  15
ATOM     15  O   UNL     1       3.636   4.969  17.690  0.00  0.00    +0.000 OA
ATOM     16  H   UNL     1       3.058   4.461  17.104  0.00  0.00    +0.000 HD
ENDBRANCH   9  15
BRANCH  11  17
ATOM     17  O   UNL     1       2.082   9.307  18.497  0.00  0.00    +0.000 OA
ATOM     18  H   UNL     1       2.062   9.892  19.277  0.00  0.00    +0.000 HD
ENDBRANCH  11  17
ENDBRANCH   4   6
BRANCH   1  20
ATOM     19  N   UNL     1      -0.586  12.539  22.359  0.00  0.00    +0.000 N 
ATOM     20  C   UNL     1      -0.873  11.258  22.779  0.00  0.00    +0.000 C 
ATOM     21  O   UNL     1      -1.814  11.000  23.533  0.00  0.00    +0.000 OA
ATOM     22  H   UNL     1       0.142  12.645  21.660  0.00  0.00    +0.000 HD
BRANCH  19  24
ATOM     23  C   UNL     1      -0.602  14.818  23.274  0.00  0.00    +0.000 C 
ATOM     24  C   UNL     1      -1.417  13.663  22.719  0.00  0.00    +0.000 C 
ENDBRANCH  19  24
ENDBRANCH   1  20
BRANCH   5  25
ATOM     25  N   UNL     1      -0.775   9.858  19.916  0.00  0.00    +0.000 N 
ATOM     26  C   UNL     1      -0.538  10.986  19.149  0.00  0.00    +0.000 C 
ATOM     27  O   UNL     1       0.326  11.824  19.397  0.00  0.00    +0.000 OA
ATOM     28  H   UNL     1      -1.133   9.039  19.430  0.00  0.00    +0.000 HD
BRANCH  26  29
ATOM     29  C   UNL     1      -1.383  11.018  17.874  0.00  0.00    +0.000 C 
ATOM     30  C   UNL     1      -1.360   9.674  17.143  0.00  0.00    +0.000 C 
ATOM     31  C   UNL     1      -2.163   9.742  15.843  0.00  0.00    +0.000 C 
ATOM     32  C   UNL     1      -3.614  10.205  16.069  0.00  0.00    +0.000 C 
ATOM     33  C   UNL     1      -3.652  11.513  16.881  0.00  0.00    +0.000 C 
ATOM     34  C   UNL     1      -2.833  11.421  18.167  0.00  0.00    +0.000 C 
BRANCH  32  35
ATOM     35  C   UNL     1      -4.372  10.396  14.738  0.00  0.00    +0.000 C 
BRANCH  35  36
ATOM     36  N   UNL     1      -3.452  10.394  13.598  0.00  0.00    +0.000 NA
ATOM     37  C   UNL     1      -4.047   9.753  12.434  0.00  0.00    +0.000 C 
ATOM     38  H   UNL     1      -2.598   9.899  13.856  0.00  0.00    +0.000 HD
ENDBRANCH  35  36
ENDBRANCH  32  35
ENDBRANCH  26  29
ENDBRANCH   5  25
TORSDOF 10
ENDMDL
MODEL 3
REMARK VINA RESULT:      -6.9      4.381      7.795
REMARK  Name = 
REMARK  14 active torsions:
REMARK  status: ('A' for Active; 'I' for Inactive)
REMARK    1  A    between atoms: C_1  and  C_2
REMARK    2  A    between atoms: C_2  and  N_3
REMARK    3  A    between atoms: C_4  and  C_6
REMARK    4  A    between atoms: C_9  and  C_10
REMARK    5  A    between atoms: C_12  and  C_13
REMARK    6  A    between atoms: C_13  and  C_14
REMARK    7  A    between atoms: C_13  and  C_15
REMARK    8  A    between atoms: C_16  and  O_17
REMARK    9  A    between atoms: C_19  and  O_20
REMARK   10  A    between atoms: C_21  and  N_22
REMARK   11  A    between atoms: C_23  and  C_25
REMARK   12  A    between atoms: C_28  and  C_29
REMARK   13  A    between atoms: C_29  and  N_30
REMARK   14  A    between atoms: N_30  and  C_31
REMARK                            x       y       z     vdW  Elec       q    Type
REMARK                         _______ _______ _______ _____ _____    ______ ____
ROOT
ATOM      1  C   UNL     1       2.896   2.581  18.436  0.00  0.00    +0.000 A 
ATOM      2  N   UNL     1       3.621   1.524  18.015  0.00  0.00    +0.000 NA
ATOM      3  O   UNL     1       4.468   2.013  17.032  0.00  0.00    +0.000 OA
ATOM      4  C   UNL     1       4.288   3.361  16.879  0.00  0.00    +0.000 A 
ATOM      5  C   UNL     1       3.320   3.766  17.776  0.00  0.00    +0.000 A 
ENDROOT
BRANCH   4   6
ATOM      6  C   UNL     1       5.215   4.042  15.962  0.00  0.00    +0.000 A 
ATOM      7  C   UNL     1       5.132   3.799  14.571  0.00  0.00    +0.000 A 
ATOM      8  C   UNL     1       6.085   4.293  13.647  0.00  0.00    +0.000 A 
ATOM      9  C   UNL     1       7.129   5.072  14.165  0.00  0.00    +0.000 A 
ATOM     10  C   UNL     1       7.211   5.367  15.524  0.00  0.00    +0.000 A 
ATOM     11  C   UNL     1       6.266   4.856  16.412  0.00  0.00    +0.000 A 
BRANCH   8  12
ATOM     12  C   UNL     1       6.026   3.883  12.179  0.00  0.00    +0.000 C 
ATOM     13  C   UNL     1       7.090   2.816  11.898  0.00  0.00    +0.000 C 
ATOM     14  C   UNL     1       4.657   3.397  11.686  0.00  0.00    +0.000 C 
ENDBRANCH   8  12
BRANCH   9  15
ATOM     15  O   UNL     1       8.157   5.578  13.421  0.00  0.00    +0.000 OA
ATOM     16  H   UNL     1       8.801   6.024  13.988  0.00  0.00    +0.000 HD
ENDBRANCH   9  15
BRANCH  11  17
ATOM     17  O   UNL     1       6.421   5.152  17.744  0.00  0.00    +0.000 OA
ATOM     18  H   UNL     1       7.370   5.289  17.922  0.00  0.00    +0.000 HD
ENDBRANCH  11  17
ENDBRANCH   4   6
BRANCH   1  20
ATOM     19  N   UNL     1       2.018   2.978  20.623  0.00  0.00    +0.000 N 
ATOM     20  C   UNL     1       1.788   2.438  19.376  0.00  0.00    +0.000 C 
ATOM     21  O   UNL     1       0.740   1.857  19.086  0.00  0.00    +0.000 OA
ATOM     22  H   UNL     1       2.865   3.525  20.742  0.00  0.00    +0.000 HD
BRANCH  19  24
ATOM     23  C   UNL     1       1.226   1.823  22.641  0.00  0.00    +0.000 C 
ATOM     24  C   UNL     1       1.012   2.961  21.659  0.00  0.00    +0.000 C 
ENDBRANCH  19  24
ENDBRANCH   1  20
BRANCH   5  25
ATOM     25  N   UNL     1       2.914   5.077  17.985  0.00  0.00    +0.000 N 
ATOM     26  C   UNL     1       3.357   5.788  19.087  0.00  0.00    +0.000 C 
ATOM     27  O   UNL     1       4.087   5.327  19.962  0.00  0.00    +0.000 OA
ATOM     28  H   UNL     1       2.739   5.608  17.135  0.00  0.00    +0.000 HD
BRANCH  26  29
ATOM     29  C   UNL     1       2.948   7.261  19.039  0.00  0.00    +0.000 C 
ATOM     30  C   UNL     1       2.435   7.664  17.655  0.00  0.00    +0.000 C 
ATOM     31  C   UNL     1       2.085   9.152  17.610  0.00  0.00    +0.000 C 
ATOM     32  C   UNL     1       1.069   9.552  18.697  0.00  0.00    +0.000 C 
ATOM     33  C   UNL     1       1.534   9.074  20.084  0.00  0.00    +0.000 C 
ATOM     34  C   UNL     1       1.888   7.588  20.097  0.00  0.00    +0.000 C 
BRANCH  32  35
ATOM     35  C   UNL     1       0.826  11.077  18.725  0.00  0.00    +0.000 C 
BRANCH  35  36
ATOM     36  N   UNL     1      -0.454  11.422  18.102  0.00  0.00    +0.000 NA
ATOM     37  C   UNL     1      -0.792  12.822  18.319  0.00  0.00    +0.000 C 
ATOM     38  H   UNL     1      -1.188  10.833  18.495  0.00  0.00    +0.000 HD
ENDBRANCH  35  36
ENDBRANCH  32  35
ENDBRANCH  26  29
ENDBRANCH   5  25
TORSDOF 10
ENDMDL
MODEL 4
REMARK VINA RESULT:      -6.8      1.948      6.696
REMARK  Name = 
REMARK  14 active torsions:
REMARK  status: ('A' for Active; 'I' for Inactive)
REMARK    1  A    between atoms: C_1  and  C_2
REMARK    2  A    between atoms: C_2  and  N_3
REMARK    3  A    between atoms: C_4  and  C_6
REMARK    4  A    between atoms: C_9  and  C_10
REMARK    5  A    between atoms: C_12  and  C_13
REMARK    6  A    between atoms: C_13  and  C_14
REMARK    7  A    between atoms: C_13  and  C_15
REMARK    8  A    between atoms: C_16  and  O_17
REMARK    9  A    between atoms: C_19  and  O_20
REMARK   10  A    between atoms: C_21  and  N_22
REMARK   11  A    between atoms: C_23  and  C_25
REMARK   12  A    between atoms: C_28  and  C_29
REMARK   13  A    between atoms: C_29  and  N_30
REMARK   14  A    between atoms: N_30  and  C_31
REMARK                            x       y       z     vdW  Elec       q    Type
REMARK                         _______ _______ _______ _____ _____    ______ ____
ROOT
ATOM      1  C   UNL     1       0.944   9.018  21.322  0.00  0.00    +0.000 A 
ATOM      2  N   UNL     1       1.383   9.168  22.588  0.00  0.00    +0.000 NA
ATOM      3  O   UNL     1       0.754  10.306  23.074  0.00  0.00    +0.000 OA
ATOM      4  C   UNL     1      -0.087  10.824  22.126  0.00  0.00    +0.000 A 
ATOM      5  C   UNL     1      -0.018  10.015  21.009  0.00  0.00    +0.000 A 
ENDROOT
BRANCH   4   6
ATOM      6  C   UNL     1      -0.924  11.957  22.547  0.00  0.00    +0.000 A 
ATOM      7  C   UNL     1      -2.233  11.724  23.026  0.00  0.00    +0.000 A 
ATOM      8  C   UNL     1      -3.149  12.769  23.301  0.00  0.00    +0.000 A 
ATOM      9  C   UNL     1      -2.696  14.081  23.099  0.00  0.00    +0.000 A 
ATOM     10  C   UNL     1      -1.397  14.344  22.673  0.00  0.00    +0.000 A 
ATOM     11  C   UNL     1      -0.522  13.295  22.398  0.00  0.00    +0.000 A 
BRANCH   8  12
ATOM     12  C   UNL     1      -4.592  12.455  23.679  0.00  0.00    +0.000 C 
ATOM     13  C   UNL     1      -4.758  12.539  25.201  0.00  0.00    +0.000 C 
ATOM     14  C   UNL     1      -5.657  13.319  22.991  0.00  0.00    +0.000 C 
ENDBRANCH   8  12
BRANCH   9  15
ATOM     15  O   UNL     1      -3.467  15.197  23.265  0.00  0.00    +0.000 OA
ATOM     16  H   UNL     1      -3.775  15.265  24.179  0.00  0.00    +0.000 HD
ENDBRANCH   9  15
BRANCH  11  17
ATOM     17  O   UNL     1       0.734  13.617  21.946  0.00  0.00    +0.000 OA
ATOM     18  H   UNL     1       0.936  14.531  22.218  0.00  0.00    +0.000 HD
ENDBRANCH  11  17
ENDBRANCH   4   6
BRANCH   1  20
ATOM     19  N   UNL     1       1.654   6.759  20.997  0.00  0.00    +0.000 N 
ATOM     20  C   UNL     1       1.492   8.003  20.426  0.00  0.00    +0.000 C 
ATOM     21  O   UNL     1       1.809   8.246  19.260  0.00  0.00    +0.000 OA
ATOM     22  H   UNL     1       1.274   6.624  21.928  0.00  0.00    +0.000 HD
BRANCH  19  24
ATOM     23  C   UNL     1       1.261   4.408  20.408  0.00  0.00    +0.000 C 
ATOM     24  C   UNL     1       2.144   5.631  20.241  0.00  0.00    +0.000 C 
ENDBRANCH  19  24
ENDBRANCH   1  20
BRANCH   5  25
ATOM     25  N   UNL     1      -0.786  10.162  19.862  0.00  0.00    +0.000 N 
ATOM     26  C   UNL     1      -0.597  11.242  19.017  0.00  0.00    +0.000 C 
ATOM     27  O   UNL     1       0.208  12.149  19.219  0.00  0.00    +0.000 OA
ATOM     28  H   UNL     1      -1.080   9.288  19.432  0.00  0.00    +0.000 HD
BRANCH  26  29
ATOM     29  C   UNL     1      -1.407  11.126  17.724  0.00  0.00    +0.000 C 
ATOM     30  C   UNL     1      -1.374   9.704  17.159  0.00  0.00    +0.000 C 
ATOM     31  C   UNL     1      -2.141   9.620  15.838  0.00  0.00    +0.000 C 
ATOM     32  C   UNL     1      -3.595  10.114  15.967  0.00  0.00    +0.000 C 
ATOM     33  C   UNL     1      -3.644  11.508  16.616  0.00  0.00    +0.000 C 
ATOM     34  C   UNL     1      -2.861  11.566  17.927  0.00  0.00    +0.000 C 
BRANCH  32  35
ATOM     35  C   UNL     1      -4.315  10.147  14.602  0.00  0.00    +0.000 C 
BRANCH  35  36
ATOM     36  N   UNL     1      -3.356  10.227  13.498  0.00  0.00    +0.000 NA
ATOM     37  C   UNL     1      -3.948   9.781  12.244  0.00  0.00    +0.000 C 
ATOM     38  H   UNL     1      -2.545   9.646  13.714  0.00  0.00    +0.000 HD
ENDBRANCH  35  36
ENDBRANCH  32  35
ENDBRANCH  26  29
ENDBRANCH   5  25
TORSDOF 10
ENDMDL
MODEL 5
REMARK VINA RESULT:      -6.6      4.056      7.561
REMARK  Name = 
REMARK  14 active torsions:
REMARK  status: ('A' for Active; 'I' for Inactive)
REMARK    1  A    between atoms: C_1  and  C_2
REMARK    2  A    between atoms: C_2  and  N_3
REMARK    3  A    between atoms: C_4  and  C_6
REMARK    4  A    between atoms: C_9  and  C_10
REMARK    5  A    between atoms: C_12  and  C_13
REMARK    6  A    between atoms: C_13  and  C_14
REMARK    7  A    between atoms: C_13  and  C_15
REMARK    8  A    between atoms: C_16  and  O_17
REMARK    9  A    between atoms: C_19  and  O_20
REMARK   10  A    between atoms: C_21  and  N_22
REMARK   11  A    between atoms: C_23  and  C_25
REMARK   12  A    between atoms: C_28  and  C_29
REMARK   13  A    between atoms: C_29  and  N_30
REMARK   14  A    between atoms: N_30  and  C_31
REMARK                            x       y       z     vdW  Elec       q    Type
REMARK                         _______ _______ _______ _____ _____    ______ ____
ROOT
ATOM      1  C   UNL     1       1.271  13.567  20.810  0.00  0.00    +0.000 A 
ATOM      2  N   UNL     1       1.539  14.087  22.026  0.00  0.00    +0.000 NA
ATOM      3  O   UNL     1       0.321  14.150  22.686  0.00  0.00    +0.000 OA
ATOM      4  C   UNL     1      -0.674  13.642  21.896  0.00  0.00    +0.000 A 
ATOM      5  C   UNL     1      -0.105  13.230  20.707  0.00  0.00    +0.000 A 
ENDROOT
BRANCH   4   6
ATOM      6  C   UNL     1      -2.002  13.521  22.517  0.00  0.00    +0.000 A 
ATOM      7  C   UNL     1      -2.873  14.635  22.536  0.00  0.00    +0.000 A 
ATOM      8  C   UNL     1      -4.096  14.642  23.249  0.00  0.00    +0.000 A 
ATOM      9  C   UNL     1      -4.438  13.469  23.937  0.00  0.00    +0.000 A 
ATOM     10  C   UNL     1      -3.624  12.340  23.899  0.00  0.00    +0.000 A 
ATOM     11  C   UNL     1      -2.419  12.367  23.199  0.00  0.00    +0.000 A 
BRANCH   8  12
ATOM     12  C   UNL     1      -4.926  15.917  23.352  0.00  0.00    +0.000 C 
ATOM     13  C   UNL     1      -6.366  15.633  22.909  0.00  0.00    +0.000 C 
ATOM     14  C   UNL     1      -4.927  16.594  24.728  0.00  0.00    +0.000 C 
ENDBRANCH   8  12
BRANCH   9  15
ATOM     15  O   UNL     1      -5.553  13.328  24.715  0.00  0.00    +0.000 OA
ATOM     16  H   UNL     1      -6.098  12.593  24.399  0.00  0.00    +0.000 HD
ENDBRANCH   9  15
BRANCH  11  17
ATOM     17  O   UNL     1      -1.642  11.235  23.228  0.00  0.00    +0.000 OA
ATOM     18  H   UNL     1      -0.716  11.490  23.060  0.00  0.00    +0.000 HD
ENDBRANCH  11  17
ENDBRANCH   4   6
BRANCH   1  20
ATOM     19  N   UNL     1       3.155  14.543  19.709  0.00  0.00    +0.000 N 
ATOM     20  C   UNL     1       2.287  13.474  19.765  0.00  0.00    +0.000 C 
ATOM     21  O   UNL     1       2.347  12.526  18.978  0.00  0.00    +0.000 OA
ATOM     22  H   UNL     1       3.096  15.226  20.457  0.00  0.00    +0.000 HD
BRANCH  19  24
ATOM     23  C   UNL     1       3.897  15.419  17.538  0.00  0.00    +0.000 C 
ATOM     24  C   UNL     1       4.244  14.592  18.763  0.00  0.00    +0.000 C 
ENDBRANCH  19  24
ENDBRANCH   1  20
BRANCH   5  25
ATOM     25  N   UNL     1      -0.774  12.584  19.677  0.00  0.00    +0.000 N 
ATOM     26  C   UNL     1      -1.029  11.224  19.742  0.00  0.00    +0.000 C 
ATOM     27  O   UNL     1      -0.668  10.494  20.661  0.00  0.00    +0.000 OA
ATOM     28  H   UNL     1      -1.457  13.157  19.188  0.00  0.00    +0.000 HD
BRANCH  26  29
ATOM     29  C   UNL     1      -1.931  10.741  18.604  0.00  0.00    +0.000 C 
ATOM     30  C   UNL     1      -2.713  11.894  17.970  0.00  0.00    +0.000 C 
ATOM     31  C   UNL     1      -3.650  11.384  16.874  0.00  0.00    +0.000 C 
ATOM     32  C   UNL     1      -2.908  10.578  15.791  0.00  0.00    +0.000 C 
ATOM     33  C   UNL     1      -2.049   9.470  16.425  0.00  0.00    +0.000 C 
ATOM     34  C   UNL     1      -1.131  10.005  17.523  0.00  0.00    +0.000 C 
BRANCH  32  35
ATOM     35  C   UNL     1      -3.883   9.960  14.764  0.00  0.00    +0.000 C 
BRANCH  35  36
ATOM     36  N   UNL     1      -3.539  10.360  13.398  0.00  0.00    +0.000 NA
ATOM     37  C   UNL     1      -4.388   9.697  12.419  0.00  0.00    +0.000 C 
ATOM     38  H   UNL     1      -2.563  10.123  13.214  0.00  0.00    +0.000 HD
ENDBRANCH  35  36
ENDBRANCH  32  35
ENDBRANCH  26  29
ENDBRANCH   5  25
TORSDOF 10
ENDMDL
MODEL 6
REMARK VINA RESULT:      -6.6      3.126      7.991
REMARK  Name = 
REMARK  14 active torsions:
REMARK  status: ('A' for Active; 'I' for Inactive)
REMARK    1  A    between atoms: C_1  and  C_2
REMARK    2  A    between atoms: C_2  and  N_3
REMARK    3  A    between atoms: C_4  and  C_6
REMARK    4  A    between atoms: C_9  and  C_10
REMARK    5  A    between atoms: C_12  and  C_13
REMARK    6  A    between atoms: C_13  and  C_14
REMARK    7  A    between atoms: C_13  and  C_15
REMARK    8  A    between atoms: C_16  and  O_17
REMARK    9  A    between atoms: C_19  and  O_20
REMARK   10  A    between atoms: C_21  and  N_22
REMARK   11  A    between atoms: C_23  and  C_25
REMARK   12  A    between atoms: C_28  and  C_29
REMARK   13  A    between atoms: C_29  and  N_30
REMARK   14  A    between atoms: N_30  and  C_31
REMARK                            x       y       z     vdW  Elec       q    Type
REMARK                         _______ _______ _______ _____ _____    ______ ____
ROOT
ATOM      1  C   UNL     1      -0.133  14.039  21.324  0.00  0.00    +0.000 A 
ATOM      2  N   UNL     1      -0.880  15.131  21.587  0.00  0.00    +0.000 NA
ATOM      3  O   UNL     1      -2.191  14.766  21.320  0.00  0.00    +0.000 OA
ATOM      4  C   UNL     1      -2.249  13.455  20.932  0.00  0.00    +0.000 A 
ATOM      5  C   UNL     1      -0.965  12.948  20.953  0.00  0.00    +0.000 A 
ENDROOT
BRANCH   4   6
ATOM      6  C   UNL     1      -3.594  12.890  20.745  0.00  0.00    +0.000 A 
ATOM      7  C   UNL     1      -3.992  12.431  19.468  0.00  0.00    +0.000 A 
ATOM      8  C   UNL     1      -5.315  12.022  19.176  0.00  0.00    +0.000 A 
ATOM      9  C   UNL     1      -6.241  12.065  20.229  0.00  0.00    +0.000 A 
ATOM     10  C   UNL     1      -5.868  12.468  21.508  0.00  0.00    +0.000 A 
ATOM     11  C   UNL     1      -4.561  12.877  21.763  0.00  0.00    +0.000 A 
BRANCH   8  12
ATOM     12  C   UNL     1      -5.722  11.672  17.748  0.00  0.00    +0.000 C 
ATOM     13  C   UNL     1      -6.440  12.866  17.108  0.00  0.00    +0.000 C 
ATOM     14  C   UNL     1      -4.583  11.199  16.837  0.00  0.00    +0.000 C 
ENDBRANCH   8  12
BRANCH   9  15
ATOM     15  O   UNL     1      -7.566  11.757  20.104  0.00  0.00    +0.000 OA
ATOM     16  H   UNL     1      -8.116  12.462  20.472  0.00  0.00    +0.000 HD
ENDBRANCH   9  15
BRANCH  11  17
ATOM     17  O   UNL     1      -4.263  13.297  23.036  0.00  0.00    +0.000 OA
ATOM     18  H   UNL     1      -4.438  14.255  23.095  0.00  0.00    +0.000 HD
ENDBRANCH  11  17
ENDBRANCH   4   6
BRANCH   1  20
ATOM     19  N   UNL     1       1.875  15.335  21.310  0.00  0.00    +0.000 N 
ATOM     20  C   UNL     1       1.326  14.071  21.351  0.00  0.00    +0.000 C 
ATOM     21  O   UNL     1       2.014  13.048  21.382  0.00  0.00    +0.000 OA
ATOM     22  H   UNL     1       1.236  16.120  21.389  0.00  0.00    +0.000 HD
BRANCH  19  24
ATOM     23  C   UNL     1       3.776  15.808  22.791  0.00  0.00    +0.000 C 
ATOM     24  C   UNL     1       3.302  15.549  21.372  0.00  0.00    +0.000 C 
ENDBRANCH  19  24
ENDBRANCH   1  20
BRANCH   5  25
ATOM     25  N   UNL     1      -0.617  11.628  20.702  0.00  0.00    +0.000 N 
ATOM     26  C   UNL     1      -0.244  11.224  19.431  0.00  0.00    +0.000 C 
ATOM     27  O   UNL     1      -0.224  11.960  18.447  0.00  0.00    +0.000 OA
ATOM     28  H   UNL     1      -0.181  11.147  21.484  0.00  0.00    +0.000 HD
BRANCH  26  29
ATOM     29  C   UNL     1       0.275   9.785  19.401  0.00  0.00    +0.000 C 
ATOM     30  C   UNL     1       1.376   9.599  18.354  0.00  0.00    +0.000 C 
ATOM     31  C   UNL     1       1.841   8.144  18.299  0.00  0.00    +0.000 C 
ATOM     32  C   UNL     1       2.311   7.622  19.670  0.00  0.00    +0.000 C 
ATOM     33  C   UNL     1       1.246   7.884  20.750  0.00  0.00    +0.000 C 
ATOM     34  C   UNL     1       0.791   9.342  20.774  0.00  0.00    +0.000 C 
BRANCH  32  35
ATOM     35  C   UNL     1       2.653   6.117  19.628  0.00  0.00    +0.000 C 
BRANCH  35  36
ATOM     36  N   UNL     1       2.466   5.493  20.939  0.00  0.00    +0.000 NA
ATOM     37  C   UNL     1       1.939   4.141  20.816  0.00  0.00    +0.000 C 
ATOM     38  H   UNL     1       1.821   6.058  21.492  0.00  0.00    +0.000 HD
ENDBRANCH  35  36
ENDBRANCH  32  35
ENDBRANCH  26  29
ENDBRANCH   5  25
TORSDOF 10
ENDMDL
MODEL 7
REMARK VINA RESULT:      -6.5      3.565      5.464
REMARK  Name = 
REMARK  14 active torsions:
REMARK  status: ('A' for Active; 'I' for Inactive)
REMARK    1  A    between atoms: C_1  and  C_2
REMARK    2  A    between atoms: C_2  and  N_3
REMARK    3  A    between atoms: C_4  and  C_6
REMARK    4  A    between atoms: C_9  and  C_10
REMARK    5  A    between atoms: C_12  and  C_13
REMARK    6  A    between atoms: C_13  and  C_14
REMARK    7  A    between atoms: C_13  and  C_15
REMARK    8  A    between atoms: C_16  and  O_17
REMARK    9  A    between atoms: C_19  and  O_20
REMARK   10  A    between atoms: C_21  and  N_22
REMARK   11  A    between atoms: C_23  and  C_25
REMARK   12  A    between atoms: C_28  and  C_29
REMARK   13  A    between atoms: C_29  and  N_30
REMARK   14  A    between atoms: N_30  and  C_31
REMARK                            x       y       z     vdW  Elec       q    Type
REMARK                         _______ _______ _______ _____ _____    ______ ____
ROOT
ATOM      1  C   UNL     1      -0.382  10.561  22.135  0.00  0.00    +0.000 A 
ATOM      2  N   UNL     1      -0.758   9.299  22.429  0.00  0.00    +0.000 NA
ATOM      3  O   UNL     1      -0.151   8.493  21.477  0.00  0.00    +0.000 OA
ATOM      4  C   UNL     1       0.616   9.250  20.634  0.00  0.00    +0.000 A 
ATOM      5  C   UNL     1       0.521  10.567  21.039  0.00  0.00    +0.000 A 
ENDROOT
BRANCH   4   6
ATOM      6  C   UNL     1       1.428   8.513  19.653  0.00  0.00    +0.000 A 
ATOM      7  C   UNL     1       2.068   7.311  20.032  0.00  0.00    +0.000 A 
ATOM      8  C   UNL     1       2.986   6.632  19.196  0.00  0.00    +0.000 A 
ATOM      9  C   UNL     1       3.232   7.193  17.934  0.00  0.00    +0.000 A 
ATOM     10  C   UNL     1       2.582   8.350  17.515  0.00  0.00    +0.000 A 
ATOM     11  C   UNL     1       1.693   9.004  18.365  0.00  0.00    +0.000 A 
BRANCH   8  12
ATOM     12  C   UNL     1       3.753   5.418  19.711  0.00  0.00    +0.000 C 
ATOM     13  C   UNL     1       3.067   4.133  19.233  0.00  0.00    +0.000 C 
ATOM     14  C   UNL     1       5.244   5.379  19.350  0.00  0.00    +0.000 C 
ENDBRANCH   8  12
BRANCH   9  15
ATOM     15  O   UNL     1       4.128   6.695  17.030  0.00  0.00    +0.000 OA
ATOM     16  H   UNL     1       4.227   5.739  17.140  0.00  0.00    +0.000 HD
ENDBRANCH   9  15
BRANCH  11  17
ATOM     17  O   UNL     1       1.110  10.161  17.907  0.00  0.00    +0.000 OA
ATOM     18  H   UNL     1       0.142  10.050  17.932  0.00  0.00    +0.000 HD
ENDBRANCH  11  17
ENDBRANCH   4   6
BRANCH   1  20
ATOM     19  N   UNL     1      -2.261  11.595  23.191  0.00  0.00    +0.000 N 
ATOM     20  C   UNL     1      -0.935  11.718  22.834  0.00  0.00    +0.000 C 
ATOM     21  O   UNL     1      -0.276  12.734  23.063  0.00  0.00    +0.000 OA
ATOM     22  H   UNL     1      -2.695  10.688  23.055  0.00  0.00    +0.000 HD
BRANCH  19  24
ATOM     23  C   UNL     1      -3.609  13.639  23.003  0.00  0.00    +0.000 C 
ATOM     24  C   UNL     1      -2.951  12.628  23.926  0.00  0.00    +0.000 C 
ENDBRANCH  19  24
ENDBRANCH   1  20
BRANCH   5  25
ATOM     25  N   UNL     1       1.220  11.631  20.486  0.00  0.00    +0.000 N 
ATOM     26  C   UNL     1       0.602  12.503  19.607  0.00  0.00    +0.000 C 
ATOM     27  O   UNL     1      -0.562  12.395  19.225  0.00  0.00    +0.000 OA
ATOM     28  H   UNL     1       1.948  12.018  21.082  0.00  0.00    +0.000 HD
BRANCH  26  29
ATOM     29  C   UNL     1       1.481  13.705  19.255  0.00  0.00    +0.000 C 
ATOM     30  C   UNL     1       2.059  14.371  20.506  0.00  0.00    +0.000 C 
ATOM     31  C   UNL     1       2.888  15.603  20.139  0.00  0.00    +0.000 C 
ATOM     32  C   UNL     1       4.011  15.281  19.134  0.00  0.00    +0.000 C 
ATOM     33  C   UNL     1       3.453  14.531  17.911  0.00  0.00    +0.000 C 
ATOM     34  C   UNL     1       2.620  13.313  18.307  0.00  0.00    +0.000 C 
BRANCH  32  35
ATOM     35  C   UNL     1       4.754  16.553  18.673  0.00  0.00    +0.000 C 
BRANCH  35  36
ATOM     36  N   UNL     1       4.648  17.620  19.671  0.00  0.00    +0.000 NA
ATOM     37  C   UNL     1       5.939  17.909  20.281  0.00  0.00    +0.000 C 
ATOM     38  H   UNL     1       3.988  17.340  20.395  0.00  0.00    +0.000 HD
ENDBRANCH  35  36
ENDBRANCH  32  35
ENDBRANCH  26  29
ENDBRANCH   5  25
TORSDOF 10
ENDMDL
MODEL 8
REMARK VINA RESULT:      -6.5      3.641      8.117
REMARK  Name = 
REMARK  14 active torsions:
REMARK  status: ('A' for Active; 'I' for Inactive)
REMARK    1  A    between atoms: C_1  and  C_2
REMARK    2  A    between atoms: C_2  and  N_3
REMARK    3  A    between atoms: C_4  and  C_6
REMARK    4  A    between atoms: C_9  and  C_10
REMARK    5  A    between atoms: C_12  and  C_13
REMARK    6  A    between atoms: C_13  and  C_14
REMARK    7  A    between atoms: C_13  and  C_15
REMARK    8  A    between atoms: C_16  and  O_17
REMARK    9  A    between atoms: C_19  and  O_20
REMARK   10  A    between atoms: C_21  and  N_22
REMARK   11  A    between atoms: C_23  and  C_25
REMARK   12  A    between atoms: C_28  and  C_29
REMARK   13  A    between atoms: C_29  and  N_30
REMARK   14  A    between atoms: N_30  and  C_31
REMARK                            x       y       z     vdW  Elec       q    Type
REMARK                         _______ _______ _______ _____ _____    ______ ____
ROOT
ATOM      1  C   UNL     1       1.043  14.200  19.514  0.00  0.00    +0.000 A 
ATOM      2  N   UNL     1       0.500  15.366  19.920  0.00  0.00    +0.000 NA
ATOM      3  O   UNL     1      -0.615  15.023  20.671  0.00  0.00    +0.000 OA
ATOM      4  C   UNL     1      -0.732  13.662  20.751  0.00  0.00    +0.000 A 
ATOM      5  C   UNL     1       0.322  13.103  20.056  0.00  0.00    +0.000 A 
ENDROOT
BRANCH   4   6
ATOM      6  C   UNL     1      -1.795  13.150  21.629  0.00  0.00    +0.000 A 
ATOM      7  C   UNL     1      -3.104  13.675  21.527  0.00  0.00    +0.000 A 
ATOM      8  C   UNL     1      -4.137  13.347  22.438  0.00  0.00    +0.000 A 
ATOM      9  C   UNL     1      -3.820  12.441  23.460  0.00  0.00    +0.000 A 
ATOM     10  C   UNL     1      -2.553  11.872  23.559  0.00  0.00    +0.000 A 
ATOM     11  C   UNL     1      -1.552  12.224  22.656  0.00  0.00    +0.000 A 
BRANCH   8  12
ATOM     12  C   UNL     1      -5.488  14.051  22.364  0.00  0.00    +0.000 C 
ATOM     13  C   UNL     1      -6.585  13.031  22.033  0.00  0.00    +0.000 C 
ATOM     14  C   UNL     1      -5.881  14.854  23.610  0.00  0.00    +0.000 C 
ENDBRANCH   8  12
BRANCH   9  15
ATOM     15  O   UNL     1      -4.682  12.061  24.449  0.00  0.00    +0.000 OA
ATOM     16  H   UNL     1      -5.447  11.601  24.077  0.00  0.00    +0.000 HD
ENDBRANCH   9  15
BRANCH  11  17
ATOM     17  O   UNL     1      -0.313  11.656  22.827  0.00  0.00    +0.000 OA
ATOM     18  H   UNL     1      -0.416  10.687  22.837  0.00  0.00    +0.000 HD
ENDBRANCH  11  17
ENDBRANCH   4   6
BRANCH   1  20
ATOM     19  N   UNL     1       2.789  15.359  18.364  0.00  0.00    +0.000 N 
ATOM     20  C   UNL     1       2.162  14.150  18.578  0.00  0.00    +0.000 C 
ATOM     21  O   UNL     1       2.503  13.113  18.004  0.00  0.00    +0.000 OA
ATOM     22  H   UNL     1       2.509  16.136  18.953  0.00  0.00    +0.000 HD
BRANCH  19  24
ATOM     23  C   UNL     1       5.240  15.248  18.250  0.00  0.00    +0.000 C 
ATOM     24  C   UNL     1       3.940  15.478  17.500  0.00  0.00    +0.000 C 
ENDBRANCH  19  24
ENDBRANCH   1  20
BRANCH   5  25
ATOM     25  N   UNL     1       0.601  11.745  19.974  0.00  0.00    +0.000 N 
ATOM     26  C   UNL     1      -0.053  10.943  19.054  0.00  0.00    +0.000 C 
ATOM     27  O   UNL     1      -0.929  11.338  18.287  0.00  0.00    +0.000 OA
ATOM     28  H   UNL     1       1.559  11.493  20.205  0.00  0.00    +0.000 HD
BRANCH  26  29
ATOM     29  C   UNL     1       0.523   9.527  18.996  0.00  0.00    +0.000 C 
ATOM     30  C   UNL     1       1.609   9.398  17.925  0.00  0.00    +0.000 C 
ATOM     31  C   UNL     1       2.132   7.964  17.843  0.00  0.00    +0.000 C 
ATOM     32  C   UNL     1       2.649   7.445  19.199  0.00  0.00    +0.000 C 
ATOM     33  C   UNL     1       1.596   7.650  20.302  0.00  0.00    +0.000 C 
ATOM     34  C   UNL     1       1.083   9.089  20.354  0.00  0.00    +0.000 C 
BRANCH  32  35
ATOM     35  C   UNL     1       3.051   5.956  19.130  0.00  0.00    +0.000 C 
BRANCH  35  36
ATOM     36  N   UNL     1       2.331   5.261  18.061  0.00  0.00    +0.000 NA
ATOM     37  C   UNL     1       2.360   3.817  18.250  0.00  0.00    +0.000 C 
ATOM     38  H   UNL     1       2.756   5.492  17.163  0.00  0.00    +0.000 HD
ENDBRANCH  35  36
ENDBRANCH  32  35
ENDBRANCH  26  29
ENDBRANCH   5  25
TORSDOF 10
ENDMDL
MODEL 9
REMARK VINA RESULT:      -6.4      3.319      7.983
REMARK  Name = 
REMARK  14 active torsions:
REMARK  status: ('A' for Active; 'I' for Inactive)
REMARK    1  A    between atoms: C_1  and  C_2
REMARK    2  A    between atoms: C_2  and  N_3
REMARK    3  A    between atoms: C_4  and  C_6
REMARK    4  A    between atoms: C_9  and  C_10
REMARK    5  A    between atoms: C_12  and  C_13
REMARK    6  A    between atoms: C_13  and  C_14
REMARK    7  A    between atoms: C_13  and  C_15
REMARK    8  A    between atoms: C_16  and  O_17
REMARK    9  A    between atoms: C_19  and  O_20
REMARK   10  A    between atoms: C_21  and  N_22
REMARK   11  A    between atoms: C_23  and  C_25
REMARK   12  A    between atoms: C_28  and  C_29
REMARK   13  A    between atoms: C_29  and  N_30
REMARK   14  A    between atoms: N_30  and  C_31
REMARK                            x       y       z     vdW  Elec       q    Type
REMARK                         _______ _______ _______ _____ _____    ______ ____
ROOT
ATOM      1  C   UNL     1       0.258  14.243  21.269  0.00  0.00    +0.000 A 
ATOM      2  N   UNL     1      -0.401  15.348  21.674  0.00  0.00    +0.000 NA
ATOM      3  O   UNL     1      -1.749  15.023  21.627  0.00  0.00    +0.000 OA
ATOM      4  C   UNL     1      -1.910  13.723  21.231  0.00  0.00    +0.000 A 
ATOM      5  C   UNL     1      -0.655  13.183  21.026  0.00  0.00    +0.000 A 
ENDROOT
BRANCH   4   6
ATOM      6  C   UNL     1      -3.282  13.197  21.264  0.00  0.00    +0.000 A 
ATOM      7  C   UNL     1      -3.853  12.647  20.093  0.00  0.00    +0.000 A 
ATOM      8  C   UNL     1      -5.214  12.267  20.006  0.00  0.00    +0.000 A 
ATOM      9  C   UNL     1      -5.996  12.434  21.158  0.00  0.00    +0.000 A 
ATOM     10  C   UNL     1      -5.451  12.929  22.340  0.00  0.00    +0.000 A 
ATOM     11  C   UNL     1      -4.111  13.308  22.392  0.00  0.00    +0.000 A 
BRANCH   8  12
ATOM     12  C   UNL     1      -5.809  11.814  18.677  0.00  0.00    +0.000 C 
ATOM     13  C   UNL     1      -4.741  11.889  17.580  0.00  0.00    +0.000 C 
ATOM     14  C   UNL     1      -6.452  10.421  18.684  0.00  0.00    +0.000 C 
ENDBRANCH   8  12
BRANCH   9  15
ATOM     15  O   UNL     1      -7.334  12.168  21.227  0.00  0.00    +0.000 OA
ATOM     16  H   UNL     1      -7.643  12.209  22.143  0.00  0.00    +0.000 HD
ENDBRANCH   9  15
BRANCH  11  17
ATOM     17  O   UNL     1      -3.642  13.822  23.576  0.00  0.00    +0.000 OA
ATOM     18  H   UNL     1      -4.386  13.884  24.203  0.00  0.00    +0.000 HD
ENDBRANCH  11  17
ENDBRANCH   4   6
BRANCH   1  20
ATOM     19  N   UNL     1       2.083  14.231  19.726  0.00  0.00    +0.000 N 
ATOM     20  C   UNL     1       1.701  14.238  21.050  0.00  0.00    +0.000 C 
ATOM     21  O   UNL     1       2.515  14.214  21.977  0.00  0.00    +0.000 OA
ATOM     22  H   UNL     1       1.352  14.355  19.033  0.00  0.00    +0.000 HD
BRANCH  19  24
ATOM     23  C   UNL     1       3.756  15.397  18.357  0.00  0.00    +0.000 C 
ATOM     24  C   UNL     1       3.472  14.268  19.332  0.00  0.00    +0.000 C 
ENDBRANCH  19  24
ENDBRANCH   1  20
BRANCH   5  25
ATOM     25  N   UNL     1      -0.394  11.860  20.696  0.00  0.00    +0.000 N 
ATOM     26  C   UNL     1      -0.142  11.494  19.385  0.00  0.00    +0.000 C 
ATOM     27  O   UNL     1      -0.164  12.270  18.432  0.00  0.00    +0.000 OA
ATOM     28  H   UNL     1       0.080  11.327  21.421  0.00  0.00    +0.000 HD
BRANCH  26  29
ATOM     29  C   UNL     1       0.302  10.035  19.257  0.00  0.00    +0.000 C 
ATOM     30  C   UNL     1       1.392   9.864  18.196  0.00  0.00    +0.000 C 
ATOM     31  C   UNL     1       1.782   8.393  18.043  0.00  0.00    +0.000 C 
ATOM     32  C   UNL     1       2.224   7.758  19.375  0.00  0.00    +0.000 C 
ATOM     33  C   UNL     1       1.174   8.001  20.473  0.00  0.00    +0.000 C 
ATOM     34  C   UNL     1       0.794   9.476  20.596  0.00  0.00    +0.000 C 
BRANCH  32  35
ATOM     35  C   UNL     1       2.488   6.243  19.231  0.00  0.00    +0.000 C 
BRANCH  35  36
ATOM     36  N   UNL     1       2.977   5.668  20.486  0.00  0.00    +0.000 NA
ATOM     37  C   UNL     1       2.220   4.481  20.859  0.00  0.00    +0.000 C 
ATOM     38  H   UNL     1       2.900   6.364  21.228  0.00  0.00    +0.000 HD
ENDBRANCH  35  36
ENDBRANCH  32  35
ENDBRANCH  26  29
ENDBRANCH   5  25
TORSDOF 10
ENDMDL
