MODEL 1
REMARK VINA RESULT:      -7.7      0.000      0.000
REMARK  Name = 
REMARK  4 active torsions:
REMARK  status: ('A' for Active; 'I' for Inactive)
REMARK    1  A    between atoms: C_2  and  C_3
REMARK    2  A    between atoms: N_7  and  C_8
REMARK    3  A    between atoms: C_21  and  O_22
REMARK    4  A    between atoms: O_22  and  C_23
REMARK                            x       y       z     vdW  Elec       q    Type
REMARK                         _______ _______ _______ _____ _____    ______ ____
ROOT
ATOM      1  C   UNL     1       5.335   3.788  12.922  0.00  0.00    +0.000 A 
ATOM      2  C   UNL     1       4.758   3.919  14.189  0.00  0.00    +0.000 A 
ATOM      3  C   UNL     1       5.560   4.189  15.319  0.00  0.00    +0.000 A 
ATOM      4  C   UNL     1       5.095   4.277  16.642  0.00  0.00    +0.000 A 
ATOM      5  N   UNL     1       3.718   4.092  16.935  0.00  0.00    +0.000 N 
ATOM      6  N   UNL     1       5.928   4.497  17.677  0.00  0.00    +0.000 NA
ATOM      7  C   UNL     1       7.219   4.668  17.387  0.00  0.00    +0.000 A 
ATOM      8  N   UNL     1       7.761   4.644  16.168  0.00  0.00    +0.000 NA
ATOM      9  C   UNL     1       6.934   4.400  15.147  0.00  0.00    +0.000 A 
ATOM     10  C   UNL     1       7.479   4.331  13.871  0.00  0.00    +0.000 A 
ATOM     11  C   UNL     1       6.709   3.996  12.752  0.00  0.00    +0.000 A 
ATOM     12  H   UNL     1       3.478   3.111  16.824  0.00  0.00    +0.000 HD
ENDROOT
BRANCH   5  13
ATOM     13  C   UNL     1       3.047   4.704  18.018  0.00  0.00    +0.000 A 
ATOM     14  C   UNL     1       3.001   6.101  18.123  0.00  0.00    +0.000 A 
ATOM     15  C   UNL     1       2.412   6.708  19.237  0.00  0.00    +0.000 A 
ATOM     16  C   UNL     1       1.910   5.921  20.268  0.00  0.00    +0.000 A 
ATOM     17  F   UNL     1       1.388   6.524  21.344  0.00  0.00    +0.000 F 
ATOM     18  C   UNL     1       1.977   4.533  20.195  0.00  0.00    +0.000 A 
ATOM     19 CL   UNL     1       1.391   3.549  21.479  0.00  0.00    +0.000 Cl
ATOM     20  C   UNL     1       2.537   3.928  19.073  0.00  0.00    +0.000 A 
ENDBRANCH   5  13
BRANCH   1  22
ATOM     21  C   UNL     1       3.741   3.067  10.956  0.00  0.00    +0.000 C 
ATOM     22  C   UNL     1       4.491   3.371  11.838  0.00  0.00    +0.000 C 
ENDBRANCH   1  22
BRANCH  11  23
ATOM     23  O   UNL     1       7.207   3.821  11.487  0.00  0.00    +0.000 OA
ATOM     24  C   UNL     1       7.575   2.503  11.097  0.00  0.00    +0.000 C 
ENDBRANCH  11  23
TORSDOF 3
ENDMDL
MODEL 2
REMARK VINA RESULT:      -7.6      1.459      2.022
REMARK  Name = 
REMARK  4 active torsions:
REMARK  status: ('A' for Active; 'I' for Inactive)
REMARK    1  A    between atoms: C_2  and  C_3
REMARK    2  A    between atoms: N_7  and  C_8
REMARK    3  A    between atoms: C_21  and  O_22
REMARK    4  A    between atoms: O_22  and  C_23
REMARK                            x       y       z     vdW  Elec       q    Type
REMARK                         _______ _______ _______ _____ _____    ______ ____
ROOT
ATOM      1  C   UNL     1       5.894   3.911  13.429  0.00  0.00    +0.000 A 
ATOM      2  C   UNL     1       5.327   3.626  14.676  0.00  0.00    +0.000 A 
ATOM      3  C   UNL     1       5.948   4.066  15.864  0.00  0.00    +0.000 A 
ATOM      4  C   UNL     1       5.500   3.781  17.166  0.00  0.00    +0.000 A 
ATOM      5  N   UNL     1       4.336   2.996  17.372  0.00  0.00    +0.000 N 
ATOM      6  N   UNL     1       6.169   4.203  18.256  0.00  0.00    +0.000 NA
ATOM      7  C   UNL     1       7.262   4.939  18.048  0.00  0.00    +0.000 A 
ATOM      8  N   UNL     1       7.752   5.300  16.861  0.00  0.00    +0.000 NA
ATOM      9  C   UNL     1       7.099   4.858  15.782  0.00  0.00    +0.000 A 
ATOM     10  C   UNL     1       7.611   5.187  14.532  0.00  0.00    +0.000 A 
ATOM     11  C   UNL     1       7.047   4.701  13.348  0.00  0.00    +0.000 A 
ATOM     12  H   UNL     1       4.536   2.028  17.137  0.00  0.00    +0.000 HD
ENDROOT
BRANCH   5  13
ATOM     13  C   UNL     1       3.477   3.124  18.487  0.00  0.00    +0.000 A 
ATOM     14  C   UNL     1       2.860   1.992  19.038  0.00  0.00    +0.000 A 
ATOM     15  C   UNL     1       1.944   2.125  20.086  0.00  0.00    +0.000 A 
ATOM     16  C   UNL     1       1.610   3.391  20.555  0.00  0.00    +0.000 A 
ATOM     17  F   UNL     1       0.699   3.497  21.532  0.00  0.00    +0.000 F 
ATOM     18  C   UNL     1       2.188   4.527  19.999  0.00  0.00    +0.000 A 
ATOM     19 CL   UNL     1       1.756   6.100  20.546  0.00  0.00    +0.000 Cl
ATOM     20  C   UNL     1       3.122   4.394  18.973  0.00  0.00    +0.000 A 
ENDBRANCH   5  13
BRANCH   1  22
ATOM     21  C   UNL     1       4.743   2.820  11.329  0.00  0.00    +0.000 C 
ATOM     22  C   UNL     1       5.299   3.316  12.267  0.00  0.00    +0.000 C 
ENDBRANCH   1  22
BRANCH  11  23
ATOM     23  O   UNL     1       7.561   4.914  12.095  0.00  0.00    +0.000 OA
ATOM     24  C   UNL     1       8.101   6.199  11.811  0.00  0.00    +0.000 C 
ENDBRANCH  11  23
TORSDOF 3
ENDMDL
MODEL 3
REMARK VINA RESULT:      -7.5      6.215      9.164
REMARK  Name = 
REMARK  4 active torsions:
REMARK  status: ('A' for Active; 'I' for Inactive)
REMARK    1  A    between atoms: C_2  and  C_3
REMARK    2  A    between atoms: N_7  and  C_8
REMARK    3  A    between atoms: C_21  and  O_22
REMARK    4  A    between atoms: O_22  and  C_23
REMARK                            x       y       z     vdW  Elec       q    Type
REMARK                         _______ _______ _______ _____ _____    ______ ____
ROOT
ATOM      1  C   UNL     1      -2.418  10.472  16.809  0.00  0.00    +0.000 A 
ATOM      2  C   UNL     1      -1.198   9.861  17.118  0.00  0.00    +0.000 A 
ATOM      3  C   UNL     1      -0.544  10.141  18.338  0.00  0.00    +0.000 A 
ATOM      4  C   UNL     1       0.710   9.635  18.720  0.00  0.00    +0.000 A 
ATOM      5  N   UNL     1       1.429   8.766  17.858  0.00  0.00    +0.000 N 
ATOM      6  N   UNL     1       1.291   9.978  19.885  0.00  0.00    +0.000 NA
ATOM      7  C   UNL     1       0.606  10.796  20.684  0.00  0.00    +0.000 A 
ATOM      8  N   UNL     1      -0.605  11.302  20.439  0.00  0.00    +0.000 NA
ATOM      9  C   UNL     1      -1.167  10.978  19.271  0.00  0.00    +0.000 A 
ATOM     10  C   UNL     1      -2.410  11.523  18.974  0.00  0.00    +0.000 A 
ATOM     11  C   UNL     1      -3.038  11.312  17.743  0.00  0.00    +0.000 A 
ATOM     12  H   UNL     1       1.787   9.294  17.068  0.00  0.00    +0.000 HD
ENDROOT
BRANCH   5  13
ATOM     13  C   UNL     1       2.326   7.767  18.302  0.00  0.00    +0.000 A 
ATOM     14  C   UNL     1       3.517   7.526  17.604  0.00  0.00    +0.000 A 
ATOM     15  C   UNL     1       4.365   6.484  17.990  0.00  0.00    +0.000 A 
ATOM     16  C   UNL     1       4.002   5.652  19.045  0.00  0.00    +0.000 A 
ATOM     17  F   UNL     1       4.810   4.634  19.371  0.00  0.00    +0.000 F 
ATOM     18  C   UNL     1       2.808   5.857  19.728  0.00  0.00    +0.000 A 
ATOM     19 CL   UNL     1       2.331   4.815  21.011  0.00  0.00    +0.000 Cl
ATOM     20  C   UNL     1       1.976   6.913  19.362  0.00  0.00    +0.000 A 
ENDBRANCH   5  13
BRANCH   1  22
ATOM     21  C   UNL     1      -3.356  10.107  14.378  0.00  0.00    +0.000 C 
ATOM     22  C   UNL     1      -2.962  10.263  15.498  0.00  0.00    +0.000 C 
ENDBRANCH   1  22
BRANCH  11  23
ATOM     23  O   UNL     1      -4.217  11.896  17.358  0.00  0.00    +0.000 OA
ATOM     24  C   UNL     1      -5.397  11.531  18.062  0.00  0.00    +0.000 C 
ENDBRANCH  11  23
TORSDOF 3
ENDMDL
MODEL 4
REMARK VINA RESULT:      -7.5      1.323      1.658
REMARK  Name = 
REMARK  4 active torsions:
REMARK  status: ('A' for Active; 'I' for Inactive)
REMARK    1  A    between atoms: C_2  and  C_3
REMARK    2  A    between atoms: N_7  and  C_8
REMARK    3  A    between atoms: C_21  and  O_22
REMARK    4  A    between atoms: O_22  and  C_23
REMARK                            x       y       z     vdW  Elec       q    Type
REMARK                         _______ _______ _______ _____ _____    ______ ____
ROOT
ATOM      1  C   UNL     1       5.309   3.885  13.064  0.00  0.00    +0.000 A 
ATOM      2  C   UNL     1       4.770   4.121  14.333  0.00  0.00    +0.000 A 
ATOM      3  C   UNL     1       5.614   4.375  15.435  0.00  0.00    +0.000 A 
ATOM      4  C   UNL     1       5.184   4.561  16.760  0.00  0.00    +0.000 A 
ATOM      5  N   UNL     1       3.803   4.505  17.083  0.00  0.00    +0.000 N 
ATOM      6  N   UNL     1       6.052   4.759  17.770  0.00  0.00    +0.000 NA
ATOM      7  C   UNL     1       7.347   4.809  17.452  0.00  0.00    +0.000 A 
ATOM      8  N   UNL     1       7.861   4.685  16.227  0.00  0.00    +0.000 NA
ATOM      9  C   UNL     1       6.997   4.463  15.232  0.00  0.00    +0.000 A 
ATOM     10  C   UNL     1       7.509   4.291  13.951  0.00  0.00    +0.000 A 
ATOM     11  C   UNL     1       6.692   3.971  12.863  0.00  0.00    +0.000 A 
ATOM     12  H   UNL     1       3.481   3.544  17.023  0.00  0.00    +0.000 HD
ENDROOT
BRANCH   5  13
ATOM     13  C   UNL     1       3.205   5.219  18.147  0.00  0.00    +0.000 A 
ATOM     14  C   UNL     1       2.759   4.541  19.290  0.00  0.00    +0.000 A 
ATOM     15  C   UNL     1       2.092   5.231  20.307  0.00  0.00    +0.000 A 
ATOM     16  C   UNL     1       1.827   6.589  20.162  0.00  0.00    +0.000 A 
ATOM     17  F   UNL     1       1.149   7.221  21.130  0.00  0.00    +0.000 F 
ATOM     18  C   UNL     1       2.233   7.270  19.019  0.00  0.00    +0.000 A 
ATOM     19 CL   UNL     1       1.882   8.942  18.812  0.00  0.00    +0.000 Cl
ATOM     20  C   UNL     1       2.924   6.590  18.019  0.00  0.00    +0.000 A 
ENDBRANCH   5  13
BRANCH   1  22
ATOM     21  C   UNL     1       3.686   3.216  11.104  0.00  0.00    +0.000 C 
ATOM     22  C   UNL     1       4.413   3.490  12.014  0.00  0.00    +0.000 C 
ENDBRANCH   1  22
BRANCH  11  23
ATOM     23  O   UNL     1       7.149   3.698  11.599  0.00  0.00    +0.000 OA
ATOM     24  C   UNL     1       7.432   2.341  11.277  0.00  0.00    +0.000 C 
ENDBRANCH  11  23
TORSDOF 3
ENDMDL
MODEL 5
REMARK VINA RESULT:      -7.2      1.539      1.746
REMARK  Name = 
REMARK  4 active torsions:
REMARK  status: ('A' for Active; 'I' for Inactive)
REMARK    1  A    between atoms: C_2  and  C_3
REMARK    2  A    between atoms: N_7  and  C_8
REMARK    3  A    between atoms: C_21  and  O_22
REMARK    4  A    between atoms: O_22  and  C_23
REMARK                            x       y       z     vdW  Elec       q    Type
REMARK                         _______ _______ _______ _____ _____    ______ ____
ROOT
ATOM      1  C   UNL     1       6.204   3.736  13.211  0.00  0.00    +0.000 A 
ATOM      2  C   UNL     1       5.553   3.539  14.433  0.00  0.00    +0.000 A 
ATOM      3  C   UNL     1       5.916   4.292  15.570  0.00  0.00    +0.000 A 
ATOM      4  C   UNL     1       5.374   4.132  16.857  0.00  0.00    +0.000 A 
ATOM      5  N   UNL     1       4.375   3.153  17.100  0.00  0.00    +0.000 N 
ATOM      6  N   UNL     1       5.799   4.862  17.905  0.00  0.00    +0.000 NA
ATOM      7  C   UNL     1       6.739   5.777  17.662  0.00  0.00    +0.000 A 
ATOM      8  N   UNL     1       7.293   6.040  16.477  0.00  0.00    +0.000 NA
ATOM      9  C   UNL     1       6.885   5.296  15.445  0.00  0.00    +0.000 A 
ATOM     10  C   UNL     1       7.475   5.522  14.206  0.00  0.00    +0.000 A 
ATOM     11  C   UNL     1       7.176   4.738  13.088  0.00  0.00    +0.000 A 
ATOM     12  H   UNL     1       4.794   2.228  17.067  0.00  0.00    +0.000 HD
ENDROOT
BRANCH   5  13
ATOM     13  C   UNL     1       3.373   3.268  18.090  0.00  0.00    +0.000 A 
ATOM     14  C   UNL     1       2.262   4.097  17.880  0.00  0.00    +0.000 A 
ATOM     15  C   UNL     1       1.314   4.280  18.890  0.00  0.00    +0.000 A 
ATOM     16  C   UNL     1       1.497   3.671  20.128  0.00  0.00    +0.000 A 
ATOM     17  F   UNL     1       0.597   3.894  21.096  0.00  0.00    +0.000 F 
ATOM     18  C   UNL     1       2.610   2.872  20.365  0.00  0.00    +0.000 A 
ATOM     19 CL   UNL     1       2.867   2.142  21.903  0.00  0.00    +0.000 Cl
ATOM     20  C   UNL     1       3.541   2.667  19.349  0.00  0.00    +0.000 A 
ENDBRANCH   5  13
BRANCH   1  22
ATOM     21  C   UNL     1       5.685   2.058  11.252  0.00  0.00    +0.000 C 
ATOM     22  C   UNL     1       5.895   2.844  12.131  0.00  0.00    +0.000 C 
ENDBRANCH   1  22
BRANCH  11  23
ATOM     23  O   UNL     1       7.791   4.852  11.868  0.00  0.00    +0.000 OA
ATOM     24  C   UNL     1       7.957   6.159  11.331  0.00  0.00    +0.000 C 
ENDBRANCH  11  23
TORSDOF 3
ENDMDL
MODEL 6
REMARK VINA RESULT:      -7.2      1.882      2.461
REMARK  Name = 
REMARK  4 active torsions:
REMARK  status: ('A' for Active; 'I' for Inactive)
REMARK    1  A    between atoms: C_2  and  C_3
REMARK    2  A    between atoms: N_7  and  C_8
REMARK    3  A    between atoms: C_21  and  O_22
REMARK    4  A    between atoms: O_22  and  C_23
REMARK                            x       y       z     vdW  Elec       q    Type
REMARK                         _______ _______ _______ _____ _____    ______ ____
ROOT
ATOM      1  C   UNL     1       6.115   4.106  14.072  0.00  0.00    +0.000 A 
ATOM      2  C   UNL     1       5.599   3.734  15.317  0.00  0.00    +0.000 A 
ATOM      3  C   UNL     1       6.123   4.285  16.506  0.00  0.00    +0.000 A 
ATOM      4  C   UNL     1       5.723   3.935  17.807  0.00  0.00    +0.000 A 
ATOM      5  N   UNL     1       4.714   2.958  18.012  0.00  0.00    +0.000 N 
ATOM      6  N   UNL     1       6.299   4.475  18.898  0.00  0.00    +0.000 NA
ATOM      7  C   UNL     1       7.247   5.391  18.691  0.00  0.00    +0.000 A 
ATOM      8  N   UNL     1       7.674   5.824  17.504  0.00  0.00    +0.000 NA
ATOM      9  C   UNL     1       7.118   5.268  16.424  0.00  0.00    +0.000 A 
ATOM     10  C   UNL     1       7.573   5.673  15.175  0.00  0.00    +0.000 A 
ATOM     11  C   UNL     1       7.112   5.087  13.992  0.00  0.00    +0.000 A 
ATOM     12  H   UNL     1       5.083   2.039  17.786  0.00  0.00    +0.000 HD
ENDROOT
BRANCH   5  13
ATOM     13  C   UNL     1       3.838   2.940  19.121  0.00  0.00    +0.000 A 
ATOM     14  C   UNL     1       4.188   2.244  20.287  0.00  0.00    +0.000 A 
ATOM     15  C   UNL     1       3.289   2.153  21.354  0.00  0.00    +0.000 A 
ATOM     16  C   UNL     1       2.022   2.717  21.240  0.00  0.00    +0.000 A 
ATOM     17  F   UNL     1       1.162   2.582  22.258  0.00  0.00    +0.000 F 
ATOM     18  C   UNL     1       1.646   3.383  20.078  0.00  0.00    +0.000 A 
ATOM     19 CL   UNL     1       0.071   4.055  19.910  0.00  0.00    +0.000 Cl
ATOM     20  C   UNL     1       2.553   3.499  19.026  0.00  0.00    +0.000 A 
ENDBRANCH   5  13
BRANCH   1  22
ATOM     21  C   UNL     1       5.202   2.873  11.935  0.00  0.00    +0.000 C 
ATOM     22  C   UNL     1       5.644   3.408  12.911  0.00  0.00    +0.000 C 
ENDBRANCH   1  22
BRANCH  11  23
ATOM     23  O   UNL     1       7.590   5.379  12.740  0.00  0.00    +0.000 OA
ATOM     24  C   UNL     1       8.811   6.103  12.650  0.00  0.00    +0.000 C 
ENDBRANCH  11  23
TORSDOF 3
ENDMDL
MODEL 7
REMARK VINA RESULT:      -7.1      4.350      7.690
REMARK  Name = 
REMARK  4 active torsions:
REMARK  status: ('A' for Active; 'I' for Inactive)
REMARK    1  A    between atoms: C_2  and  C_3
REMARK    2  A    between atoms: N_7  and  C_8
REMARK    3  A    between atoms: C_21  and  O_22
REMARK    4  A    between atoms: O_22  and  C_23
REMARK                            x       y       z     vdW  Elec       q    Type
REMARK                         _______ _______ _______ _____ _____    ______ ____
ROOT
ATOM      1  C   UNL     1       2.282   7.753  18.692  0.00  0.00    +0.000 A 
ATOM      2  C   UNL     1       3.222   7.192  17.822  0.00  0.00    +0.000 A 
ATOM      3  C   UNL     1       3.858   5.973  18.141  0.00  0.00    +0.000 A 
ATOM      4  C   UNL     1       4.860   5.355  17.372  0.00  0.00    +0.000 A 
ATOM      5  N   UNL     1       5.312   5.951  16.166  0.00  0.00    +0.000 N 
ATOM      6  N   UNL     1       5.451   4.209  17.762  0.00  0.00    +0.000 NA
ATOM      7  C   UNL     1       5.017   3.661  18.898  0.00  0.00    +0.000 A 
ATOM      8  N   UNL     1       4.048   4.139  19.681  0.00  0.00    +0.000 NA
ATOM      9  C   UNL     1       3.482   5.289  19.304  0.00  0.00    +0.000 A 
ATOM     10  C   UNL     1       2.498   5.830  20.123  0.00  0.00    +0.000 A 
ATOM     11  C   UNL     1       1.909   7.070  19.856  0.00  0.00    +0.000 A 
ATOM     12  H   UNL     1       5.867   6.774  16.384  0.00  0.00    +0.000 HD
ENDROOT
BRANCH   5  13
ATOM     13  C   UNL     1       5.815   5.227  15.061  0.00  0.00    +0.000 A 
ATOM     14  C   UNL     1       7.181   5.273  14.748  0.00  0.00    +0.000 A 
ATOM     15  C   UNL     1       7.668   4.628  13.607  0.00  0.00    +0.000 A 
ATOM     16  C   UNL     1       6.784   3.974  12.753  0.00  0.00    +0.000 A 
ATOM     17  F   UNL     1       7.267   3.399  11.644  0.00  0.00    +0.000 F 
ATOM     18  C   UNL     1       5.422   3.947  13.031  0.00  0.00    +0.000 A 
ATOM     19 CL   UNL     1       4.315   3.172  11.965  0.00  0.00    +0.000 Cl
ATOM     20  C   UNL     1       4.940   4.565  14.183  0.00  0.00    +0.000 A 
ENDBRANCH   5  13
BRANCH   1  22
ATOM     21  C   UNL     1       1.310  10.144  18.179  0.00  0.00    +0.000 C 
ATOM     22  C   UNL     1       1.778   9.061  18.386  0.00  0.00    +0.000 C 
ENDBRANCH   1  22
BRANCH  11  23
ATOM     23  O   UNL     1       1.005   7.696  20.675  0.00  0.00    +0.000 OA
ATOM     24  C   UNL     1       1.513   8.557  21.686  0.00  0.00    +0.000 C 
ENDBRANCH  11  23
TORSDOF 3
ENDMDL
MODEL 8
REMARK VINA RESULT:      -7.0      6.294      9.240
REMARK  Name = 
REMARK  4 active torsions:
REMARK  status: ('A' for Active; 'I' for Inactive)
REMARK    1  A    between atoms: C_2  and  C_3
REMARK    2  A    between atoms: N_7  and  C_8
REMARK    3  A    between atoms: C_21  and  O_22
REMARK    4  A    between atoms: O_22  and  C_23
REMARK                            x       y       z     vdW  Elec       q    Type
REMARK                         _______ _______ _______ _____ _____    ______ ____
ROOT
ATOM      1  C   UNL     1      -2.341  10.458  16.864  0.00  0.00    +0.000 A 
ATOM      2  C   UNL     1      -1.124   9.815  17.117  0.00  0.00    +0.000 A 
ATOM      3  C   UNL     1      -0.428  10.044  18.323  0.00  0.00    +0.000 A 
ATOM      4  C   UNL     1       0.826   9.503  18.652  0.00  0.00    +0.000 A 
ATOM      5  N   UNL     1       1.501   8.647  17.742  0.00  0.00    +0.000 N 
ATOM      6  N   UNL     1       1.449   9.800  19.808  0.00  0.00    +0.000 NA
ATOM      7  C   UNL     1       0.805  10.607  20.652  0.00  0.00    +0.000 A 
ATOM      8  N   UNL     1      -0.402  11.142  20.460  0.00  0.00    +0.000 NA
ATOM      9  C   UNL     1      -1.006  10.865  19.301  0.00  0.00    +0.000 A 
ATOM     10  C   UNL     1      -2.246  11.443  19.058  0.00  0.00    +0.000 A 
ATOM     11  C   UNL     1      -2.915  11.281  17.841  0.00  0.00    +0.000 A 
ATOM     12  H   UNL     1       1.846   9.193  16.958  0.00  0.00    +0.000 HD
ENDROOT
BRANCH   5  13
ATOM     13  C   UNL     1       2.391   7.619  18.129  0.00  0.00    +0.000 A 
ATOM     14  C   UNL     1       2.154   6.882  19.298  0.00  0.00    +0.000 A 
ATOM     15  C   UNL     1       3.075   5.923  19.730  0.00  0.00    +0.000 A 
ATOM     16  C   UNL     1       4.256   5.731  19.019  0.00  0.00    +0.000 A 
ATOM     17  F   UNL     1       5.144   4.836  19.474  0.00  0.00    +0.000 F 
ATOM     18  C   UNL     1       4.522   6.476  17.875  0.00  0.00    +0.000 A 
ATOM     19 CL   UNL     1       5.994   6.273  17.007  0.00  0.00    +0.000 Cl
ATOM     20  C   UNL     1       3.591   7.412  17.429  0.00  0.00    +0.000 A 
ENDBRANCH   5  13
BRANCH   1  22
ATOM     21  C   UNL     1      -3.465  10.126  14.508  0.00  0.00    +0.000 C 
ATOM     22  C   UNL     1      -2.928  10.299  15.564  0.00  0.00    +0.000 C 
ENDBRANCH   1  22
BRANCH  11  23
ATOM     23  O   UNL     1      -4.093  11.899  17.510  0.00  0.00    +0.000 OA
ATOM     24  C   UNL     1      -5.256  11.546  18.249  0.00  0.00    +0.000 C 
ENDBRANCH  11  23
TORSDOF 3
ENDMDL
MODEL 9
REMARK VINA RESULT:      -7.0      5.340      7.517
REMARK  Name = 
REMARK  4 active torsions:
REMARK  status: ('A' for Active; 'I' for Inactive)
REMARK    1  A    between atoms: C_2  and  C_3
REMARK    2  A    between atoms: N_7  and  C_8
REMARK    3  A    between atoms: C_21  and  O_22
REMARK    4  A    between atoms: O_22  and  C_23
REMARK                            x       y       z     vdW  Elec       q    Type
REMARK                         _______ _______ _______ _____ _____    ______ ____
ROOT
ATOM      1  C   UNL     1       2.171   4.543  20.214  0.00  0.00    +0.000 A 
ATOM      2  C   UNL     1       1.764   5.819  20.617  0.00  0.00    +0.000 A 
ATOM      3  C   UNL     1       1.942   6.931  19.766  0.00  0.00    +0.000 A 
ATOM      4  C   UNL     1       1.630   8.262  20.095  0.00  0.00    +0.000 A 
ATOM      5  N   UNL     1       1.087   8.581  21.367  0.00  0.00    +0.000 N 
ATOM      6  N   UNL     1       1.865   9.279  19.244  0.00  0.00    +0.000 NA
ATOM      7  C   UNL     1       2.376   8.964  18.053  0.00  0.00    +0.000 A 
ATOM      8  N   UNL     1       2.672   7.736  17.624  0.00  0.00    +0.000 NA
ATOM      9  C   UNL     1       2.460   6.733  18.480  0.00  0.00    +0.000 A 
ATOM     10  C   UNL     1       2.797   5.447  18.073  0.00  0.00    +0.000 A 
ATOM     11  C   UNL     1       2.692   4.346  18.929  0.00  0.00    +0.000 A 
ATOM     12  H   UNL     1       1.809   8.485  22.075  0.00  0.00    +0.000 HD
ENDROOT
BRANCH   5  13
ATOM     13  C   UNL     1       0.219   9.670  21.611  0.00  0.00    +0.000 A 
ATOM     14  C   UNL     1      -0.289   9.894  22.898  0.00  0.00    +0.000 A 
ATOM     15  C   UNL     1      -1.213  10.918  23.126  0.00  0.00    +0.000 A 
ATOM     16  C   UNL     1      -1.666  11.689  22.060  0.00  0.00    +0.000 A 
ATOM     17  F   UNL     1      -2.584  12.637  22.294  0.00  0.00    +0.000 F 
ATOM     18  C   UNL     1      -1.198  11.459  20.771  0.00  0.00    +0.000 A 
ATOM     19 CL   UNL     1      -1.776  12.383  19.439  0.00  0.00    +0.000 Cl
ATOM     20  C   UNL     1      -0.255  10.458  20.548  0.00  0.00    +0.000 A 
ENDBRANCH   5  13
BRANCH   1  22
ATOM     21  C   UNL     1       1.971   2.595  21.972  0.00  0.00    +0.000 C 
ATOM     22  C   UNL     1       2.099   3.479  21.174  0.00  0.00    +0.000 C 
ENDBRANCH   1  22
BRANCH  11  23
ATOM     23  O   UNL     1       3.095   3.074  18.616  0.00  0.00    +0.000 OA
ATOM     24  C   UNL     1       2.374   2.382  17.604  0.00  0.00    +0.000 C 
ENDBRANCH  11  23
TORSDOF 3
ENDMDL
