MODEL 1
REMARK VINA RESULT:      -7.7      0.000      0.000
REMARK  Name = 
REMARK  3 active torsions:
REMARK  status: ('A' for Active; 'I' for Inactive)
REMARK    1  A    between atoms: C_2  and  C_3
REMARK    2  A    between atoms: C_3  and  N_4
REMARK    3  A    between atoms: C_12  and  C_13
REMARK                            x       y       z     vdW  Elec       q    Type
REMARK                         _______ _______ _______ _____ _____    ______ ____
ROOT
ATOM      1  N   UNL     1       4.140   4.819  17.301  0.00  0.00    +0.000 N 
ATOM      2  C   UNL     1       3.576   6.021  17.899  0.00  0.00    +0.000 C 
ATOM      3  C   UNL     1       2.805   5.573  19.156  0.00  0.00    +0.000 C 
ATOM      4  C   UNL     1       2.837   4.078  19.042  0.00  0.00    +0.000 A 
ATOM      5  C   UNL     1       3.677   3.720  17.980  0.00  0.00    +0.000 A 
ATOM      6  C   UNL     1       3.927   2.385  17.719  0.00  0.00    +0.000 A 
ATOM      7  C   UNL     1       3.318   1.408  18.511  0.00  0.00    +0.000 A 
ATOM      8  C   UNL     1       2.464   1.775  19.560  0.00  0.00    +0.000 A 
ATOM      9  C   UNL     1       2.211   3.128  19.850  0.00  0.00    +0.000 A 
ENDROOT
BRANCH   9  10
ATOM     10  C   UNL     1       1.294   3.482  20.989  0.00  0.00    +0.000 C 
ATOM     11  F   UNL     1       0.749   2.414  21.635  0.00  0.00    +0.000 F 
ATOM     12  F   UNL     1       1.928   4.208  21.954  0.00  0.00    +0.000 F 
ATOM     13  F   UNL     1       0.238   4.247  20.589  0.00  0.00    +0.000 F 
ENDBRANCH   9  10
BRANCH   1  14
ATOM     14  C   UNL     1       5.163   4.865  16.268  0.00  0.00    +0.000 C 
BRANCH  14  16
ATOM     15  O   UNL     1       5.569   7.079  15.293  0.00  0.00    +0.000 OA
ATOM     16  C   UNL     1       5.850   6.240  16.152  0.00  0.00    +0.000 C 
ATOM     17  N   UNL     1       6.845   6.489  17.093  0.00  0.00    +0.000 N 
ATOM     18  C   UNL     1       7.597   7.725  17.102  0.00  0.00    +0.000 C 
ATOM     19  C   UNL     1       8.199   7.760  18.497  0.00  0.00    +0.000 C 
ATOM     20  N   UNL     1       8.237   6.374  18.870  0.00  0.00    +0.000 N 
ATOM     21  C   UNL     1       7.311   5.654  18.127  0.00  0.00    +0.000 C 
ATOM     22  O   UNL     1       6.981   4.510  18.383  0.00  0.00    +0.000 OA
ATOM     23  H   UNL     1       8.529   6.012  19.770  0.00  0.00    +0.000 HD
ENDBRANCH  14  16
ENDBRANCH   1  14
TORSDOF 3
ENDMDL
MODEL 2
REMARK VINA RESULT:      -7.6      3.821      5.850
REMARK  Name = 
REMARK  3 active torsions:
REMARK  status: ('A' for Active; 'I' for Inactive)
REMARK    1  A    between atoms: C_2  and  C_3
REMARK    2  A    between atoms: C_3  and  N_4
REMARK    3  A    between atoms: C_12  and  C_13
REMARK                            x       y       z     vdW  Elec       q    Type
REMARK                         _______ _______ _______ _____ _____    ______ ____
ROOT
ATOM      1  N   UNL     1       2.534   6.634  18.986  0.00  0.00    +0.000 N 
ATOM      2  C   UNL     1       2.180   6.123  20.303  0.00  0.00    +0.000 C 
ATOM      3  C   UNL     1       1.334   7.213  20.990  0.00  0.00    +0.000 C 
ATOM      4  C   UNL     1       1.458   8.368  20.042  0.00  0.00    +0.000 A 
ATOM      5  C   UNL     1       2.114   7.937  18.881  0.00  0.00    +0.000 A 
ATOM      6  C   UNL     1       2.284   8.809  17.822  0.00  0.00    +0.000 A 
ATOM      7  C   UNL     1       1.816  10.120  17.934  0.00  0.00    +0.000 A 
ATOM      8  C   UNL     1       1.177  10.549  19.105  0.00  0.00    +0.000 A 
ATOM      9  C   UNL     1       0.980   9.671  20.186  0.00  0.00    +0.000 A 
ENDROOT
BRANCH   9  10
ATOM     10  C   UNL     1       0.284  10.166  21.425  0.00  0.00    +0.000 C 
ATOM     11  F   UNL     1      -0.937   9.607  21.655  0.00  0.00    +0.000 F 
ATOM     12  F   UNL     1       1.012   9.932  22.555  0.00  0.00    +0.000 F 
ATOM     13  F   UNL     1       0.070  11.513  21.400  0.00  0.00    +0.000 F 
ENDBRANCH   9  10
BRANCH   1  14
ATOM     14  C   UNL     1       3.083   5.786  17.939  0.00  0.00    +0.000 C 
BRANCH  14  16
ATOM     15  O   UNL     1       1.308   4.193  17.368  0.00  0.00    +0.000 OA
ATOM     16  C   UNL     1       2.417   4.399  17.867  0.00  0.00    +0.000 C 
ATOM     17  N   UNL     1       3.152   3.356  18.424  0.00  0.00    +0.000 N 
ATOM     18  C   UNL     1       2.653   1.998  18.452  0.00  0.00    +0.000 C 
ATOM     19  C   UNL     1       3.903   1.169  18.698  0.00  0.00    +0.000 C 
ATOM     20  N   UNL     1       4.786   2.097  19.348  0.00  0.00    +0.000 N 
ATOM     21  C   UNL     1       4.414   3.401  19.047  0.00  0.00    +0.000 C 
ATOM     22  O   UNL     1       5.107   4.374  19.285  0.00  0.00    +0.000 OA
ATOM     23  H   UNL     1       5.745   1.912  19.614  0.00  0.00    +0.000 HD
ENDBRANCH  14  16
ENDBRANCH   1  14
TORSDOF 3
ENDMDL
MODEL 3
REMARK VINA RESULT:      -7.4      2.929      4.296
REMARK  Name = 
REMARK  3 active torsions:
REMARK  status: ('A' for Active; 'I' for Inactive)
REMARK    1  A    between atoms: C_2  and  C_3
REMARK    2  A    between atoms: C_3  and  N_4
REMARK    3  A    between atoms: C_12  and  C_13
REMARK                            x       y       z     vdW  Elec       q    Type
REMARK                         _______ _______ _______ _____ _____    ______ ____
ROOT
ATOM      1  N   UNL     1       3.010   6.064  18.766  0.00  0.00    +0.000 N 
ATOM      2  C   UNL     1       2.706   5.368  20.008  0.00  0.00    +0.000 C 
ATOM      3  C   UNL     1       1.701   6.249  20.776  0.00  0.00    +0.000 C 
ATOM      4  C   UNL     1       1.679   7.506  19.960  0.00  0.00    +0.000 A 
ATOM      5  C   UNL     1       2.412   7.299  18.784  0.00  0.00    +0.000 A 
ATOM      6  C   UNL     1       2.478   8.297  17.829  0.00  0.00    +0.000 A 
ATOM      7  C   UNL     1       1.826   9.511  18.062  0.00  0.00    +0.000 A 
ATOM      8  C   UNL     1       1.110   9.716  19.249  0.00  0.00    +0.000 A 
ATOM      9  C   UNL     1       1.019   8.707  20.224  0.00  0.00    +0.000 A 
ENDROOT
BRANCH   9  10
ATOM     10  C   UNL     1       0.235   8.962  21.483  0.00  0.00    +0.000 C 
ATOM     11  F   UNL     1      -0.362  10.185  21.544  0.00  0.00    +0.000 F 
ATOM     12  F   UNL     1      -0.770   8.056  21.658  0.00  0.00    +0.000 F 
ATOM     13  F   UNL     1       1.006   8.875  22.604  0.00  0.00    +0.000 F 
ENDBRANCH   9  10
BRANCH   1  14
ATOM     14  C   UNL     1       3.693   5.420  17.655  0.00  0.00    +0.000 C 
BRANCH  14  16
ATOM     15  O   UNL     1       4.852   6.983  16.162  0.00  0.00    +0.000 OA
ATOM     16  C   UNL     1       4.900   6.223  17.132  0.00  0.00    +0.000 C 
ATOM     17  N   UNL     1       6.089   6.033  17.830  0.00  0.00    +0.000 N 
ATOM     18  C   UNL     1       7.314   6.700  17.449  0.00  0.00    +0.000 C 
ATOM     19  C   UNL     1       8.181   6.582  18.692  0.00  0.00    +0.000 C 
ATOM     20  N   UNL     1       7.644   5.426  19.354  0.00  0.00    +0.000 N 
ATOM     21  C   UNL     1       6.337   5.202  18.940  0.00  0.00    +0.000 C 
ATOM     22  O   UNL     1       5.577   4.427  19.491  0.00  0.00    +0.000 OA
ATOM     23  H   UNL     1       7.938   5.071  20.255  0.00  0.00    +0.000 HD
ENDBRANCH  14  16
ENDBRANCH   1  14
TORSDOF 3
ENDMDL
MODEL 4
REMARK VINA RESULT:      -7.4      4.544      6.655
REMARK  Name = 
REMARK  3 active torsions:
REMARK  status: ('A' for Active; 'I' for Inactive)
REMARK    1  A    between atoms: C_2  and  C_3
REMARK    2  A    between atoms: C_3  and  N_4
REMARK    3  A    between atoms: C_12  and  C_13
REMARK                            x       y       z     vdW  Elec       q    Type
REMARK                         _______ _______ _______ _____ _____    ______ ____
ROOT
ATOM      1  N   UNL     1       2.286   7.264  19.438  0.00  0.00    +0.000 N 
ATOM      2  C   UNL     1       2.375   7.683  18.047  0.00  0.00    +0.000 C 
ATOM      3  C   UNL     1       1.728   9.080  17.961  0.00  0.00    +0.000 C 
ATOM      4  C   UNL     1       1.129   9.246  19.325  0.00  0.00    +0.000 A 
ATOM      5  C   UNL     1       1.546   8.183  20.139  0.00  0.00    +0.000 A 
ATOM      6  C   UNL     1       1.181   8.153  21.472  0.00  0.00    +0.000 A 
ATOM      7  C   UNL     1       0.380   9.176  21.985  0.00  0.00    +0.000 A 
ATOM      8  C   UNL     1      -0.048  10.225  21.160  0.00  0.00    +0.000 A 
ATOM      9  C   UNL     1       0.328  10.281  19.806  0.00  0.00    +0.000 A 
ENDROOT
BRANCH   9  10
ATOM     10  C   UNL     1      -0.146  11.428  18.954  0.00  0.00    +0.000 C 
ATOM     11  F   UNL     1       0.849  12.174  18.398  0.00  0.00    +0.000 F 
ATOM     12  F   UNL     1      -0.916  11.009  17.908  0.00  0.00    +0.000 F 
ATOM     13  F   UNL     1      -0.920  12.309  19.649  0.00  0.00    +0.000 F 
ENDBRANCH   9  10
BRANCH   1  14
ATOM     14  C   UNL     1       3.036   6.134  19.965  0.00  0.00    +0.000 C 
BRANCH  14  16
ATOM     15  O   UNL     1       1.090   4.684  20.321  0.00  0.00    +0.000 OA
ATOM     16  C   UNL     1       2.251   4.809  19.925  0.00  0.00    +0.000 C 
ATOM     17  N   UNL     1       2.949   3.720  19.410  0.00  0.00    +0.000 N 
ATOM     18  C   UNL     1       2.356   2.403  19.326  0.00  0.00    +0.000 C 
ATOM     19  C   UNL     1       3.244   1.681  18.326  0.00  0.00    +0.000 C 
ATOM     20  N   UNL     1       4.488   2.391  18.423  0.00  0.00    +0.000 N 
ATOM     21  C   UNL     1       4.271   3.666  18.930  0.00  0.00    +0.000 C 
ATOM     22  O   UNL     1       5.109   4.550  18.917  0.00  0.00    +0.000 OA
ATOM     23  H   UNL     1       5.309   2.225  17.854  0.00  0.00    +0.000 HD
ENDBRANCH  14  16
ENDBRANCH   1  14
TORSDOF 3
ENDMDL
MODEL 5
REMARK VINA RESULT:      -7.3      3.580      5.714
REMARK  Name = 
REMARK  3 active torsions:
REMARK  status: ('A' for Active; 'I' for Inactive)
REMARK    1  A    between atoms: C_2  and  C_3
REMARK    2  A    between atoms: C_3  and  N_4
REMARK    3  A    between atoms: C_12  and  C_13
REMARK                            x       y       z     vdW  Elec       q    Type
REMARK                         _______ _______ _______ _____ _____    ______ ____
ROOT
ATOM      1  N   UNL     1       2.757   6.685  18.851  0.00  0.00    +0.000 N 
ATOM      2  C   UNL     1       2.549   5.951  20.091  0.00  0.00    +0.000 C 
ATOM      3  C   UNL     1       1.580   6.790  20.947  0.00  0.00    +0.000 C 
ATOM      4  C   UNL     1       1.478   8.067  20.167  0.00  0.00    +0.000 A 
ATOM      5  C   UNL     1       2.137   7.906  18.941  0.00  0.00    +0.000 A 
ATOM      6  C   UNL     1       2.119   8.928  18.010  0.00  0.00    +0.000 A 
ATOM      7  C   UNL     1       1.460  10.121  18.317  0.00  0.00    +0.000 A 
ATOM      8  C   UNL     1       0.819  10.281  19.553  0.00  0.00    +0.000 A 
ATOM      9  C   UNL     1       0.813   9.245  20.505  0.00  0.00    +0.000 A 
ENDROOT
BRANCH   9  10
ATOM     10  C   UNL     1       0.108   9.452  21.819  0.00  0.00    +0.000 C 
ATOM     11  F   UNL     1      -0.807   8.493  22.132  0.00  0.00    +0.000 F 
ATOM     12  F   UNL     1       0.977   9.486  22.870  0.00  0.00    +0.000 F 
ATOM     13  F   UNL     1      -0.571  10.634  21.866  0.00  0.00    +0.000 F 
ENDBRANCH   9  10
BRANCH   1  14
ATOM     14  C   UNL     1       3.379   6.084  17.681  0.00  0.00    +0.000 C 
BRANCH  14  16
ATOM     15  O   UNL     1       5.493   5.019  18.326  0.00  0.00    +0.000 OA
ATOM     16  C   UNL     1       4.304   4.899  18.024  0.00  0.00    +0.000 C 
ATOM     17  N   UNL     1       3.708   3.643  17.962  0.00  0.00    +0.000 N 
ATOM     18  C   UNL     1       4.449   2.431  18.235  0.00  0.00    +0.000 C 
ATOM     19  C   UNL     1       3.360   1.405  18.504  0.00  0.00    +0.000 C 
ATOM     20  N   UNL     1       2.227   1.942  17.803  0.00  0.00    +0.000 N 
ATOM     21  C   UNL     1       2.382   3.310  17.623  0.00  0.00    +0.000 C 
ATOM     22  O   UNL     1       1.487   4.049  17.253  0.00  0.00    +0.000 OA
ATOM     23  H   UNL     1       1.293   1.552  17.804  0.00  0.00    +0.000 HD
ENDBRANCH  14  16
ENDBRANCH   1  14
TORSDOF 3
ENDMDL
MODEL 6
REMARK VINA RESULT:      -7.3      1.070      1.130
REMARK  Name = 
REMARK  3 active torsions:
REMARK  status: ('A' for Active; 'I' for Inactive)
REMARK    1  A    between atoms: C_2  and  C_3
REMARK    2  A    between atoms: C_3  and  N_4
REMARK    3  A    between atoms: C_12  and  C_13
REMARK                            x       y       z     vdW  Elec       q    Type
REMARK                         _______ _______ _______ _____ _____    ______ ____
ROOT
ATOM      1  N   UNL     1       4.634   4.254  17.476  0.00  0.00    +0.000 N 
ATOM      2  C   UNL     1       3.470   5.014  17.043  0.00  0.00    +0.000 C 
ATOM      3  C   UNL     1       2.402   4.856  18.144  0.00  0.00    +0.000 C 
ATOM      4  C   UNL     1       3.009   3.819  19.041  0.00  0.00    +0.000 A 
ATOM      5  C   UNL     1       4.322   3.567  18.622  0.00  0.00    +0.000 A 
ATOM      6  C   UNL     1       5.119   2.694  19.341  0.00  0.00    +0.000 A 
ATOM      7  C   UNL     1       4.591   2.057  20.467  0.00  0.00    +0.000 A 
ATOM      8  C   UNL     1       3.271   2.302  20.869  0.00  0.00    +0.000 A 
ATOM      9  C   UNL     1       2.452   3.199  20.159  0.00  0.00    +0.000 A 
ENDROOT
BRANCH   9  10
ATOM     10  C   UNL     1       1.041   3.440  20.625  0.00  0.00    +0.000 C 
ATOM     11  F   UNL     1       0.722   2.844  21.807  0.00  0.00    +0.000 F 
ATOM     12  F   UNL     1       0.776   4.767  20.801  0.00  0.00    +0.000 F 
ATOM     13  F   UNL     1       0.114   2.996  19.729  0.00  0.00    +0.000 F 
ENDBRANCH   9  10
BRANCH   1  14
ATOM     14  C   UNL     1       5.937   4.392  16.844  0.00  0.00    +0.000 C 
BRANCH  14  16
ATOM     15  O   UNL     1       5.838   6.437  15.493  0.00  0.00    +0.000 OA
ATOM     16  C   UNL     1       6.286   5.848  16.480  0.00  0.00    +0.000 C 
ATOM     17  N   UNL     1       7.173   6.481  17.346  0.00  0.00    +0.000 N 
ATOM     18  C   UNL     1       7.614   7.842  17.128  0.00  0.00    +0.000 C 
ATOM     19  C   UNL     1       8.157   8.257  18.485  0.00  0.00    +0.000 C 
ATOM     20  N   UNL     1       8.509   7.004  19.092  0.00  0.00    +0.000 N 
ATOM     21  C   UNL     1       7.795   5.970  18.501  0.00  0.00    +0.000 C 
ATOM     22  O   UNL     1       7.736   4.842  18.956  0.00  0.00    +0.000 OA
ATOM     23  H   UNL     1       8.856   6.881  20.035  0.00  0.00    +0.000 HD
ENDBRANCH  14  16
ENDBRANCH   1  14
TORSDOF 3
ENDMDL
MODEL 7
REMARK VINA RESULT:      -7.3      4.325      6.209
REMARK  Name = 
REMARK  3 active torsions:
REMARK  status: ('A' for Active; 'I' for Inactive)
REMARK    1  A    between atoms: C_2  and  C_3
REMARK    2  A    between atoms: C_3  and  N_4
REMARK    3  A    between atoms: C_12  and  C_13
REMARK                            x       y       z     vdW  Elec       q    Type
REMARK                         _______ _______ _______ _____ _____    ______ ____
ROOT
ATOM      1  N   UNL     1       2.584   7.332  18.621  0.00  0.00    +0.000 N 
ATOM      2  C   UNL     1       2.643   8.190  17.446  0.00  0.00    +0.000 C 
ATOM      3  C   UNL     1       1.950   9.513  17.827  0.00  0.00    +0.000 C 
ATOM      4  C   UNL     1       1.363   9.199  19.171  0.00  0.00    +0.000 A 
ATOM      5  C   UNL     1       1.825   7.943  19.587  0.00  0.00    +0.000 A 
ATOM      6  C   UNL     1       1.478   7.461  20.836  0.00  0.00    +0.000 A 
ATOM      7  C   UNL     1       0.651   8.229  21.659  0.00  0.00    +0.000 A 
ATOM      8  C   UNL     1       0.179   9.476  21.228  0.00  0.00    +0.000 A 
ATOM      9  C   UNL     1       0.535   9.989  19.968  0.00  0.00    +0.000 A 
ENDROOT
BRANCH   9  10
ATOM     10  C   UNL     1       0.014  11.336  19.543  0.00  0.00    +0.000 C 
ATOM     11  F   UNL     1      -0.680  11.334  18.372  0.00  0.00    +0.000 F 
ATOM     12  F   UNL     1      -0.830  11.878  20.468  0.00  0.00    +0.000 F 
ATOM     13  F   UNL     1       1.011  12.251  19.376  0.00  0.00    +0.000 F 
ENDBRANCH   9  10
BRANCH   1  14
ATOM     14  C   UNL     1       3.377   6.119  18.743  0.00  0.00    +0.000 C 
BRANCH  14  16
ATOM     15  O   UNL     1       1.443   4.829  17.960  0.00  0.00    +0.000 OA
ATOM     16  C   UNL     1       2.581   4.836  18.436  0.00  0.00    +0.000 C 
ATOM     17  N   UNL     1       3.231   3.644  18.744  0.00  0.00    +0.000 N 
ATOM     18  C   UNL     1       2.607   2.356  18.533  0.00  0.00    +0.000 C 
ATOM     19  C   UNL     1       3.779   1.389  18.553  0.00  0.00    +0.000 C 
ATOM     20  N   UNL     1       4.765   2.090  19.327  0.00  0.00    +0.000 N 
ATOM     21  C   UNL     1       4.509   3.455  19.303  0.00  0.00    +0.000 C 
ATOM     22  O   UNL     1       5.298   4.298  19.691  0.00  0.00    +0.000 OA
ATOM     23  H   UNL     1       5.710   1.774  19.506  0.00  0.00    +0.000 HD
ENDBRANCH  14  16
ENDBRANCH   1  14
TORSDOF 3
ENDMDL
MODEL 8
REMARK VINA RESULT:      -7.3      4.825      6.974
REMARK  Name = 
REMARK  3 active torsions:
REMARK  status: ('A' for Active; 'I' for Inactive)
REMARK    1  A    between atoms: C_2  and  C_3
REMARK    2  A    between atoms: C_3  and  N_4
REMARK    3  A    between atoms: C_12  and  C_13
REMARK                            x       y       z     vdW  Elec       q    Type
REMARK                         _______ _______ _______ _____ _____    ______ ____
ROOT
ATOM      1  N   UNL     1       2.273   7.601  19.115  0.00  0.00    +0.000 N 
ATOM      2  C   UNL     1       2.346   8.200  17.790  0.00  0.00    +0.000 C 
ATOM      3  C   UNL     1       1.668   9.581  17.888  0.00  0.00    +0.000 C 
ATOM      4  C   UNL     1       1.073   9.555  19.264  0.00  0.00    +0.000 A 
ATOM      5  C   UNL     1       1.518   8.405  19.931  0.00  0.00    +0.000 A 
ATOM      6  C   UNL     1       1.162   8.193  21.250  0.00  0.00    +0.000 A 
ATOM      7  C   UNL     1       0.341   9.122  21.895  0.00  0.00    +0.000 A 
ATOM      8  C   UNL     1      -0.114  10.260  21.215  0.00  0.00    +0.000 A 
ATOM      9  C   UNL     1       0.252  10.500  19.878  0.00  0.00    +0.000 A 
ENDROOT
BRANCH   9  10
ATOM     10  C   UNL     1      -0.251  11.737  19.184  0.00  0.00    +0.000 C 
ATOM     11  F   UNL     1       0.724  12.555  18.698  0.00  0.00    +0.000 F 
ATOM     12  F   UNL     1      -1.046  11.442  18.115  0.00  0.00    +0.000 F 
ATOM     13  F   UNL     1      -1.012  12.521  20.001  0.00  0.00    +0.000 F 
ENDBRANCH   9  10
BRANCH   1  14
ATOM     14  C   UNL     1       3.051   6.429  19.487  0.00  0.00    +0.000 C 
BRANCH  14  16
ATOM     15  O   UNL     1       3.629   5.270  17.405  0.00  0.00    +0.000 OA
ATOM     16  C   UNL     1       2.975   5.292  18.450  0.00  0.00    +0.000 C 
ATOM     17  N   UNL     1       2.093   4.261  18.761  0.00  0.00    +0.000 N 
ATOM     18  C   UNL     1       1.894   3.133  17.879  0.00  0.00    +0.000 C 
ATOM     19  C   UNL     1       1.253   2.090  18.779  0.00  0.00    +0.000 C 
ATOM     20  N   UNL     1       0.642   2.882  19.809  0.00  0.00    +0.000 N 
ATOM     21  C   UNL     1       1.259   4.123  19.887  0.00  0.00    +0.000 C 
ATOM     22  O   UNL     1       1.088   4.907  20.804  0.00  0.00    +0.000 OA
ATOM     23  H   UNL     1       0.164   2.522  20.626  0.00  0.00    +0.000 HD
ENDBRANCH  14  16
ENDBRANCH   1  14
TORSDOF 3
ENDMDL
MODEL 9
REMARK VINA RESULT:      -7.1      3.117      4.754
REMARK  Name = 
REMARK  3 active torsions:
REMARK  status: ('A' for Active; 'I' for Inactive)
REMARK    1  A    between atoms: C_2  and  C_3
REMARK    2  A    between atoms: C_3  and  N_4
REMARK    3  A    between atoms: C_12  and  C_13
REMARK                            x       y       z     vdW  Elec       q    Type
REMARK                         _______ _______ _______ _____ _____    ______ ____
ROOT
ATOM      1  N   UNL     1       2.707   6.006  18.851  0.00  0.00    +0.000 N 
ATOM      2  C   UNL     1       2.459   5.395  20.149  0.00  0.00    +0.000 C 
ATOM      3  C   UNL     1       1.617   6.399  20.960  0.00  0.00    +0.000 C 
ATOM      4  C   UNL     1       1.633   7.618  20.087  0.00  0.00    +0.000 A 
ATOM      5  C   UNL     1       2.229   7.292  18.861  0.00  0.00    +0.000 A 
ATOM      6  C   UNL     1       2.295   8.238  17.855  0.00  0.00    +0.000 A 
ATOM      7  C   UNL     1       1.782   9.518  18.084  0.00  0.00    +0.000 A 
ATOM      8  C   UNL     1       1.204   9.840  19.320  0.00  0.00    +0.000 A 
ATOM      9  C   UNL     1       1.114   8.886  20.349  0.00  0.00    +0.000 A 
ENDROOT
BRANCH   9  10
ATOM     10  C   UNL     1       0.480   9.268  21.659  0.00  0.00    +0.000 C 
ATOM     11  F   UNL     1      -0.608   8.524  22.004  0.00  0.00    +0.000 F 
ATOM     12  F   UNL     1       1.348   9.153  22.705  0.00  0.00    +0.000 F 
ATOM     13  F   UNL     1       0.057  10.564  21.675  0.00  0.00    +0.000 F 
ENDBRANCH   9  10
BRANCH   1  14
ATOM     14  C   UNL     1       3.220   5.253  17.717  0.00  0.00    +0.000 C 
BRANCH  14  16
ATOM     15  O   UNL     1       4.658   3.618  18.845  0.00  0.00    +0.000 OA
ATOM     16  C   UNL     1       4.544   4.525  18.017  0.00  0.00    +0.000 C 
ATOM     17  N   UNL     1       5.644   4.966  17.288  0.00  0.00    +0.000 N 
ATOM     18  C   UNL     1       6.962   4.397  17.471  0.00  0.00    +0.000 C 
ATOM     19  C   UNL     1       7.705   4.818  16.214  0.00  0.00    +0.000 C 
ATOM     20  N   UNL     1       6.995   5.994  15.795  0.00  0.00    +0.000 N 
ATOM     21  C   UNL     1       5.710   5.989  16.322  0.00  0.00    +0.000 C 
ATOM     22  O   UNL     1       4.828   6.747  15.961  0.00  0.00    +0.000 OA
ATOM     23  H   UNL     1       7.174   6.522  14.950  0.00  0.00    +0.000 HD
ENDBRANCH  14  16
ENDBRANCH   1  14
TORSDOF 3
ENDMDL
