MODEL 1
REMARK VINA RESULT:      -7.0      0.000      0.000
REMARK  Name = 
REMARK  7 active torsions:
REMARK  status: ('A' for Active; 'I' for Inactive)
REMARK    1  A    between atoms: C_1  and  C_2
REMARK    2  A    between atoms: C_5  and  S_6
REMARK    3  A    between atoms: S_6  and  C_7
REMARK    4  A    between atoms: C_7  and  C_8
REMARK    5  A    between atoms: N_15  and  N_16
REMARK    6  A    between atoms: N_16  and  C_17
REMARK    7  A    between atoms: C_17  and  C_18
REMARK                            x       y       z     vdW  Elec       q    Type
REMARK                         _______ _______ _______ _____ _____    ______ ____
ROOT
ATOM      1  C   UNL     1       5.985   3.655  14.719  0.00  0.00    +0.000 C 
ATOM      2  C   UNL     1       5.581   4.756  15.622  0.00  0.00    +0.000 A 
ATOM      3  N   UNL     1       5.596   6.030  15.280  0.00  0.00    +0.000 NA
ATOM      4  N   UNL     1       5.130   6.770  16.334  0.00  0.00    +0.000 NA
ATOM      5  C   UNL     1       4.852   5.939  17.312  0.00  0.00    +0.000 A 
ATOM      6  N   UNL     1       5.126   4.639  16.925  0.00  0.00    +0.000 N 
ENDROOT
BRANCH   6   7
ATOM      7  N   UNL     1       4.790   3.454  17.686  0.00  0.00    +0.000 N 
ATOM      8  H   UNL     1       4.975   3.582  18.680  0.00  0.00    +0.000 HD
BRANCH   7   9
ATOM      9  C   UNL     1       3.442   2.937  17.494  0.00  0.00    +0.000 C 
BRANCH   9  10
ATOM     10  C   UNL     1       2.643   3.127  18.754  0.00  0.00    +0.000 A 
ATOM     11  C   UNL     1       1.345   3.585  18.888  0.00  0.00    +0.000 A 
ATOM     12  C   UNL     1       0.919   3.608  20.250  0.00  0.00    +0.000 A 
ATOM     13  C   UNL     1       1.904   3.182  21.109  0.00  0.00    +0.000 A 
ATOM     14  S   UNL     1       3.340   2.760  20.281  0.00  0.00    +0.000 S 
ENDBRANCH   9  10
ENDBRANCH   7   9
ENDBRANCH   6   7
BRANCH   5  15
ATOM     15  S   UNL     1       4.030   6.388  18.767  0.00  0.00    +0.000 S 
BRANCH  15  16
ATOM     16  C   UNL     1       2.491   7.108  18.146  0.00  0.00    +0.000 C 
BRANCH  16  17
ATOM     17  C   UNL     1       1.898   8.245  18.938  0.00  0.00    +0.000 A 
ATOM     18  C   UNL     1       1.626   9.496  18.362  0.00  0.00    +0.000 A 
ATOM     19  C   UNL     1       0.991  10.499  19.103  0.00  0.00    +0.000 A 
ATOM     20  C   UNL     1       0.605  10.266  20.424  0.00  0.00    +0.000 A 
ATOM     21  C   UNL     1       0.864   9.029  21.007  0.00  0.00    +0.000 A 
ATOM     22  C   UNL     1       1.502   8.036  20.263  0.00  0.00    +0.000 A 
ATOM     23  F   UNL     1       1.705   6.840  20.838  0.00  0.00    +0.000 F 
ENDBRANCH  16  17
ENDBRANCH  15  16
ENDBRANCH   5  15
TORSDOF 6
ENDMDL
MODEL 2
REMARK VINA RESULT:      -7.0      2.421      5.051
REMARK  Name = 
REMARK  7 active torsions:
REMARK  status: ('A' for Active; 'I' for Inactive)
REMARK    1  A    between atoms: C_1  and  C_2
REMARK    2  A    between atoms: C_5  and  S_6
REMARK    3  A    between atoms: S_6  and  C_7
REMARK    4  A    between atoms: C_7  and  C_8
REMARK    5  A    between atoms: N_15  and  N_16
REMARK    6  A    between atoms: N_16  and  C_17
REMARK    7  A    between atoms: C_17  and  C_18
REMARK                            x       y       z     vdW  Elec       q    Type
REMARK                         _______ _______ _______ _____ _____    ______ ____
ROOT
ATOM      1  C   UNL     1       7.181   6.565  17.651  0.00  0.00    +0.000 C 
ATOM      2  C   UNL     1       6.367   5.481  18.242  0.00  0.00    +0.000 A 
ATOM      3  N   UNL     1       6.311   5.225  19.535  0.00  0.00    +0.000 NA
ATOM      4  N   UNL     1       5.440   4.186  19.736  0.00  0.00    +0.000 NA
ATOM      5  C   UNL     1       4.989   3.812  18.562  0.00  0.00    +0.000 A 
ATOM      6  N   UNL     1       5.547   4.592  17.565  0.00  0.00    +0.000 N 
ENDROOT
BRANCH   6   7
ATOM      7  N   UNL     1       5.157   4.568  16.171  0.00  0.00    +0.000 N 
ATOM      8  H   UNL     1       5.333   5.463  15.717  0.00  0.00    +0.000 HD
BRANCH   7   9
ATOM      9  C   UNL     1       5.717   3.487  15.373  0.00  0.00    +0.000 C 
BRANCH   9  10
ATOM     10  C   UNL     1       6.436   4.059  14.182  0.00  0.00    +0.000 A 
ATOM     11  C   UNL     1       7.384   5.066  14.150  0.00  0.00    +0.000 A 
ATOM     12  C   UNL     1       7.858   5.320  12.828  0.00  0.00    +0.000 A 
ATOM     13  C   UNL     1       7.250   4.513  11.895  0.00  0.00    +0.000 A 
ATOM     14  S   UNL     1       6.110   3.455  12.606  0.00  0.00    +0.000 S 
ENDBRANCH   9  10
ENDBRANCH   7   9
ENDBRANCH   6   7
BRANCH   5  15
ATOM     15  S   UNL     1       3.698   2.682  18.331  0.00  0.00    +0.000 S 
BRANCH  15  16
ATOM     16  C   UNL     1       2.282   3.759  18.001  0.00  0.00    +0.000 C 
BRANCH  16  17
ATOM     17  C   UNL     1       2.258   5.093  18.701  0.00  0.00    +0.000 A 
ATOM     18  C   UNL     1       2.540   6.294  18.032  0.00  0.00    +0.000 A 
ATOM     19  C   UNL     1       2.418   7.523  18.691  0.00  0.00    +0.000 A 
ATOM     20  C   UNL     1       2.000   7.574  20.022  0.00  0.00    +0.000 A 
ATOM     21  C   UNL     1       1.713   6.390  20.697  0.00  0.00    +0.000 A 
ATOM     22  C   UNL     1       1.841   5.170  20.034  0.00  0.00    +0.000 A 
ATOM     23  F   UNL     1       1.522   4.048  20.698  0.00  0.00    +0.000 F 
ENDBRANCH  16  17
ENDBRANCH  15  16
ENDBRANCH   5  15
TORSDOF 6
ENDMDL
MODEL 3
REMARK VINA RESULT:      -6.9      1.889      2.415
REMARK  Name = 
REMARK  7 active torsions:
REMARK  status: ('A' for Active; 'I' for Inactive)
REMARK    1  A    between atoms: C_1  and  C_2
REMARK    2  A    between atoms: C_5  and  S_6
REMARK    3  A    between atoms: S_6  and  C_7
REMARK    4  A    between atoms: C_7  and  C_8
REMARK    5  A    between atoms: N_15  and  N_16
REMARK    6  A    between atoms: N_16  and  C_17
REMARK    7  A    between atoms: C_17  and  C_18
REMARK                            x       y       z     vdW  Elec       q    Type
REMARK                         _______ _______ _______ _____ _____    ______ ____
ROOT
ATOM      1  C   UNL     1       5.772   3.888  13.734  0.00  0.00    +0.000 C 
ATOM      2  C   UNL     1       6.409   4.553  14.891  0.00  0.00    +0.000 A 
ATOM      3  N   UNL     1       7.263   5.554  14.787  0.00  0.00    +0.000 NA
ATOM      4  N   UNL     1       7.626   5.950  16.046  0.00  0.00    +0.000 NA
ATOM      5  C   UNL     1       7.003   5.175  16.903  0.00  0.00    +0.000 A 
ATOM      6  N   UNL     1       6.216   4.256  16.231  0.00  0.00    +0.000 N 
ENDROOT
BRANCH   6   7
ATOM      7  N   UNL     1       5.269   3.356  16.854  0.00  0.00    +0.000 N 
ATOM      8  H   UNL     1       5.260   3.464  17.867  0.00  0.00    +0.000 HD
BRANCH   7   9
ATOM      9  C   UNL     1       3.909   3.407  16.336  0.00  0.00    +0.000 C 
BRANCH   9  10
ATOM     10  C   UNL     1       2.938   3.063  17.432  0.00  0.00    +0.000 A 
ATOM     11  C   UNL     1       1.701   3.624  17.693  0.00  0.00    +0.000 A 
ATOM     12  C   UNL     1       1.057   3.015  18.811  0.00  0.00    +0.000 A 
ATOM     13  C   UNL     1       1.825   2.023  19.375  0.00  0.00    +0.000 A 
ATOM     14  S   UNL     1       3.317   1.827  18.564  0.00  0.00    +0.000 S 
ENDBRANCH   9  10
ENDBRANCH   7   9
ENDBRANCH   6   7
BRANCH   5  15
ATOM     15  S   UNL     1       6.978   5.438  18.613  0.00  0.00    +0.000 S 
BRANCH  15  16
ATOM     16  C   UNL     1       5.281   4.995  19.058  0.00  0.00    +0.000 C 
BRANCH  16  17
ATOM     17  C   UNL     1       4.224   6.051  18.863  0.00  0.00    +0.000 A 
ATOM     18  C   UNL     1       4.267   6.965  17.799  0.00  0.00    +0.000 A 
ATOM     19  C   UNL     1       3.221   7.871  17.595  0.00  0.00    +0.000 A 
ATOM     20  C   UNL     1       2.110   7.872  18.440  0.00  0.00    +0.000 A 
ATOM     21  C   UNL     1       2.051   6.968  19.497  0.00  0.00    +0.000 A 
ATOM     22  C   UNL     1       3.100   6.070  19.696  0.00  0.00    +0.000 A 
ATOM     23  F   UNL     1       3.000   5.186  20.701  0.00  0.00    +0.000 F 
ENDBRANCH  16  17
ENDBRANCH  15  16
ENDBRANCH   5  15
TORSDOF 6
ENDMDL
MODEL 4
REMARK VINA RESULT:      -6.8      1.684      2.092
REMARK  Name = 
REMARK  7 active torsions:
REMARK  status: ('A' for Active; 'I' for Inactive)
REMARK    1  A    between atoms: C_1  and  C_2
REMARK    2  A    between atoms: C_5  and  S_6
REMARK    3  A    between atoms: S_6  and  C_7
REMARK    4  A    between atoms: C_7  and  C_8
REMARK    5  A    between atoms: N_15  and  N_16
REMARK    6  A    between atoms: N_16  and  C_17
REMARK    7  A    between atoms: C_17  and  C_18
REMARK                            x       y       z     vdW  Elec       q    Type
REMARK                         _______ _______ _______ _____ _____    ______ ____
ROOT
ATOM      1  C   UNL     1       7.532   4.608  17.300  0.00  0.00    +0.000 C 
ATOM      2  C   UNL     1       6.257   5.349  17.182  0.00  0.00    +0.000 A 
ATOM      3  N   UNL     1       5.927   6.083  16.136  0.00  0.00    +0.000 NA
ATOM      4  N   UNL     1       4.673   6.595  16.341  0.00  0.00    +0.000 NA
ATOM      5  C   UNL     1       4.261   6.180  17.516  0.00  0.00    +0.000 A 
ATOM      6  N   UNL     1       5.228   5.387  18.108  0.00  0.00    +0.000 N 
ENDROOT
BRANCH   6   7
ATOM      7  N   UNL     1       5.051   4.630  19.329  0.00  0.00    +0.000 N 
ATOM      8  H   UNL     1       4.357   5.058  19.939  0.00  0.00    +0.000 HD
BRANCH   7   9
ATOM      9  C   UNL     1       4.760   3.213  19.161  0.00  0.00    +0.000 C 
BRANCH   9  10
ATOM     10  C   UNL     1       3.278   2.984  19.285  0.00  0.00    +0.000 A 
ATOM     11  C   UNL     1       2.467   3.174  20.390  0.00  0.00    +0.000 A 
ATOM     12  C   UNL     1       1.101   2.870  20.115  0.00  0.00    +0.000 A 
ATOM     13  C   UNL     1       0.914   2.446  18.820  0.00  0.00    +0.000 A 
ATOM     14  S   UNL     1       2.378   2.410  17.938  0.00  0.00    +0.000 S 
ENDBRANCH   9  10
ENDBRANCH   7   9
ENDBRANCH   6   7
BRANCH   5  15
ATOM     15  S   UNL     1       2.649   6.389  18.110  0.00  0.00    +0.000 S 
BRANCH  15  16
ATOM     16  C   UNL     1       2.540   8.181  18.339  0.00  0.00    +0.000 C 
BRANCH  16  17
ATOM     17  C   UNL     1       1.581   8.680  19.388  0.00  0.00    +0.000 A 
ATOM     18  C   UNL     1       1.595   8.197  20.706  0.00  0.00    +0.000 A 
ATOM     19  C   UNL     1       0.752   8.749  21.677  0.00  0.00    +0.000 A 
ATOM     20  C   UNL     1      -0.108   9.800  21.353  0.00  0.00    +0.000 A 
ATOM     21  C   UNL     1      -0.129  10.293  20.051  0.00  0.00    +0.000 A 
ATOM     22  C   UNL     1       0.711   9.734  19.088  0.00  0.00    +0.000 A 
ATOM     23  F   UNL     1       0.696  10.254  17.850  0.00  0.00    +0.000 F 
ENDBRANCH  16  17
ENDBRANCH  15  16
ENDBRANCH   5  15
TORSDOF 6
ENDMDL
MODEL 5
REMARK VINA RESULT:      -6.8      2.585      5.940
REMARK  Name = 
REMARK  7 active torsions:
REMARK  status: ('A' for Active; 'I' for Inactive)
REMARK    1  A    between atoms: C_1  and  C_2
REMARK    2  A    between atoms: C_5  and  S_6
REMARK    3  A    between atoms: S_6  and  C_7
REMARK    4  A    between atoms: C_7  and  C_8
REMARK    5  A    between atoms: N_15  and  N_16
REMARK    6  A    between atoms: N_16  and  C_17
REMARK    7  A    between atoms: C_17  and  C_18
REMARK                            x       y       z     vdW  Elec       q    Type
REMARK                         _______ _______ _______ _____ _____    ______ ____
ROOT
ATOM      1  C   UNL     1       2.218   3.648  21.705  0.00  0.00    +0.000 C 
ATOM      2  C   UNL     1       2.879   3.357  20.414  0.00  0.00    +0.000 A 
ATOM      3  N   UNL     1       3.545   2.246  20.163  0.00  0.00    +0.000 NA
ATOM      4  N   UNL     1       3.993   2.290  18.869  0.00  0.00    +0.000 NA
ATOM      5  C   UNL     1       3.608   3.434  18.353  0.00  0.00    +0.000 A 
ATOM      6  N   UNL     1       2.900   4.166  19.290  0.00  0.00    +0.000 N 
ENDROOT
BRANCH   6   7
ATOM      7  N   UNL     1       2.190   5.398  19.021  0.00  0.00    +0.000 N 
ATOM      8  H   UNL     1       1.368   5.495  19.616  0.00  0.00    +0.000 HD
BRANCH   7   9
ATOM      9  C   UNL     1       2.987   6.616  19.071  0.00  0.00    +0.000 C 
BRANCH   9  10
ATOM     10  C   UNL     1       2.101   7.787  19.393  0.00  0.00    +0.000 A 
ATOM     11  C   UNL     1       1.479   8.092  20.591  0.00  0.00    +0.000 A 
ATOM     12  C   UNL     1       0.733   9.306  20.519  0.00  0.00    +0.000 A 
ATOM     13  C   UNL     1       0.798   9.881  19.271  0.00  0.00    +0.000 A 
ATOM     14  S   UNL     1       1.748   8.961  18.188  0.00  0.00    +0.000 S 
ENDBRANCH   9  10
ENDBRANCH   7   9
ENDBRANCH   6   7
BRANCH   5  15
ATOM     15  S   UNL     1       3.752   3.843  16.678  0.00  0.00    +0.000 S 
BRANCH  15  16
ATOM     16  C   UNL     1       5.544   3.905  16.436  0.00  0.00    +0.000 C 
BRANCH  16  17
ATOM     17  C   UNL     1       6.295   4.991  17.161  0.00  0.00    +0.000 A 
ATOM     18  C   UNL     1       7.178   4.715  18.217  0.00  0.00    +0.000 A 
ATOM     19  C   UNL     1       7.928   5.738  18.805  0.00  0.00    +0.000 A 
ATOM     20  C   UNL     1       7.822   7.051  18.343  0.00  0.00    +0.000 A 
ATOM     21  C   UNL     1       6.954   7.339  17.293  0.00  0.00    +0.000 A 
ATOM     22  C   UNL     1       6.206   6.314  16.714  0.00  0.00    +0.000 A 
ATOM     23  F   UNL     1       5.405   6.615  15.680  0.00  0.00    +0.000 F 
ENDBRANCH  16  17
ENDBRANCH  15  16
ENDBRANCH   5  15
TORSDOF 6
ENDMDL
MODEL 6
REMARK VINA RESULT:      -6.7      2.595      3.265
REMARK  Name = 
REMARK  7 active torsions:
REMARK  status: ('A' for Active; 'I' for Inactive)
REMARK    1  A    between atoms: C_1  and  C_2
REMARK    2  A    between atoms: C_5  and  S_6
REMARK    3  A    between atoms: S_6  and  C_7
REMARK    4  A    between atoms: C_7  and  C_8
REMARK    5  A    between atoms: N_15  and  N_16
REMARK    6  A    between atoms: N_16  and  C_17
REMARK    7  A    between atoms: C_17  and  C_18
REMARK                            x       y       z     vdW  Elec       q    Type
REMARK                         _______ _______ _______ _____ _____    ______ ____
ROOT
ATOM      1  C   UNL     1       5.162   3.589  13.005  0.00  0.00    +0.000 C 
ATOM      2  C   UNL     1       6.074   4.107  14.048  0.00  0.00    +0.000 A 
ATOM      3  N   UNL     1       7.079   4.927  13.805  0.00  0.00    +0.000 NA
ATOM      4  N   UNL     1       7.688   5.232  14.993  0.00  0.00    +0.000 NA
ATOM      5  C   UNL     1       7.058   4.582  15.943  0.00  0.00    +0.000 A 
ATOM      6  N   UNL     1       6.022   3.839  15.406  0.00  0.00    +0.000 N 
ENDROOT
BRANCH   6   7
ATOM      7  N   UNL     1       5.020   3.130  16.174  0.00  0.00    +0.000 N 
ATOM      8  H   UNL     1       5.355   2.903  17.109  0.00  0.00    +0.000 HD
BRANCH   7   9
ATOM      9  C   UNL     1       3.713   3.767  16.254  0.00  0.00    +0.000 C 
BRANCH   9  10
ATOM     10  C   UNL     1       2.909   3.133  17.356  0.00  0.00    +0.000 A 
ATOM     11  C   UNL     1       1.575   3.326  17.668  0.00  0.00    +0.000 A 
ATOM     12  C   UNL     1       1.159   2.526  18.775  0.00  0.00    +0.000 A 
ATOM     13  C   UNL     1       2.185   1.762  19.278  0.00  0.00    +0.000 A 
ATOM     14  S   UNL     1       3.647   2.009  18.426  0.00  0.00    +0.000 S 
ENDBRANCH   9  10
ENDBRANCH   7   9
ENDBRANCH   6   7
BRANCH   5  15
ATOM     15  S   UNL     1       7.330   4.826  17.635  0.00  0.00    +0.000 S 
BRANCH  15  16
ATOM     16  C   UNL     1       6.434   6.364  17.963  0.00  0.00    +0.000 C 
BRANCH  16  17
ATOM     17  C   UNL     1       4.996   6.241  18.394  0.00  0.00    +0.000 A 
ATOM     18  C   UNL     1       4.621   5.564  19.565  0.00  0.00    +0.000 A 
ATOM     19  C   UNL     1       3.286   5.548  19.983  0.00  0.00    +0.000 A 
ATOM     20  C   UNL     1       2.306   6.218  19.248  0.00  0.00    +0.000 A 
ATOM     21  C   UNL     1       2.664   6.897  18.087  0.00  0.00    +0.000 A 
ATOM     22  C   UNL     1       3.997   6.905  17.675  0.00  0.00    +0.000 A 
ATOM     23  F   UNL     1       4.319   7.599  16.572  0.00  0.00    +0.000 F 
ENDBRANCH  16  17
ENDBRANCH  15  16
ENDBRANCH   5  15
TORSDOF 6
ENDMDL
MODEL 7
REMARK VINA RESULT:      -6.7      2.422      5.538
REMARK  Name = 
REMARK  7 active torsions:
REMARK  status: ('A' for Active; 'I' for Inactive)
REMARK    1  A    between atoms: C_1  and  C_2
REMARK    2  A    between atoms: C_5  and  S_6
REMARK    3  A    between atoms: S_6  and  C_7
REMARK    4  A    between atoms: C_7  and  C_8
REMARK    5  A    between atoms: N_15  and  N_16
REMARK    6  A    between atoms: N_16  and  C_17
REMARK    7  A    between atoms: C_17  and  C_18
REMARK                            x       y       z     vdW  Elec       q    Type
REMARK                         _______ _______ _______ _____ _____    ______ ____
ROOT
ATOM      1  C   UNL     1       8.098   4.425  17.852  0.00  0.00    +0.000 C 
ATOM      2  C   UNL     1       6.804   4.976  18.311  0.00  0.00    +0.000 A 
ATOM      3  N   UNL     1       6.495   5.168  19.580  0.00  0.00    +0.000 NA
ATOM      4  N   UNL     1       5.244   5.720  19.645  0.00  0.00    +0.000 NA
ATOM      5  C   UNL     1       4.798   5.844  18.416  0.00  0.00    +0.000 A 
ATOM      6  N   UNL     1       5.742   5.379  17.518  0.00  0.00    +0.000 N 
ENDROOT
BRANCH   6   7
ATOM      7  N   UNL     1       5.658   5.510  16.078  0.00  0.00    +0.000 N 
ATOM      8  H   UNL     1       6.559   5.756  15.671  0.00  0.00    +0.000 HD
BRANCH   7   9
ATOM      9  C   UNL     1       5.085   4.375  15.369  0.00  0.00    +0.000 C 
BRANCH   9  10
ATOM     10  C   UNL     1       5.813   4.171  14.069  0.00  0.00    +0.000 A 
ATOM     11  C   UNL     1       5.436   3.401  12.983  0.00  0.00    +0.000 A 
ATOM     12  C   UNL     1       6.380   3.475  11.916  0.00  0.00    +0.000 A 
ATOM     13  C   UNL     1       7.449   4.283  12.224  0.00  0.00    +0.000 A 
ATOM     14  S   UNL     1       7.321   4.948  13.794  0.00  0.00    +0.000 S 
ENDBRANCH   9  10
ENDBRANCH   7   9
ENDBRANCH   6   7
BRANCH   5  15
ATOM     15  S   UNL     1       3.354   6.694  17.986  0.00  0.00    +0.000 S 
BRANCH  15  16
ATOM     16  C   UNL     1       2.301   6.447  19.436  0.00  0.00    +0.000 C 
BRANCH  16  17
ATOM     17  C   UNL     1       2.029   5.024  19.850  0.00  0.00    +0.000 A 
ATOM     18  C   UNL     1       2.254   4.569  21.159  0.00  0.00    +0.000 A 
ATOM     19  C   UNL     1       1.903   3.267  21.531  0.00  0.00    +0.000 A 
ATOM     20  C   UNL     1       1.310   2.402  20.610  0.00  0.00    +0.000 A 
ATOM     21  C   UNL     1       1.077   2.841  19.309  0.00  0.00    +0.000 A 
ATOM     22  C   UNL     1       1.433   4.139  18.945  0.00  0.00    +0.000 A 
ATOM     23  F   UNL     1       1.163   4.547  17.695  0.00  0.00    +0.000 F 
ENDBRANCH  16  17
ENDBRANCH  15  16
ENDBRANCH   5  15
TORSDOF 6
ENDMDL
MODEL 8
REMARK VINA RESULT:      -6.7      1.303      1.757
REMARK  Name = 
REMARK  7 active torsions:
REMARK  status: ('A' for Active; 'I' for Inactive)
REMARK    1  A    between atoms: C_1  and  C_2
REMARK    2  A    between atoms: C_5  and  S_6
REMARK    3  A    between atoms: S_6  and  C_7
REMARK    4  A    between atoms: C_7  and  C_8
REMARK    5  A    between atoms: N_15  and  N_16
REMARK    6  A    between atoms: N_16  and  C_17
REMARK    7  A    between atoms: C_17  and  C_18
REMARK                            x       y       z     vdW  Elec       q    Type
REMARK                         _______ _______ _______ _____ _____    ______ ____
ROOT
ATOM      1  C   UNL     1       5.592   4.034  14.281  0.00  0.00    +0.000 C 
ATOM      2  C   UNL     1       5.602   4.837  15.523  0.00  0.00    +0.000 A 
ATOM      3  N   UNL     1       6.417   5.852  15.736  0.00  0.00    +0.000 NA
ATOM      4  N   UNL     1       6.133   6.388  16.965  0.00  0.00    +0.000 NA
ATOM      5  C   UNL     1       5.160   5.683  17.492  0.00  0.00    +0.000 A 
ATOM      6  N   UNL     1       4.780   4.672  16.627  0.00  0.00    +0.000 N 
ENDROOT
BRANCH   6   7
ATOM      7  N   UNL     1       3.634   3.807  16.808  0.00  0.00    +0.000 N 
ATOM      8  H   UNL     1       3.225   3.533  15.916  0.00  0.00    +0.000 HD
BRANCH   7   9
ATOM      9  C   UNL     1       3.851   2.630  17.638  0.00  0.00    +0.000 C 
BRANCH   9  10
ATOM     10  C   UNL     1       2.994   2.717  18.871  0.00  0.00    +0.000 A 
ATOM     11  C   UNL     1       3.378   2.601  20.195  0.00  0.00    +0.000 A 
ATOM     12  C   UNL     1       2.279   2.764  21.091  0.00  0.00    +0.000 A 
ATOM     13  C   UNL     1       1.096   2.985  20.427  0.00  0.00    +0.000 A 
ATOM     14  S   UNL     1       1.303   2.991  18.730  0.00  0.00    +0.000 S 
ENDBRANCH   9  10
ENDBRANCH   7   9
ENDBRANCH   6   7
BRANCH   5  15
ATOM     15  S   UNL     1       4.316   6.119  18.939  0.00  0.00    +0.000 S 
BRANCH  15  16
ATOM     16  C   UNL     1       2.758   6.786  18.304  0.00  0.00    +0.000 C 
BRANCH  16  17
ATOM     17  C   UNL     1       2.014   7.751  19.191  0.00  0.00    +0.000 A 
ATOM     18  C   UNL     1       1.790   7.495  20.552  0.00  0.00    +0.000 A 
ATOM     19  C   UNL     1       1.177   8.454  21.366  0.00  0.00    +0.000 A 
ATOM     20  C   UNL     1       0.791   9.688  20.839  0.00  0.00    +0.000 A 
ATOM     21  C   UNL     1       1.012   9.957  19.491  0.00  0.00    +0.000 A 
ATOM     22  C   UNL     1       1.620   8.994  18.686  0.00  0.00    +0.000 A 
ATOM     23  F   UNL     1       1.853   9.295  17.399  0.00  0.00    +0.000 F 
ENDBRANCH  16  17
ENDBRANCH  15  16
ENDBRANCH   5  15
TORSDOF 6
ENDMDL
MODEL 9
REMARK VINA RESULT:      -6.6      1.353      1.709
REMARK  Name = 
REMARK  7 active torsions:
REMARK  status: ('A' for Active; 'I' for Inactive)
REMARK    1  A    between atoms: C_1  and  C_2
REMARK    2  A    between atoms: C_5  and  S_6
REMARK    3  A    between atoms: S_6  and  C_7
REMARK    4  A    between atoms: C_7  and  C_8
REMARK    5  A    between atoms: N_15  and  N_16
REMARK    6  A    between atoms: N_16  and  C_17
REMARK    7  A    between atoms: C_17  and  C_18
REMARK                            x       y       z     vdW  Elec       q    Type
REMARK                         _______ _______ _______ _____ _____    ______ ____
ROOT
ATOM      1  C   UNL     1       6.779   4.530  15.416  0.00  0.00    +0.000 C 
ATOM      2  C   UNL     1       5.864   5.392  16.195  0.00  0.00    +0.000 A 
ATOM      3  N   UNL     1       6.035   6.690  16.355  0.00  0.00    +0.000 NA
ATOM      4  N   UNL     1       4.992   7.179  17.096  0.00  0.00    +0.000 NA
ATOM      5  C   UNL     1       4.206   6.170  17.392  0.00  0.00    +0.000 A 
ATOM      6  N   UNL     1       4.710   4.999  16.854  0.00  0.00    +0.000 N 
ENDROOT
BRANCH   6   7
ATOM      7  N   UNL     1       4.025   3.724  16.843  0.00  0.00    +0.000 N 
ATOM      8  H   UNL     1       4.241   3.190  16.003  0.00  0.00    +0.000 HD
BRANCH   7   9
ATOM      9  C   UNL     1       4.210   2.893  18.024  0.00  0.00    +0.000 C 
BRANCH   9  10
ATOM     10  C   UNL     1       2.931   2.848  18.816  0.00  0.00    +0.000 A 
ATOM     11  C   UNL     1       1.629   2.851  18.348  0.00  0.00    +0.000 A 
ATOM     12  C   UNL     1       0.675   2.776  19.407  0.00  0.00    +0.000 A 
ATOM     13  C   UNL     1       1.275   2.732  20.643  0.00  0.00    +0.000 A 
ATOM     14  S   UNL     1       2.981   2.785  20.532  0.00  0.00    +0.000 S 
ENDBRANCH   9  10
ENDBRANCH   7   9
ENDBRANCH   6   7
BRANCH   5  15
ATOM     15  S   UNL     1       2.648   6.334  18.127  0.00  0.00    +0.000 S 
BRANCH  15  16
ATOM     16  C   UNL     1       2.453   8.128  18.250  0.00  0.00    +0.000 C 
BRANCH  16  17
ATOM     17  C   UNL     1       1.553   8.647  19.342  0.00  0.00    +0.000 A 
ATOM     18  C   UNL     1       1.561   8.106  20.637  0.00  0.00    +0.000 A 
ATOM     19  C   UNL     1       0.779   8.672  21.650  0.00  0.00    +0.000 A 
ATOM     20  C   UNL     1      -0.011   9.793  21.392  0.00  0.00    +0.000 A 
ATOM     21  C   UNL     1      -0.024  10.343  20.113  0.00  0.00    +0.000 A 
ATOM     22  C   UNL     1       0.755   9.771  19.107  0.00  0.00    +0.000 A 
ATOM     23  F   UNL     1       0.750  10.344  17.894  0.00  0.00    +0.000 F 
ENDBRANCH  16  17
ENDBRANCH  15  16
ENDBRANCH   5  15
TORSDOF 6
ENDMDL
