MODEL 1
REMARK VINA RESULT:      -6.7      0.000      0.000
REMARK  Name = 
REMARK  13 active torsions:
REMARK  status: ('A' for Active; 'I' for Inactive)
REMARK    1  A    between atoms: C_1  and  C_2
REMARK    2  A    between atoms: C_2  and  C_3
REMARK    3  A    between atoms: C_3  and  C_4
REMARK    4  A    between atoms: C_4  and  C_5
REMARK    5  A    between atoms: C_5  and  O_6
REMARK    6  A    between atoms: O_6  and  C_7
REMARK    7  A    between atoms: C_10  and  C_11
REMARK    8  A    between atoms: N_14  and  C_15
REMARK    9  A    between atoms: C_15  and  C_16
REMARK   10  A    between atoms: C_16  and  N_17
REMARK   11  A    between atoms: C_16  and  C_18
REMARK   12  A    between atoms: C_18  and  C_19
REMARK   13  A    between atoms: C_19  and  O_21
REMARK                            x       y       z     vdW  Elec       q    Type
REMARK                         _______ _______ _______ _____ _____    ______ ____
ROOT
ATOM      1  C   UNL     1       5.944   5.099  15.830  0.00  0.00    +0.000 A 
ATOM      2  N   UNL     1       7.157   5.710  15.622  0.00  0.00    +0.000 NA
ATOM      3  N   UNL     1       7.601   5.307  14.435  0.00  0.00    +0.000 NA
ATOM      4  N   UNL     1       6.652   4.486  13.977  0.00  0.00    +0.000 N 
ATOM      5  N   UNL     1       5.597   4.291  14.797  0.00  0.00    +0.000 NA
ENDROOT
BRANCH   1   9
ATOM      6  C   UNL     1       3.634   5.536  19.398  0.00  0.00    +0.000 A 
ATOM      7  C   UNL     1       4.725   4.676  19.336  0.00  0.00    +0.000 A 
ATOM      8  C   UNL     1       5.483   4.526  18.197  0.00  0.00    +0.000 A 
ATOM      9  C   UNL     1       5.157   5.251  17.053  0.00  0.00    +0.000 A 
ATOM     10  C   UNL     1       4.057   6.113  17.081  0.00  0.00    +0.000 A 
ATOM     11  C   UNL     1       3.283   6.264  18.242  0.00  0.00    +0.000 A 
BRANCH   6  12
ATOM     12  O   UNL     1       2.912   5.683  20.570  0.00  0.00    +0.000 OA
BRANCH  12  13
ATOM     13  C   UNL     1       2.326   4.445  21.054  0.00  0.00    +0.000 C 
BRANCH  13  14
ATOM     14  C   UNL     1       0.995   4.189  20.364  0.00  0.00    +0.000 C 
BRANCH  14  15
ATOM     15  C   UNL     1       1.003   2.856  19.615  0.00  0.00    +0.000 C 
BRANCH  15  17
ATOM     16  C   UNL     1       2.516   2.230  17.699  0.00  0.00    +0.000 C 
ATOM     17  C   UNL     1       1.300   3.038  18.126  0.00  0.00    +0.000 C 
ENDBRANCH  15  17
ENDBRANCH  14  15
ENDBRANCH  13  14
ENDBRANCH  12  13
ENDBRANCH   6  12
ENDBRANCH   1   9
BRANCH   4  18
ATOM     18  C   UNL     1       6.691   3.879  12.659  0.00  0.00    +0.000 C 
BRANCH  18  19
ATOM     19  C   UNL     1       5.389   3.179  12.193  0.00  0.00    +0.000 C 
BRANCH  19  20
ATOM     20  N   UNL     1       5.714   1.890  11.535  0.00  0.00    +0.000 NA
ATOM     21  H   UNL     1       5.693   1.123  12.220  0.00  0.00    +0.000 HD
ATOM     22  H   UNL     1       6.681   1.898  11.201  0.00  0.00    +0.000 HD
ENDBRANCH  19  20
BRANCH  19  23
ATOM     23  C   UNL     1       4.539   4.044  11.246  0.00  0.00    +0.000 C 
BRANCH  23  24
ATOM     24  C   UNL     1       3.395   3.299  10.616  0.00  0.00    +0.000 C 
ATOM     25  O   UNL     1       2.858   2.305  11.124  0.00  0.00    +0.000 OA
BRANCH  24  26
ATOM     26  O   UNL     1       3.070   3.747   9.397  0.00  0.00    +0.000 OA
ATOM     27  H   UNL     1       3.360   4.677   9.197  0.00  0.00    +0.000 HD
ENDBRANCH  24  26
ENDBRANCH  23  24
ENDBRANCH  19  23
ENDBRANCH  18  19
ENDBRANCH   4  18
TORSDOF 12
ENDMDL
MODEL 2
REMARK VINA RESULT:      -6.6      4.983      7.300
REMARK  Name = 
REMARK  13 active torsions:
REMARK  status: ('A' for Active; 'I' for Inactive)
REMARK    1  A    between atoms: C_1  and  C_2
REMARK    2  A    between atoms: C_2  and  C_3
REMARK    3  A    between atoms: C_3  and  C_4
REMARK    4  A    between atoms: C_4  and  C_5
REMARK    5  A    between atoms: C_5  and  O_6
REMARK    6  A    between atoms: O_6  and  C_7
REMARK    7  A    between atoms: C_10  and  C_11
REMARK    8  A    between atoms: N_14  and  C_15
REMARK    9  A    between atoms: C_15  and  C_16
REMARK   10  A    between atoms: C_16  and  N_17
REMARK   11  A    between atoms: C_16  and  C_18
REMARK   12  A    between atoms: C_18  and  C_19
REMARK   13  A    between atoms: C_19  and  O_21
REMARK                            x       y       z     vdW  Elec       q    Type
REMARK                         _______ _______ _______ _____ _____    ______ ____
ROOT
ATOM      1  C   UNL     1       2.961   6.385  18.264  0.00  0.00    +0.000 A 
ATOM      2  N   UNL     1       4.262   6.291  17.832  0.00  0.00    +0.000 NA
ATOM      3  N   UNL     1       4.523   4.999  17.656  0.00  0.00    +0.000 NA
ATOM      4  N   UNL     1       3.387   4.374  17.978  0.00  0.00    +0.000 N 
ATOM      5  N   UNL     1       2.373   5.169  18.384  0.00  0.00    +0.000 NA
ENDROOT
BRANCH   1   9
ATOM      6  C   UNL     1       1.073  10.075  19.306  0.00  0.00    +0.000 A 
ATOM      7  C   UNL     1       1.648   9.877  18.055  0.00  0.00    +0.000 A 
ATOM      8  C   UNL     1       2.256   8.694  17.700  0.00  0.00    +0.000 A 
ATOM      9  C   UNL     1       2.312   7.647  18.617  0.00  0.00    +0.000 A 
ATOM     10  C   UNL     1       1.755   7.821  19.888  0.00  0.00    +0.000 A 
ATOM     11  C   UNL     1       1.137   9.028  20.250  0.00  0.00    +0.000 A 
BRANCH   6  12
ATOM     12  O   UNL     1       0.445  11.268  19.618  0.00  0.00    +0.000 OA
BRANCH  12  13
ATOM     13  C   UNL     1      -0.977  11.127  19.886  0.00  0.00    +0.000 C 
BRANCH  13  14
ATOM     14  C   UNL     1      -1.787  11.693  18.730  0.00  0.00    +0.000 C 
BRANCH  14  15
ATOM     15  C   UNL     1      -2.677  10.623  18.097  0.00  0.00    +0.000 C 
BRANCH  15  17
ATOM     16  C   UNL     1      -2.763   9.962  15.666  0.00  0.00    +0.000 C 
ATOM     17  C   UNL     1      -1.967   9.888  16.960  0.00  0.00    +0.000 C 
ENDBRANCH  15  17
ENDBRANCH  14  15
ENDBRANCH  13  14
ENDBRANCH  12  13
ENDBRANCH   6  12
ENDBRANCH   1   9
BRANCH   4  18
ATOM     18  C   UNL     1       3.202   2.941  17.847  0.00  0.00    +0.000 C 
BRANCH  18  19
ATOM     19  C   UNL     1       2.543   2.227  19.055  0.00  0.00    +0.000 C 
BRANCH  19  20
ATOM     20  N   UNL     1       1.098   2.558  19.113  0.00  0.00    +0.000 NA
ATOM     21  H   UNL     1       0.748   2.795  18.175  0.00  0.00    +0.000 HD
ATOM     22  H   UNL     1       0.952   3.412  19.656  0.00  0.00    +0.000 HD
ENDBRANCH  19  20
BRANCH  19  23
ATOM     23  C   UNL     1       3.206   2.569  20.401  0.00  0.00    +0.000 C 
BRANCH  23  24
ATOM     24  C   UNL     1       2.263   3.187  21.396  0.00  0.00    +0.000 C 
ATOM     25  O   UNL     1       1.538   2.531  22.155  0.00  0.00    +0.000 OA
BRANCH  24  26
ATOM     26  O   UNL     1       2.202   4.522  21.319  0.00  0.00    +0.000 OA
ATOM     27  H   UNL     1       2.208   4.997  22.193  0.00  0.00    +0.000 HD
ENDBRANCH  24  26
ENDBRANCH  23  24
ENDBRANCH  19  23
ENDBRANCH  18  19
ENDBRANCH   4  18
TORSDOF 12
ENDMDL
MODEL 3
REMARK VINA RESULT:      -6.6      4.670      6.844
REMARK  Name = 
REMARK  13 active torsions:
REMARK  status: ('A' for Active; 'I' for Inactive)
REMARK    1  A    between atoms: C_1  and  C_2
REMARK    2  A    between atoms: C_2  and  C_3
REMARK    3  A    between atoms: C_3  and  C_4
REMARK    4  A    between atoms: C_4  and  C_5
REMARK    5  A    between atoms: C_5  and  O_6
REMARK    6  A    between atoms: O_6  and  C_7
REMARK    7  A    between atoms: C_10  and  C_11
REMARK    8  A    between atoms: N_14  and  C_15
REMARK    9  A    between atoms: C_15  and  C_16
REMARK   10  A    between atoms: C_16  and  N_17
REMARK   11  A    between atoms: C_16  and  C_18
REMARK   12  A    between atoms: C_18  and  C_19
REMARK   13  A    between atoms: C_19  and  O_21
REMARK                            x       y       z     vdW  Elec       q    Type
REMARK                         _______ _______ _______ _____ _____    ______ ____
ROOT
ATOM      1  C   UNL     1       3.123   6.941  18.016  0.00  0.00    +0.000 A 
ATOM      2  N   UNL     1       2.952   5.579  18.071  0.00  0.00    +0.000 NA
ATOM      3  N   UNL     1       3.907   5.034  17.323  0.00  0.00    +0.000 NA
ATOM      4  N   UNL     1       4.609   6.071  16.858  0.00  0.00    +0.000 N 
ATOM      5  N   UNL     1       4.172   7.293  17.231  0.00  0.00    +0.000 NA
ENDROOT
BRANCH   1   9
ATOM      6  C   UNL     1       0.515   9.735  19.929  0.00  0.00    +0.000 A 
ATOM      7  C   UNL     1       1.076   8.668  20.622  0.00  0.00    +0.000 A 
ATOM      8  C   UNL     1       1.922   7.761  20.024  0.00  0.00    +0.000 A 
ATOM      9  C   UNL     1       2.234   7.899  18.673  0.00  0.00    +0.000 A 
ATOM     10  C   UNL     1       1.674   8.954  17.946  0.00  0.00    +0.000 A 
ATOM     11  C   UNL     1       0.811   9.877  18.557  0.00  0.00    +0.000 A 
BRANCH   6  12
ATOM     12  O   UNL     1      -0.308  10.644  20.570  0.00  0.00    +0.000 OA
BRANCH  12  13
ATOM     13  C   UNL     1      -0.623  11.814  19.769  0.00  0.00    +0.000 C 
BRANCH  13  14
ATOM     14  C   UNL     1      -2.118  11.878  19.499  0.00  0.00    +0.000 C 
BRANCH  14  15
ATOM     15  C   UNL     1      -2.430  11.637  18.021  0.00  0.00    +0.000 C 
BRANCH  15  17
ATOM     16  C   UNL     1      -2.596   9.809  16.294  0.00  0.00    +0.000 C 
ATOM     17  C   UNL     1      -2.825  10.185  17.751  0.00  0.00    +0.000 C 
ENDBRANCH  15  17
ENDBRANCH  14  15
ENDBRANCH  13  14
ENDBRANCH  12  13
ENDBRANCH   6  12
ENDBRANCH   1   9
BRANCH   4  18
ATOM     18  C   UNL     1       5.810   5.924  16.056  0.00  0.00    +0.000 C 
BRANCH  18  19
ATOM     19  C   UNL     1       7.063   5.391  16.798  0.00  0.00    +0.000 C 
BRANCH  19  20
ATOM     20  N   UNL     1       6.826   3.999  17.256  0.00  0.00    +0.000 NA
ATOM     21  H   UNL     1       7.235   3.330  16.589  0.00  0.00    +0.000 HD
ATOM     22  H   UNL     1       5.825   3.788  17.240  0.00  0.00    +0.000 HD
ENDBRANCH  19  20
BRANCH  19  23
ATOM     23  C   UNL     1       7.480   6.265  17.994  0.00  0.00    +0.000 C 
BRANCH  23  24
ATOM     24  C   UNL     1       7.312   5.584  19.324  0.00  0.00    +0.000 C 
ATOM     25  O   UNL     1       6.215   5.262  19.799  0.00  0.00    +0.000 OA
BRANCH  24  26
ATOM     26  O   UNL     1       8.458   5.443  20.003  0.00  0.00    +0.000 OA
ATOM     27  H   UNL     1       8.765   6.256  20.486  0.00  0.00    +0.000 HD
ENDBRANCH  24  26
ENDBRANCH  23  24
ENDBRANCH  19  23
ENDBRANCH  18  19
ENDBRANCH   4  18
TORSDOF 12
ENDMDL
MODEL 4
REMARK VINA RESULT:      -6.5      3.681      7.245
REMARK  Name = 
REMARK  13 active torsions:
REMARK  status: ('A' for Active; 'I' for Inactive)
REMARK    1  A    between atoms: C_1  and  C_2
REMARK    2  A    between atoms: C_2  and  C_3
REMARK    3  A    between atoms: C_3  and  C_4
REMARK    4  A    between atoms: C_4  and  C_5
REMARK    5  A    between atoms: C_5  and  O_6
REMARK    6  A    between atoms: O_6  and  C_7
REMARK    7  A    between atoms: C_10  and  C_11
REMARK    8  A    between atoms: N_14  and  C_15
REMARK    9  A    between atoms: C_15  and  C_16
REMARK   10  A    between atoms: C_16  and  N_17
REMARK   11  A    between atoms: C_16  and  C_18
REMARK   12  A    between atoms: C_18  and  C_19
REMARK   13  A    between atoms: C_19  and  O_21
REMARK                            x       y       z     vdW  Elec       q    Type
REMARK                         _______ _______ _______ _____ _____    ______ ____
ROOT
ATOM      1  C   UNL     1       4.075   5.704  18.416  0.00  0.00    +0.000 A 
ATOM      2  N   UNL     1       3.227   6.782  18.495  0.00  0.00    +0.000 NA
ATOM      3  N   UNL     1       2.425   6.575  19.535  0.00  0.00    +0.000 NA
ATOM      4  N   UNL     1       2.817   5.401  20.039  0.00  0.00    +0.000 N 
ATOM      5  N   UNL     1       3.828   4.789  19.386  0.00  0.00    +0.000 NA
ENDROOT
BRANCH   1   9
ATOM      6  C   UNL     1       7.012   5.223  15.350  0.00  0.00    +0.000 A 
ATOM      7  C   UNL     1       7.151   4.619  16.595  0.00  0.00    +0.000 A 
ATOM      8  C   UNL     1       6.214   4.760  17.593  0.00  0.00    +0.000 A 
ATOM      9  C   UNL     1       5.079   5.535  17.367  0.00  0.00    +0.000 A 
ATOM     10  C   UNL     1       4.918   6.166  16.129  0.00  0.00    +0.000 A 
ATOM     11  C   UNL     1       5.875   6.024  15.113  0.00  0.00    +0.000 A 
BRANCH   6  12
ATOM     12  O   UNL     1       7.961   5.036  14.360  0.00  0.00    +0.000 OA
BRANCH  12  13
ATOM     13  C   UNL     1       7.482   5.346  13.024  0.00  0.00    +0.000 C 
BRANCH  13  14
ATOM     14  C   UNL     1       7.239   4.065  12.243  0.00  0.00    +0.000 C 
BRANCH  14  15
ATOM     15  C   UNL     1       5.951   3.373  12.692  0.00  0.00    +0.000 C 
BRANCH  15  17
ATOM     16  C   UNL     1       3.938   3.270  11.178  0.00  0.00    +0.000 C 
ATOM     17  C   UNL     1       5.270   2.630  11.541  0.00  0.00    +0.000 C 
ENDBRANCH  15  17
ENDBRANCH  14  15
ENDBRANCH  13  14
ENDBRANCH  12  13
ENDBRANCH   6  12
ENDBRANCH   1   9
BRANCH   4  18
ATOM     18  C   UNL     1       2.257   4.827  21.249  0.00  0.00    +0.000 C 
BRANCH  18  19
ATOM     19  C   UNL     1       1.709   3.383  21.126  0.00  0.00    +0.000 C 
BRANCH  19  20
ATOM     20  N   UNL     1       2.812   2.449  20.790  0.00  0.00    +0.000 NA
ATOM     21  H   UNL     1       2.433   1.536  20.506  0.00  0.00    +0.000 HD
ATOM     22  H   UNL     1       3.365   2.240  21.625  0.00  0.00    +0.000 HD
ENDBRANCH  19  20
BRANCH  19  23
ATOM     23  C   UNL     1       0.581   3.246  20.088  0.00  0.00    +0.000 C 
BRANCH  23  24
ATOM     24  C   UNL     1       1.043   2.697  18.767  0.00  0.00    +0.000 C 
ATOM     25  O   UNL     1       1.260   3.397  17.770  0.00  0.00    +0.000 OA
BRANCH  24  26
ATOM     26  O   UNL     1       1.102   1.360  18.734  0.00  0.00    +0.000 OA
ATOM     27  H   UNL     1       1.194   0.918  19.620  0.00  0.00    +0.000 HD
ENDBRANCH  24  26
ENDBRANCH  23  24
ENDBRANCH  19  23
ENDBRANCH  18  19
ENDBRANCH   4  18
TORSDOF 12
ENDMDL
MODEL 5
REMARK VINA RESULT:      -6.5      4.932      7.266
REMARK  Name = 
REMARK  13 active torsions:
REMARK  status: ('A' for Active; 'I' for Inactive)
REMARK    1  A    between atoms: C_1  and  C_2
REMARK    2  A    between atoms: C_2  and  C_3
REMARK    3  A    between atoms: C_3  and  C_4
REMARK    4  A    between atoms: C_4  and  C_5
REMARK    5  A    between atoms: C_5  and  O_6
REMARK    6  A    between atoms: O_6  and  C_7
REMARK    7  A    between atoms: C_10  and  C_11
REMARK    8  A    between atoms: N_14  and  C_15
REMARK    9  A    between atoms: C_15  and  C_16
REMARK   10  A    between atoms: C_16  and  N_17
REMARK   11  A    between atoms: C_16  and  C_18
REMARK   12  A    between atoms: C_18  and  C_19
REMARK   13  A    between atoms: C_19  and  O_21
REMARK                            x       y       z     vdW  Elec       q    Type
REMARK                         _______ _______ _______ _____ _____    ______ ____
ROOT
ATOM      1  C   UNL     1       2.834   6.431  18.200  0.00  0.00    +0.000 A 
ATOM      2  N   UNL     1       4.119   6.314  17.727  0.00  0.00    +0.000 NA
ATOM      3  N   UNL     1       4.331   5.024  17.484  0.00  0.00    +0.000 NA
ATOM      4  N   UNL     1       3.183   4.422  17.810  0.00  0.00    +0.000 N 
ATOM      5  N   UNL     1       2.208   5.230  18.281  0.00  0.00    +0.000 NA
ENDROOT
BRANCH   1   9
ATOM      6  C   UNL     1       1.084  10.125  19.447  0.00  0.00    +0.000 A 
ATOM      7  C   UNL     1       1.203   9.044  20.314  0.00  0.00    +0.000 A 
ATOM      8  C   UNL     1       1.768   7.849  19.931  0.00  0.00    +0.000 A 
ATOM      9  C   UNL     1       2.239   7.696  18.629  0.00  0.00    +0.000 A 
ATOM     10  C   UNL     1       2.120   8.761  17.730  0.00  0.00    +0.000 A 
ATOM     11  C   UNL     1       1.543   9.978  18.121  0.00  0.00    +0.000 A 
BRANCH   6  12
ATOM     12  O   UNL     1       0.537  11.322  19.876  0.00  0.00    +0.000 OA
BRANCH  12  13
ATOM     13  C   UNL     1      -0.779  11.181  20.475  0.00  0.00    +0.000 C 
BRANCH  13  14
ATOM     14  C   UNL     1      -1.772  12.101  19.781  0.00  0.00    +0.000 C 
BRANCH  14  15
ATOM     15  C   UNL     1      -1.904  11.762  18.296  0.00  0.00    +0.000 C 
BRANCH  15  17
ATOM     16  C   UNL     1      -2.061   9.851  16.659  0.00  0.00    +0.000 C 
ATOM     17  C   UNL     1      -2.354  10.317  18.078  0.00  0.00    +0.000 C 
ENDBRANCH  15  17
ENDBRANCH  14  15
ENDBRANCH  13  14
ENDBRANCH  12  13
ENDBRANCH   6  12
ENDBRANCH   1   9
BRANCH   4  18
ATOM     18  C   UNL     1       2.945   3.004  17.619  0.00  0.00    +0.000 C 
BRANCH  18  19
ATOM     19  C   UNL     1       2.465   2.220  18.867  0.00  0.00    +0.000 C 
BRANCH  19  20
ATOM     20  N   UNL     1       1.009   2.428  19.067  0.00  0.00    +0.000 NA
ATOM     21  H   UNL     1       0.690   1.928  19.908  0.00  0.00    +0.000 HD
ATOM     22  H   UNL     1       0.483   1.995  18.305  0.00  0.00    +0.000 HD
ENDBRANCH  19  20
BRANCH  19  23
ATOM     23  C   UNL     1       3.223   2.598  20.152  0.00  0.00    +0.000 C 
BRANCH  23  24
ATOM     24  C   UNL     1       2.329   3.088  21.256  0.00  0.00    +0.000 C 
ATOM     25  O   UNL     1       1.797   2.345  22.091  0.00  0.00    +0.000 OA
BRANCH  24  26
ATOM     26  O   UNL     1       2.073   4.401  21.196  0.00  0.00    +0.000 OA
ATOM     27  H   UNL     1       2.012   4.861  22.075  0.00  0.00    +0.000 HD
ENDBRANCH  24  26
ENDBRANCH  23  24
ENDBRANCH  19  23
ENDBRANCH  18  19
ENDBRANCH   4  18
TORSDOF 12
ENDMDL
MODEL 6
REMARK VINA RESULT:      -6.4      4.697      6.858
REMARK  Name = 
REMARK  13 active torsions:
REMARK  status: ('A' for Active; 'I' for Inactive)
REMARK    1  A    between atoms: C_1  and  C_2
REMARK    2  A    between atoms: C_2  and  C_3
REMARK    3  A    between atoms: C_3  and  C_4
REMARK    4  A    between atoms: C_4  and  C_5
REMARK    5  A    between atoms: C_5  and  O_6
REMARK    6  A    between atoms: O_6  and  C_7
REMARK    7  A    between atoms: C_10  and  C_11
REMARK    8  A    between atoms: N_14  and  C_15
REMARK    9  A    between atoms: C_15  and  C_16
REMARK   10  A    between atoms: C_16  and  N_17
REMARK   11  A    between atoms: C_16  and  C_18
REMARK   12  A    between atoms: C_18  and  C_19
REMARK   13  A    between atoms: C_19  and  O_21
REMARK                            x       y       z     vdW  Elec       q    Type
REMARK                         _______ _______ _______ _____ _____    ______ ____
ROOT
ATOM      1  C   UNL     1       3.191   6.739  18.293  0.00  0.00    +0.000 A 
ATOM      2  N   UNL     1       4.205   6.820  17.370  0.00  0.00    +0.000 NA
ATOM      3  N   UNL     1       4.810   5.636  17.346  0.00  0.00    +0.000 NA
ATOM      4  N   UNL     1       4.144   4.896  18.237  0.00  0.00    +0.000 N 
ATOM      5  N   UNL     1       3.134   5.518  18.882  0.00  0.00    +0.000 NA
ENDROOT
BRANCH   1   9
ATOM      6  C   UNL     1       0.659  10.020  19.334  0.00  0.00    +0.000 A 
ATOM      7  C   UNL     1       1.197   9.889  18.059  0.00  0.00    +0.000 A 
ATOM      8  C   UNL     1       2.010   8.837  17.704  0.00  0.00    +0.000 A 
ATOM      9  C   UNL     1       2.321   7.860  18.647  0.00  0.00    +0.000 A 
ATOM     10  C   UNL     1       1.806   7.971  19.942  0.00  0.00    +0.000 A 
ATOM     11  C   UNL     1       0.978   9.046  20.303  0.00  0.00    +0.000 A 
BRANCH   6  12
ATOM     12  O   UNL     1      -0.179  11.077  19.646  0.00  0.00    +0.000 OA
BRANCH  12  13
ATOM     13  C   UNL     1      -0.962  11.554  18.520  0.00  0.00    +0.000 C 
BRANCH  13  14
ATOM     14  C   UNL     1      -2.138  10.624  18.266  0.00  0.00    +0.000 C 
BRANCH  14  15
ATOM     15  C   UNL     1      -3.363  11.395  17.771  0.00  0.00    +0.000 C 
BRANCH  15  17
ATOM     16  C   UNL     1      -2.842   9.902  15.808  0.00  0.00    +0.000 C 
ATOM     17  C   UNL     1      -3.777  10.967  16.363  0.00  0.00    +0.000 C 
ENDBRANCH  15  17
ENDBRANCH  14  15
ENDBRANCH  13  14
ENDBRANCH  12  13
ENDBRANCH   6  12
ENDBRANCH   1   9
BRANCH   4  18
ATOM     18  C   UNL     1       4.423   3.491  18.472  0.00  0.00    +0.000 C 
BRANCH  18  19
ATOM     19  C   UNL     1       3.337   2.493  17.992  0.00  0.00    +0.000 C 
BRANCH  19  20
ATOM     20  N   UNL     1       2.499   3.122  16.942  0.00  0.00    +0.000 NA
ATOM     21  H   UNL     1       1.803   2.451  16.591  0.00  0.00    +0.000 HD
ATOM     22  H   UNL     1       3.068   3.344  16.122  0.00  0.00    +0.000 HD
ENDBRANCH  19  20
BRANCH  19  23
ATOM     23  C   UNL     1       2.440   1.977  19.131  0.00  0.00    +0.000 C 
BRANCH  23  24
ATOM     24  C   UNL     1       1.047   2.542  19.101  0.00  0.00    +0.000 C 
ATOM     25  O   UNL     1       0.109   2.026  18.479  0.00  0.00    +0.000 OA
BRANCH  24  26
ATOM     26  O   UNL     1       0.932   3.718  19.731  0.00  0.00    +0.000 OA
ATOM     27  H   UNL     1       0.091   3.841  20.248  0.00  0.00    +0.000 HD
ENDBRANCH  24  26
ENDBRANCH  23  24
ENDBRANCH  19  23
ENDBRANCH  18  19
ENDBRANCH   4  18
TORSDOF 12
ENDMDL
MODEL 7
REMARK VINA RESULT:      -6.4      4.722      6.830
REMARK  Name = 
REMARK  13 active torsions:
REMARK  status: ('A' for Active; 'I' for Inactive)
REMARK    1  A    between atoms: C_1  and  C_2
REMARK    2  A    between atoms: C_2  and  C_3
REMARK    3  A    between atoms: C_3  and  C_4
REMARK    4  A    between atoms: C_4  and  C_5
REMARK    5  A    between atoms: C_5  and  O_6
REMARK    6  A    between atoms: O_6  and  C_7
REMARK    7  A    between atoms: C_10  and  C_11
REMARK    8  A    between atoms: N_14  and  C_15
REMARK    9  A    between atoms: C_15  and  C_16
REMARK   10  A    between atoms: C_16  and  N_17
REMARK   11  A    between atoms: C_16  and  C_18
REMARK   12  A    between atoms: C_18  and  C_19
REMARK   13  A    between atoms: C_19  and  O_21
REMARK                            x       y       z     vdW  Elec       q    Type
REMARK                         _______ _______ _______ _____ _____    ______ ____
ROOT
ATOM      1  C   UNL     1       3.109   6.876  18.296  0.00  0.00    +0.000 A 
ATOM      2  N   UNL     1       4.052   6.938  17.299  0.00  0.00    +0.000 NA
ATOM      3  N   UNL     1       4.664   5.758  17.264  0.00  0.00    +0.000 NA
ATOM      4  N   UNL     1       4.072   5.039  18.222  0.00  0.00    +0.000 N 
ATOM      5  N   UNL     1       3.106   5.673  18.922  0.00  0.00    +0.000 NA
ENDROOT
BRANCH   1   9
ATOM      6  C   UNL     1       0.613  10.161  19.411  0.00  0.00    +0.000 A 
ATOM      7  C   UNL     1       0.938   9.152  20.312  0.00  0.00    +0.000 A 
ATOM      8  C   UNL     1       1.744   8.090  19.972  0.00  0.00    +0.000 A 
ATOM      9  C   UNL     1       2.258   8.001  18.680  0.00  0.00    +0.000 A 
ATOM     10  C   UNL     1       1.937   8.993  17.748  0.00  0.00    +0.000 A 
ATOM     11  C   UNL     1       1.113  10.075  18.095  0.00  0.00    +0.000 A 
BRANCH   6  12
ATOM     12  O   UNL     1      -0.177  11.230  19.797  0.00  0.00    +0.000 OA
BRANCH  12  13
ATOM     13  C   UNL     1      -0.910  11.840  18.701  0.00  0.00    +0.000 C 
BRANCH  13  14
ATOM     14  C   UNL     1      -2.384  11.473  18.787  0.00  0.00    +0.000 C 
BRANCH  14  15
ATOM     15  C   UNL     1      -3.020  11.388  17.399  0.00  0.00    +0.000 C 
BRANCH  15  17
ATOM     16  C   UNL     1      -2.906  10.030  15.278  0.00  0.00    +0.000 C 
ATOM     17  C   UNL     1      -2.896   9.986  16.799  0.00  0.00    +0.000 C 
ENDBRANCH  15  17
ENDBRANCH  14  15
ENDBRANCH  13  14
ENDBRANCH  12  13
ENDBRANCH   6  12
ENDBRANCH   1   9
BRANCH   4  18
ATOM     18  C   UNL     1       4.380   3.643  18.475  0.00  0.00    +0.000 C 
BRANCH  18  19
ATOM     19  C   UNL     1       3.382   2.611  17.891  0.00  0.00    +0.000 C 
BRANCH  19  20
ATOM     20  N   UNL     1       2.477   3.274  16.920  0.00  0.00    +0.000 NA
ATOM     21  H   UNL     1       2.763   4.251  16.775  0.00  0.00    +0.000 HD
ATOM     22  H   UNL     1       1.533   3.346  17.310  0.00  0.00    +0.000 HD
ENDBRANCH  19  20
BRANCH  19  23
ATOM     23  C   UNL     1       2.550   1.891  18.967  0.00  0.00    +0.000 C 
BRANCH  23  24
ATOM     24  C   UNL     1       1.162   2.445  19.123  0.00  0.00    +0.000 C 
ATOM     25  O   UNL     1       0.858   3.320  19.945  0.00  0.00    +0.000 OA
BRANCH  24  26
ATOM     26  O   UNL     1       0.251   1.831  18.357  0.00  0.00    +0.000 OA
ATOM     27  H   UNL     1       0.425   1.871  17.378  0.00  0.00    +0.000 HD
ENDBRANCH  24  26
ENDBRANCH  23  24
ENDBRANCH  19  23
ENDBRANCH  18  19
ENDBRANCH   4  18
TORSDOF 12
ENDMDL
MODEL 8
REMARK VINA RESULT:      -6.3      4.758      8.119
REMARK  Name = 
REMARK  13 active torsions:
REMARK  status: ('A' for Active; 'I' for Inactive)
REMARK    1  A    between atoms: C_1  and  C_2
REMARK    2  A    between atoms: C_2  and  C_3
REMARK    3  A    between atoms: C_3  and  C_4
REMARK    4  A    between atoms: C_4  and  C_5
REMARK    5  A    between atoms: C_5  and  O_6
REMARK    6  A    between atoms: O_6  and  C_7
REMARK    7  A    between atoms: C_10  and  C_11
REMARK    8  A    between atoms: N_14  and  C_15
REMARK    9  A    between atoms: C_15  and  C_16
REMARK   10  A    between atoms: C_16  and  N_17
REMARK   11  A    between atoms: C_16  and  C_18
REMARK   12  A    between atoms: C_18  and  C_19
REMARK   13  A    between atoms: C_19  and  O_21
REMARK                            x       y       z     vdW  Elec       q    Type
REMARK                         _______ _______ _______ _____ _____    ______ ____
ROOT
ATOM      1  C   UNL     1       5.150   4.165  18.774  0.00  0.00    +0.000 A 
ATOM      2  N   UNL     1       5.512   3.309  19.786  0.00  0.00    +0.000 NA
ATOM      3  N   UNL     1       4.555   2.390  19.883  0.00  0.00    +0.000 NA
ATOM      4  N   UNL     1       3.670   2.719  18.938  0.00  0.00    +0.000 N 
ATOM      5  N   UNL     1       3.961   3.824  18.218  0.00  0.00    +0.000 NA
ENDROOT
BRANCH   1   9
ATOM      6  C   UNL     1       7.422   7.606  17.653  0.00  0.00    +0.000 A 
ATOM      7  C   UNL     1       6.182   7.334  17.086  0.00  0.00    +0.000 A 
ATOM      8  C   UNL     1       5.435   6.233  17.437  0.00  0.00    +0.000 A 
ATOM      9  C   UNL     1       5.924   5.345  18.392  0.00  0.00    +0.000 A 
ATOM     10  C   UNL     1       7.175   5.585  18.971  0.00  0.00    +0.000 A 
ATOM     11  C   UNL     1       7.937   6.707  18.610  0.00  0.00    +0.000 A 
BRANCH   6  12
ATOM     12  O   UNL     1       8.133   8.739  17.295  0.00  0.00    +0.000 OA
BRANCH  12  13
ATOM     13  C   UNL     1       8.527   9.563  18.426  0.00  0.00    +0.000 C 
BRANCH  13  14
ATOM     14  C   UNL     1       9.597  10.557  18.003  0.00  0.00    +0.000 C 
BRANCH  14  15
ATOM     15  C   UNL     1       9.216  11.986  18.391  0.00  0.00    +0.000 C 
BRANCH  15  17
ATOM     16  C   UNL     1      11.505  11.746  19.418  0.00  0.00    +0.000 C 
ATOM     17  C   UNL     1      10.316  12.670  19.203  0.00  0.00    +0.000 C 
ENDBRANCH  15  17
ENDBRANCH  14  15
ENDBRANCH  13  14
ENDBRANCH  12  13
ENDBRANCH   6  12
ENDBRANCH   1   9
BRANCH   4  18
ATOM     18  C   UNL     1       2.495   1.923  18.636  0.00  0.00    +0.000 C 
BRANCH  18  19
ATOM     19  C   UNL     1       1.139   2.675  18.658  0.00  0.00    +0.000 C 
BRANCH  19  20
ATOM     20  N   UNL     1       1.247   3.936  17.884  0.00  0.00    +0.000 NA
ATOM     21  H   UNL     1       0.901   3.797  16.925  0.00  0.00    +0.000 HD
ATOM     22  H   UNL     1       2.230   4.191  17.759  0.00  0.00    +0.000 HD
ENDBRANCH  19  20
BRANCH  19  23
ATOM     23  C   UNL     1       0.636   2.982  20.080  0.00  0.00    +0.000 C 
BRANCH  23  24
ATOM     24  C   UNL     1       1.604   3.791  20.898  0.00  0.00    +0.000 C 
ATOM     25  O   UNL     1       2.082   3.410  21.974  0.00  0.00    +0.000 OA
BRANCH  24  26
ATOM     26  O   UNL     1       1.828   5.016  20.405  0.00  0.00    +0.000 OA
ATOM     27  H   UNL     1       1.744   5.097  19.418  0.00  0.00    +0.000 HD
ENDBRANCH  24  26
ENDBRANCH  23  24
ENDBRANCH  19  23
ENDBRANCH  18  19
ENDBRANCH   4  18
TORSDOF 12
ENDMDL
MODEL 9
REMARK VINA RESULT:      -6.3      4.684      6.923
REMARK  Name = 
REMARK  13 active torsions:
REMARK  status: ('A' for Active; 'I' for Inactive)
REMARK    1  A    between atoms: C_1  and  C_2
REMARK    2  A    between atoms: C_2  and  C_3
REMARK    3  A    between atoms: C_3  and  C_4
REMARK    4  A    between atoms: C_4  and  C_5
REMARK    5  A    between atoms: C_5  and  O_6
REMARK    6  A    between atoms: O_6  and  C_7
REMARK    7  A    between atoms: C_10  and  C_11
REMARK    8  A    between atoms: N_14  and  C_15
REMARK    9  A    between atoms: C_15  and  C_16
REMARK   10  A    between atoms: C_16  and  N_17
REMARK   11  A    between atoms: C_16  and  C_18
REMARK   12  A    between atoms: C_18  and  C_19
REMARK   13  A    between atoms: C_19  and  O_21
REMARK                            x       y       z     vdW  Elec       q    Type
REMARK                         _______ _______ _______ _____ _____    ______ ____
ROOT
ATOM      1  C   UNL     1       2.834   6.563  18.237  0.00  0.00    +0.000 A 
ATOM      2  N   UNL     1       4.193   6.363  18.207  0.00  0.00    +0.000 NA
ATOM      3  N   UNL     1       4.398   5.124  17.771  0.00  0.00    +0.000 NA
ATOM      4  N   UNL     1       3.174   4.633  17.554  0.00  0.00    +0.000 N 
ATOM      5  N   UNL     1       2.148   5.463  17.837  0.00  0.00    +0.000 NA
ENDROOT
BRANCH   1   9
ATOM      6  C   UNL     1       0.984  10.161  19.613  0.00  0.00    +0.000 A 
ATOM      7  C   UNL     1       1.136   9.055  20.442  0.00  0.00    +0.000 A 
ATOM      8  C   UNL     1       1.733   7.890  20.018  0.00  0.00    +0.000 A 
ATOM      9  C   UNL     1       2.204   7.795  18.710  0.00  0.00    +0.000 A 
ATOM     10  C   UNL     1       2.054   8.886  17.848  0.00  0.00    +0.000 A 
ATOM     11  C   UNL     1       1.443  10.073  18.282  0.00  0.00    +0.000 A 
BRANCH   6  12
ATOM     12  O   UNL     1       0.404  11.326  20.083  0.00  0.00    +0.000 OA
BRANCH  12  13
ATOM     13  C   UNL     1      -1.049  11.311  20.051  0.00  0.00    +0.000 C 
BRANCH  13  14
ATOM     14  C   UNL     1      -1.553  11.997  18.791  0.00  0.00    +0.000 C 
BRANCH  14  15
ATOM     15  C   UNL     1      -2.660  11.184  18.117  0.00  0.00    +0.000 C 
BRANCH  15  17
ATOM     16  C   UNL     1      -2.618   9.931  15.931  0.00  0.00    +0.000 C 
ATOM     17  C   UNL     1      -2.103   9.977  17.362  0.00  0.00    +0.000 C 
ENDBRANCH  15  17
ENDBRANCH  14  15
ENDBRANCH  13  14
ENDBRANCH  12  13
ENDBRANCH   6  12
ENDBRANCH   1   9
BRANCH   4  18
ATOM     18  C   UNL     1       2.933   3.319  16.986  0.00  0.00    +0.000 C 
BRANCH  18  19
ATOM     19  C   UNL     1       2.405   2.241  17.966  0.00  0.00    +0.000 C 
BRANCH  19  20
ATOM     20  N   UNL     1       1.485   2.860  18.953  0.00  0.00    +0.000 NA
ATOM     21  H   UNL     1       1.640   3.876  18.997  0.00  0.00    +0.000 HD
ATOM     22  H   UNL     1       1.708   2.533  19.896  0.00  0.00    +0.000 HD
ENDBRANCH  19  20
BRANCH  19  23
ATOM     23  C   UNL     1       3.526   1.488  18.704  0.00  0.00    +0.000 C 
BRANCH  23  24
ATOM     24  C   UNL     1       4.095   2.250  19.869  0.00  0.00    +0.000 C 
ATOM     25  O   UNL     1       3.475   2.469  20.917  0.00  0.00    +0.000 OA
BRANCH  24  26
ATOM     26  O   UNL     1       5.309   2.763  19.631  0.00  0.00    +0.000 OA
ATOM     27  H   UNL     1       5.980   2.118  19.279  0.00  0.00    +0.000 HD
ENDBRANCH  24  26
ENDBRANCH  23  24
ENDBRANCH  19  23
ENDBRANCH  18  19
ENDBRANCH   4  18
TORSDOF 12
ENDMDL
