MODEL 1
REMARK VINA RESULT:      -8.3      0.000      0.000
REMARK  Name = 
REMARK  7 active torsions:
REMARK  status: ('A' for Active; 'I' for Inactive)
REMARK    1  A    between atoms: C_1  and  C_2
REMARK    2  A    between atoms: N_10  and  C_11
REMARK    3  A    between atoms: C_15  and  C_16
REMARK    4  A    between atoms: N_18  and  C_19
REMARK    5  A    between atoms: N_18  and  C_20
REMARK    6  A    between atoms: N_23  and  C_24
REMARK    7  A    between atoms: C_24  and  C_25
REMARK                            x       y       z     vdW  Elec       q    Type
REMARK                         _______ _______ _______ _____ _____    ______ ____
ROOT
ATOM      1  C   UNL     1       6.730   4.120  15.876  0.00  0.00    +0.000 C 
ATOM      2  C   UNL     1       5.921   5.395  15.856  0.00  0.00    +0.000 C 
ATOM      3  O   UNL     1       5.533   5.857  14.782  0.00  0.00    +0.000 OA
ATOM      4  N   UNL     1       5.610   5.982  17.070  0.00  0.00    +0.000 N 
ATOM      5  C   UNL     1       6.046   5.478  18.388  0.00  0.00    +0.000 C 
ATOM      6  C   UNL     1       4.866   4.841  19.144  0.00  0.00    +0.000 C 
ATOM      7  C   UNL     1       3.714   5.776  19.057  0.00  0.00    +0.000 A 
ATOM      8  C   UNL     1       3.585   6.799  18.129  0.00  0.00    +0.000 A 
ATOM      9  C   UNL     1       2.371   7.450  18.484  0.00  0.00    +0.000 A 
ATOM     10  N   UNL     1       1.879   8.537  17.837  0.00  0.00    +0.000 N 
ATOM     11  N   UNL     1       1.813   6.862  19.551  0.00  0.00    +0.000 NA
ATOM     12  N   UNL     1       2.605   5.819  19.842  0.00  0.00    +0.000 N 
ATOM     13  C   UNL     1       4.631   7.095  17.098  0.00  0.00    +0.000 C 
ATOM     14  H   UNL     1       2.251   8.750  16.916  0.00  0.00    +0.000 HD
ENDROOT
BRANCH  10  15
ATOM     15  C   UNL     1       1.057   9.587  18.323  0.00  0.00    +0.000 A 
ATOM     16  C   UNL     1      -0.253   9.711  17.836  0.00  0.00    +0.000 A 
ATOM     17  C   UNL     1      -1.075  10.762  18.246  0.00  0.00    +0.000 A 
ATOM     18  C   UNL     1      -0.585  11.728  19.123  0.00  0.00    +0.000 A 
ATOM     19  C   UNL     1       0.716  11.628  19.633  0.00  0.00    +0.000 A 
ATOM     20  C   UNL     1       1.486  10.511  19.291  0.00  0.00    +0.000 A 
BRANCH  19  21
ATOM     21  C   UNL     1       1.178  12.716  20.549  0.00  0.00    +0.000 C 
ATOM     22  O   UNL     1       0.721  12.695  21.695  0.00  0.00    +0.000 OA
ATOM     23  N   UNL     1       2.030  13.745  20.122  0.00  0.00    +0.000 N 
ATOM     24  C   UNL     1       2.670  13.864  18.820  0.00  0.00    +0.000 C 
ATOM     25  C   UNL     1       2.427  14.751  21.096  0.00  0.00    +0.000 C 
ENDBRANCH  19  21
ENDBRANCH  10  15
BRANCH  12  26
ATOM     26  C   UNL     1       2.278   4.965  20.977  0.00  0.00    +0.000 C 
BRANCH  26  27
ATOM     27  C   UNL     1       1.182   3.980  20.693  0.00  0.00    +0.000 C 
ATOM     28  C   UNL     1       1.134   3.155  19.429  0.00  0.00    +0.000 C 
ATOM     29  C   UNL     1       1.496   2.503  20.733  0.00  0.00    +0.000 C 
ENDBRANCH  26  27
ENDBRANCH  12  26
TORSDOF 4
ENDMDL
MODEL 2
REMARK VINA RESULT:      -8.1      1.657      2.045
REMARK  Name = 
REMARK  7 active torsions:
REMARK  status: ('A' for Active; 'I' for Inactive)
REMARK    1  A    between atoms: C_1  and  C_2
REMARK    2  A    between atoms: N_10  and  C_11
REMARK    3  A    between atoms: C_15  and  C_16
REMARK    4  A    between atoms: N_18  and  C_19
REMARK    5  A    between atoms: N_18  and  C_20
REMARK    6  A    between atoms: N_23  and  C_24
REMARK    7  A    between atoms: C_24  and  C_25
REMARK                            x       y       z     vdW  Elec       q    Type
REMARK                         _______ _______ _______ _____ _____    ______ ____
ROOT
ATOM      1  C   UNL     1       6.403   4.346  15.391  0.00  0.00    +0.000 C 
ATOM      2  C   UNL     1       5.690   5.576  15.900  0.00  0.00    +0.000 C 
ATOM      3  O   UNL     1       5.247   6.402  15.101  0.00  0.00    +0.000 OA
ATOM      4  N   UNL     1       5.526   5.708  17.268  0.00  0.00    +0.000 N 
ATOM      5  C   UNL     1       6.035   4.755  18.275  0.00  0.00    +0.000 C 
ATOM      6  C   UNL     1       4.880   3.938  18.882  0.00  0.00    +0.000 C 
ATOM      7  C   UNL     1       3.796   4.887  19.247  0.00  0.00    +0.000 A 
ATOM      8  C   UNL     1       3.663   6.176  18.752  0.00  0.00    +0.000 A 
ATOM      9  C   UNL     1       2.535   6.706  19.436  0.00  0.00    +0.000 A 
ATOM     10  N   UNL     1       2.070   7.969  19.262  0.00  0.00    +0.000 N 
ATOM     11  N   UNL     1       2.028   5.801  20.285  0.00  0.00    +0.000 NA
ATOM     12  N   UNL     1       2.764   4.692  20.110  0.00  0.00    +0.000 N 
ATOM     13  C   UNL     1       4.637   6.777  17.784  0.00  0.00    +0.000 C 
ATOM     14  H   UNL     1       2.377   8.479  18.439  0.00  0.00    +0.000 HD
ENDROOT
BRANCH  10  15
ATOM     15  C   UNL     1       1.371   8.811  20.166  0.00  0.00    +0.000 A 
ATOM     16  C   UNL     1       1.258   8.426  21.511  0.00  0.00    +0.000 A 
ATOM     17  C   UNL     1       0.532   9.196  22.421  0.00  0.00    +0.000 A 
ATOM     18  C   UNL     1      -0.124  10.348  21.990  0.00  0.00    +0.000 A 
ATOM     19  C   UNL     1      -0.024  10.764  20.655  0.00  0.00    +0.000 A 
ATOM     20  C   UNL     1       0.793  10.034  19.785  0.00  0.00    +0.000 A 
BRANCH  19  21
ATOM     21  C   UNL     1      -0.777  11.996  20.263  0.00  0.00    +0.000 C 
ATOM     22  O   UNL     1      -1.941  11.828  19.892  0.00  0.00    +0.000 OA
ATOM     23  N   UNL     1      -0.182  13.266  20.250  0.00  0.00    +0.000 N 
ATOM     24  C   UNL     1       1.159  13.607  20.701  0.00  0.00    +0.000 C 
ATOM     25  C   UNL     1      -1.006  14.401  19.861  0.00  0.00    +0.000 C 
ENDBRANCH  19  21
ENDBRANCH  10  15
BRANCH  12  26
ATOM     26  C   UNL     1       2.473   3.507  20.905  0.00  0.00    +0.000 C 
BRANCH  26  27
ATOM     27  C   UNL     1       1.419   2.623  20.305  0.00  0.00    +0.000 C 
ATOM     28  C   UNL     1       0.805   2.889  18.951  0.00  0.00    +0.000 C 
ATOM     29  C   UNL     1       1.778   1.757  19.119  0.00  0.00    +0.000 C 
ENDBRANCH  26  27
ENDBRANCH  12  26
TORSDOF 4
ENDMDL
MODEL 3
REMARK VINA RESULT:      -8.1      1.661      2.074
REMARK  Name = 
REMARK  7 active torsions:
REMARK  status: ('A' for Active; 'I' for Inactive)
REMARK    1  A    between atoms: C_1  and  C_2
REMARK    2  A    between atoms: N_10  and  C_11
REMARK    3  A    between atoms: C_15  and  C_16
REMARK    4  A    between atoms: N_18  and  C_19
REMARK    5  A    between atoms: N_18  and  C_20
REMARK    6  A    between atoms: N_23  and  C_24
REMARK    7  A    between atoms: C_24  and  C_25
REMARK                            x       y       z     vdW  Elec       q    Type
REMARK                         _______ _______ _______ _____ _____    ______ ____
ROOT
ATOM      1  C   UNL     1       6.318   4.656  15.477  0.00  0.00    +0.000 C 
ATOM      2  C   UNL     1       5.570   5.854  16.012  0.00  0.00    +0.000 C 
ATOM      3  O   UNL     1       5.097   6.680  15.229  0.00  0.00    +0.000 OA
ATOM      4  N   UNL     1       5.408   5.956  17.382  0.00  0.00    +0.000 N 
ATOM      5  C   UNL     1       5.952   5.002  18.370  0.00  0.00    +0.000 C 
ATOM      6  C   UNL     1       4.825   4.138  18.967  0.00  0.00    +0.000 C 
ATOM      7  C   UNL     1       3.714   5.046  19.353  0.00  0.00    +0.000 A 
ATOM      8  C   UNL     1       3.539   6.339  18.882  0.00  0.00    +0.000 A 
ATOM      9  C   UNL     1       2.397   6.821  19.580  0.00  0.00    +0.000 A 
ATOM     10  N   UNL     1       1.892   8.071  19.431  0.00  0.00    +0.000 N 
ATOM     11  N   UNL     1       1.923   5.885  20.414  0.00  0.00    +0.000 NA
ATOM     12  N   UNL     1       2.692   4.804  20.216  0.00  0.00    +0.000 N 
ATOM     13  C   UNL     1       4.488   6.987  17.921  0.00  0.00    +0.000 C 
ATOM     14  H   UNL     1       2.179   8.605  18.616  0.00  0.00    +0.000 HD
ENDROOT
BRANCH  10  15
ATOM     15  C   UNL     1       1.171   8.875  20.353  0.00  0.00    +0.000 A 
ATOM     16  C   UNL     1       0.480   8.255  21.405  0.00  0.00    +0.000 A 
ATOM     17  C   UNL     1      -0.286   9.002  22.300  0.00  0.00    +0.000 A 
ATOM     18  C   UNL     1      -0.402  10.382  22.134  0.00  0.00    +0.000 A 
ATOM     19  C   UNL     1       0.282  11.031  21.099  0.00  0.00    +0.000 A 
ATOM     20  C   UNL     1       1.127  10.277  20.276  0.00  0.00    +0.000 A 
BRANCH  19  21
ATOM     21  C   UNL     1       0.087  12.509  20.970  0.00  0.00    +0.000 C 
ATOM     22  O   UNL     1       0.826  13.218  21.658  0.00  0.00    +0.000 OA
ATOM     23  N   UNL     1      -0.919  13.066  20.168  0.00  0.00    +0.000 N 
ATOM     24  C   UNL     1      -1.824  12.351  19.281  0.00  0.00    +0.000 C 
ATOM     25  C   UNL     1      -1.017  14.517  20.106  0.00  0.00    +0.000 C 
ENDBRANCH  19  21
ENDBRANCH  10  15
BRANCH  12  26
ATOM     26  C   UNL     1       2.442   3.595  20.991  0.00  0.00    +0.000 C 
BRANCH  26  27
ATOM     27  C   UNL     1       1.395   2.702  20.393  0.00  0.00    +0.000 C 
ATOM     28  C   UNL     1       0.834   2.918  19.008  0.00  0.00    +0.000 C 
ATOM     29  C   UNL     1       1.780   1.779  19.261  0.00  0.00    +0.000 C 
ENDBRANCH  26  27
ENDBRANCH  12  26
TORSDOF 4
ENDMDL
MODEL 4
REMARK VINA RESULT:      -7.8      1.618      2.185
REMARK  Name = 
REMARK  7 active torsions:
REMARK  status: ('A' for Active; 'I' for Inactive)
REMARK    1  A    between atoms: C_1  and  C_2
REMARK    2  A    between atoms: N_10  and  C_11
REMARK    3  A    between atoms: C_15  and  C_16
REMARK    4  A    between atoms: N_18  and  C_19
REMARK    5  A    between atoms: N_18  and  C_20
REMARK    6  A    between atoms: N_23  and  C_24
REMARK    7  A    between atoms: C_24  and  C_25
REMARK                            x       y       z     vdW  Elec       q    Type
REMARK                         _______ _______ _______ _____ _____    ______ ____
ROOT
ATOM      1  C   UNL     1       6.291   3.568  15.442  0.00  0.00    +0.000 C 
ATOM      2  C   UNL     1       5.759   4.980  15.491  0.00  0.00    +0.000 C 
ATOM      3  O   UNL     1       5.442   5.552  14.447  0.00  0.00    +0.000 OA
ATOM      4  N   UNL     1       5.610   5.572  16.734  0.00  0.00    +0.000 N 
ATOM      5  C   UNL     1       5.973   4.940  18.018  0.00  0.00    +0.000 C 
ATOM      6  C   UNL     1       4.711   4.528  18.797  0.00  0.00    +0.000 C 
ATOM      7  C   UNL     1       3.772   5.679  18.781  0.00  0.00    +0.000 A 
ATOM      8  C   UNL     1       3.826   6.742  17.891  0.00  0.00    +0.000 A 
ATOM      9  C   UNL     1       2.782   7.612  18.310  0.00  0.00    +0.000 A 
ATOM     10  N   UNL     1       2.502   8.799  17.716  0.00  0.00    +0.000 N 
ATOM     11  N   UNL     1       2.147   7.109  19.379  0.00  0.00    +0.000 NA
ATOM     12  N   UNL     1       2.719   5.916  19.608  0.00  0.00    +0.000 N 
ATOM     13  C   UNL     1       4.879   6.859  16.832  0.00  0.00    +0.000 C 
ATOM     14  H   UNL     1       2.882   8.967  16.789  0.00  0.00    +0.000 HD
ENDROOT
BRANCH  10  15
ATOM     15  C   UNL     1       1.927   9.975  18.264  0.00  0.00    +0.000 A 
ATOM     16  C   UNL     1       2.363  11.227  17.807  0.00  0.00    +0.000 A 
ATOM     17  C   UNL     1       1.864  12.408  18.358  0.00  0.00    +0.000 A 
ATOM     18  C   UNL     1       0.945  12.353  19.404  0.00  0.00    +0.000 A 
ATOM     19  C   UNL     1       0.482  11.118  19.878  0.00  0.00    +0.000 A 
ATOM     20  C   UNL     1       0.917   9.951  19.241  0.00  0.00    +0.000 A 
BRANCH  19  21
ATOM     21  C   UNL     1      -0.485  11.141  21.019  0.00  0.00    +0.000 C 
ATOM     22  O   UNL     1      -1.470  11.871  20.884  0.00  0.00    +0.000 OA
ATOM     23  N   UNL     1      -0.261  10.430  22.206  0.00  0.00    +0.000 N 
ATOM     24  C   UNL     1       0.831   9.506  22.478  0.00  0.00    +0.000 C 
ATOM     25  C   UNL     1      -1.270  10.512  23.252  0.00  0.00    +0.000 C 
ENDBRANCH  19  21
ENDBRANCH  10  15
BRANCH  12  26
ATOM     26  C   UNL     1       2.258   5.105  20.727  0.00  0.00    +0.000 C 
BRANCH  26  27
ATOM     27  C   UNL     1       1.168   4.140  20.363  0.00  0.00    +0.000 C 
ATOM     28  C   UNL     1       1.137   3.405  19.044  0.00  0.00    +0.000 C 
ATOM     29  C   UNL     1       1.485   2.665  20.304  0.00  0.00    +0.000 C 
ENDBRANCH  26  27
ENDBRANCH  12  26
TORSDOF 4
ENDMDL
MODEL 5
REMARK VINA RESULT:      -7.8      0.925      1.220
REMARK  Name = 
REMARK  7 active torsions:
REMARK  status: ('A' for Active; 'I' for Inactive)
REMARK    1  A    between atoms: C_1  and  C_2
REMARK    2  A    between atoms: N_10  and  C_11
REMARK    3  A    between atoms: C_15  and  C_16
REMARK    4  A    between atoms: N_18  and  C_19
REMARK    5  A    between atoms: N_18  and  C_20
REMARK    6  A    between atoms: N_23  and  C_24
REMARK    7  A    between atoms: C_24  and  C_25
REMARK                            x       y       z     vdW  Elec       q    Type
REMARK                         _______ _______ _______ _____ _____    ______ ____
ROOT
ATOM      1  C   UNL     1       7.047   4.205  16.107  0.00  0.00    +0.000 C 
ATOM      2  C   UNL     1       6.210   5.457  15.994  0.00  0.00    +0.000 C 
ATOM      3  O   UNL     1       5.871   5.868  14.884  0.00  0.00    +0.000 OA
ATOM      4  N   UNL     1       5.817   6.080  17.166  0.00  0.00    +0.000 N 
ATOM      5  C   UNL     1       6.192   5.637  18.524  0.00  0.00    +0.000 C 
ATOM      6  C   UNL     1       4.988   4.998  19.239  0.00  0.00    +0.000 C 
ATOM      7  C   UNL     1       3.820   5.897  19.053  0.00  0.00    +0.000 A 
ATOM      8  C   UNL     1       3.717   6.882  18.081  0.00  0.00    +0.000 A 
ATOM      9  C   UNL     1       2.470   7.513  18.344  0.00  0.00    +0.000 A 
ATOM     10  N   UNL     1       1.988   8.561  17.629  0.00  0.00    +0.000 N 
ATOM     11  N   UNL     1       1.868   6.951  19.401  0.00  0.00    +0.000 NA
ATOM     12  N   UNL     1       2.668   5.940  19.775  0.00  0.00    +0.000 N 
ATOM     13  C   UNL     1       4.811   7.167  17.098  0.00  0.00    +0.000 C 
ATOM     14  H   UNL     1       2.405   8.750  16.723  0.00  0.00    +0.000 HD
ENDROOT
BRANCH  10  15
ATOM     15  C   UNL     1       1.115   9.607  18.029  0.00  0.00    +0.000 A 
ATOM     16  C   UNL     1      -0.260   9.481  17.783  0.00  0.00    +0.000 A 
ATOM     17  C   UNL     1      -1.146  10.509  18.109  0.00  0.00    +0.000 A 
ATOM     18  C   UNL     1      -0.663  11.697  18.655  0.00  0.00    +0.000 A 
ATOM     19  C   UNL     1       0.704  11.851  18.921  0.00  0.00    +0.000 A 
ATOM     20  C   UNL     1       1.559  10.769  18.682  0.00  0.00    +0.000 A 
BRANCH  19  21
ATOM     21  C   UNL     1       1.149  13.163  19.483  0.00  0.00    +0.000 C 
ATOM     22  O   UNL     1       1.841  13.867  18.742  0.00  0.00    +0.000 OA
ATOM     23  N   UNL     1       0.861  13.553  20.799  0.00  0.00    +0.000 N 
ATOM     24  C   UNL     1       0.026  12.841  21.757  0.00  0.00    +0.000 C 
ATOM     25  C   UNL     1       1.333  14.855  21.244  0.00  0.00    +0.000 C 
ENDBRANCH  19  21
ENDBRANCH  10  15
BRANCH  12  26
ATOM     26  C   UNL     1       2.300   5.121  20.922  0.00  0.00    +0.000 C 
BRANCH  26  27
ATOM     27  C   UNL     1       2.168   3.661  20.602  0.00  0.00    +0.000 C 
ATOM     28  C   UNL     1       1.518   2.675  21.543  0.00  0.00    +0.000 C 
ATOM     29  C   UNL     1       0.800   3.099  20.293  0.00  0.00    +0.000 C 
ENDBRANCH  26  27
ENDBRANCH  12  26
TORSDOF 4
ENDMDL
MODEL 6
REMARK VINA RESULT:      -7.7      1.879      2.814
REMARK  Name = 
REMARK  7 active torsions:
REMARK  status: ('A' for Active; 'I' for Inactive)
REMARK    1  A    between atoms: C_1  and  C_2
REMARK    2  A    between atoms: N_10  and  C_11
REMARK    3  A    between atoms: C_15  and  C_16
REMARK    4  A    between atoms: N_18  and  C_19
REMARK    5  A    between atoms: N_18  and  C_20
REMARK    6  A    between atoms: N_23  and  C_24
REMARK    7  A    between atoms: C_24  and  C_25
REMARK                            x       y       z     vdW  Elec       q    Type
REMARK                         _______ _______ _______ _____ _____    ______ ____
ROOT
ATOM      1  C   UNL     1       6.709   4.077  15.855  0.00  0.00    +0.000 C 
ATOM      2  C   UNL     1       5.916   5.361  15.801  0.00  0.00    +0.000 C 
ATOM      3  O   UNL     1       5.538   5.802  14.714  0.00  0.00    +0.000 OA
ATOM      4  N   UNL     1       5.608   5.981  16.999  0.00  0.00    +0.000 N 
ATOM      5  C   UNL     1       6.033   5.503  18.331  0.00  0.00    +0.000 C 
ATOM      6  C   UNL     1       4.841   4.901  19.097  0.00  0.00    +0.000 C 
ATOM      7  C   UNL     1       3.702   5.847  18.982  0.00  0.00    +0.000 A 
ATOM      8  C   UNL     1       3.589   6.849  18.030  0.00  0.00    +0.000 A 
ATOM      9  C   UNL     1       2.382   7.525  18.364  0.00  0.00    +0.000 A 
ATOM     10  N   UNL     1       1.907   8.601  17.688  0.00  0.00    +0.000 N 
ATOM     11  N   UNL     1       1.813   6.970  19.443  0.00  0.00    +0.000 NA
ATOM     12  N   UNL     1       2.590   5.923  19.762  0.00  0.00    +0.000 N 
ATOM     13  C   UNL     1       4.643   7.107  16.996  0.00  0.00    +0.000 C 
ATOM     14  H   UNL     1       2.285   8.787  16.764  0.00  0.00    +0.000 HD
ENDROOT
BRANCH  10  15
ATOM     15  C   UNL     1       1.097   9.673  18.145  0.00  0.00    +0.000 A 
ATOM     16  C   UNL     1       1.671  10.670  18.948  0.00  0.00    +0.000 A 
ATOM     17  C   UNL     1       0.898  11.711  19.465  0.00  0.00    +0.000 A 
ATOM     18  C   UNL     1      -0.472  11.750  19.215  0.00  0.00    +0.000 A 
ATOM     19  C   UNL     1      -1.075  10.775  18.410  0.00  0.00    +0.000 A 
ATOM     20  C   UNL     1      -0.264   9.800  17.818  0.00  0.00    +0.000 A 
BRANCH  19  21
ATOM     21  C   UNL     1      -2.554  10.870  18.208  0.00  0.00    +0.000 C 
ATOM     22  O   UNL     1      -3.029  10.161  17.317  0.00  0.00    +0.000 OA
ATOM     23  N   UNL     1      -3.355  11.761  18.938  0.00  0.00    +0.000 N 
ATOM     24  C   UNL     1      -2.931  12.616  20.037  0.00  0.00    +0.000 C 
ATOM     25  C   UNL     1      -4.785  11.768  18.670  0.00  0.00    +0.000 C 
ENDBRANCH  19  21
ENDBRANCH  10  15
BRANCH  12  26
ATOM     26  C   UNL     1       2.248   5.102  20.916  0.00  0.00    +0.000 C 
BRANCH  26  27
ATOM     27  C   UNL     1       1.139   4.126  20.652  0.00  0.00    +0.000 C 
ATOM     28  C   UNL     1       1.030   3.343  19.365  0.00  0.00    +0.000 C 
ATOM     29  C   UNL     1       1.453   2.649  20.628  0.00  0.00    +0.000 C 
ENDBRANCH  26  27
ENDBRANCH  12  26
TORSDOF 4
ENDMDL
MODEL 7
REMARK VINA RESULT:      -7.7      1.569      1.930
REMARK  Name = 
REMARK  7 active torsions:
REMARK  status: ('A' for Active; 'I' for Inactive)
REMARK    1  A    between atoms: C_1  and  C_2
REMARK    2  A    between atoms: N_10  and  C_11
REMARK    3  A    between atoms: C_15  and  C_16
REMARK    4  A    between atoms: N_18  and  C_19
REMARK    5  A    between atoms: N_18  and  C_20
REMARK    6  A    between atoms: N_23  and  C_24
REMARK    7  A    between atoms: C_24  and  C_25
REMARK                            x       y       z     vdW  Elec       q    Type
REMARK                         _______ _______ _______ _____ _____    ______ ____
ROOT
ATOM      1  C   UNL     1       6.449   3.955  14.636  0.00  0.00    +0.000 C 
ATOM      2  C   UNL     1       5.912   5.245  15.209  0.00  0.00    +0.000 C 
ATOM      3  O   UNL     1       5.789   6.233  14.484  0.00  0.00    +0.000 OA
ATOM      4  N   UNL     1       5.536   5.252  16.541  0.00  0.00    +0.000 N 
ATOM      5  C   UNL     1       5.660   4.102  17.460  0.00  0.00    +0.000 C 
ATOM      6  C   UNL     1       4.277   3.494  17.758  0.00  0.00    +0.000 C 
ATOM      7  C   UNL     1       3.353   4.608  18.092  0.00  0.00    +0.000 A 
ATOM      8  C   UNL     1       3.566   5.943  17.780  0.00  0.00    +0.000 A 
ATOM      9  C   UNL     1       2.459   6.625  18.357  0.00  0.00    +0.000 A 
ATOM     10  N   UNL     1       2.289   7.970  18.305  0.00  0.00    +0.000 N 
ATOM     11  N   UNL     1       1.642   5.761  18.975  0.00  0.00    +0.000 NA
ATOM     12  N   UNL     1       2.165   4.546  18.750  0.00  0.00    +0.000 N 
ATOM     13  C   UNL     1       4.795   6.423  17.070  0.00  0.00    +0.000 C 
ATOM     14  H   UNL     1       2.832   8.491  17.623  0.00  0.00    +0.000 HD
ENDROOT
BRANCH  10  15
ATOM     15  C   UNL     1       1.619   8.835  19.209  0.00  0.00    +0.000 A 
ATOM     16  C   UNL     1       1.404   8.412  20.528  0.00  0.00    +0.000 A 
ATOM     17  C   UNL     1       0.701   9.208  21.434  0.00  0.00    +0.000 A 
ATOM     18  C   UNL     1       0.168  10.428  21.020  0.00  0.00    +0.000 A 
ATOM     19  C   UNL     1       0.373  10.883  19.710  0.00  0.00    +0.000 A 
ATOM     20  C   UNL     1       1.169  10.117  18.851  0.00  0.00    +0.000 A 
BRANCH  19  21
ATOM     21  C   UNL     1      -0.251  12.190  19.334  0.00  0.00    +0.000 C 
ATOM     22  O   UNL     1      -1.402  12.137  18.895  0.00  0.00    +0.000 OA
ATOM     23  N   UNL     1       0.447  13.404  19.408  0.00  0.00    +0.000 N 
ATOM     24  C   UNL     1       1.785  13.609  19.944  0.00  0.00    +0.000 C 
ATOM     25  C   UNL     1      -0.255  14.620  19.027  0.00  0.00    +0.000 C 
ENDBRANCH  19  21
ENDBRANCH  10  15
BRANCH  12  26
ATOM     26  C   UNL     1       1.510   3.370  19.307  0.00  0.00    +0.000 C 
BRANCH  26  27
ATOM     27  C   UNL     1       1.160   3.507  20.760  0.00  0.00    +0.000 C 
ATOM     28  C   UNL     1       1.370   2.393  21.758  0.00  0.00    +0.000 C 
ATOM     29  C   UNL     1       2.274   3.592  21.777  0.00  0.00    +0.000 C 
ENDBRANCH  26  27
ENDBRANCH  12  26
TORSDOF 4
ENDMDL
MODEL 8
REMARK VINA RESULT:      -7.6      2.078      2.643
REMARK  Name = 
REMARK  7 active torsions:
REMARK  status: ('A' for Active; 'I' for Inactive)
REMARK    1  A    between atoms: C_1  and  C_2
REMARK    2  A    between atoms: N_10  and  C_11
REMARK    3  A    between atoms: C_15  and  C_16
REMARK    4  A    between atoms: N_18  and  C_19
REMARK    5  A    between atoms: N_18  and  C_20
REMARK    6  A    between atoms: N_23  and  C_24
REMARK    7  A    between atoms: C_24  and  C_25
REMARK                            x       y       z     vdW  Elec       q    Type
REMARK                         _______ _______ _______ _____ _____    ______ ____
ROOT
ATOM      1  C   UNL     1       6.377   4.549  15.490  0.00  0.00    +0.000 C 
ATOM      2  C   UNL     1       5.633   5.759  16.003  0.00  0.00    +0.000 C 
ATOM      3  O   UNL     1       5.181   6.583  15.206  0.00  0.00    +0.000 OA
ATOM      4  N   UNL     1       5.453   5.875  17.370  0.00  0.00    +0.000 N 
ATOM      5  C   UNL     1       5.972   4.924  18.374  0.00  0.00    +0.000 C 
ATOM      6  C   UNL     1       4.828   4.078  18.962  0.00  0.00    +0.000 C 
ATOM      7  C   UNL     1       3.721   5.000  19.324  0.00  0.00    +0.000 A 
ATOM      8  C   UNL     1       3.566   6.290  18.838  0.00  0.00    +0.000 A 
ATOM      9  C   UNL     1       2.419   6.791  19.516  0.00  0.00    +0.000 A 
ATOM     10  N   UNL     1       1.929   8.045  19.348  0.00  0.00    +0.000 N 
ATOM     11  N   UNL     1       1.923   5.868  20.351  0.00  0.00    +0.000 NA
ATOM     12  N   UNL     1       2.684   4.776  20.174  0.00  0.00    +0.000 N 
ATOM     13  C   UNL     1       4.536   6.921  17.886  0.00  0.00    +0.000 C 
ATOM     14  H   UNL     1       2.234   8.569  18.533  0.00  0.00    +0.000 HD
ENDROOT
BRANCH  10  15
ATOM     15  C   UNL     1       1.204   8.864  20.252  0.00  0.00    +0.000 A 
ATOM     16  C   UNL     1       1.304   8.617  21.629  0.00  0.00    +0.000 A 
ATOM     17  C   UNL     1       0.565   9.362  22.549  0.00  0.00    +0.000 A 
ATOM     18  C   UNL     1      -0.317  10.344  22.101  0.00  0.00    +0.000 A 
ATOM     19  C   UNL     1      -0.434  10.621  20.732  0.00  0.00    +0.000 A 
ATOM     20  C   UNL     1       0.393   9.933  19.837  0.00  0.00    +0.000 A 
BRANCH  19  21
ATOM     21  C   UNL     1      -1.419  11.671  20.327  0.00  0.00    +0.000 C 
ATOM     22  O   UNL     1      -1.495  11.910  19.119  0.00  0.00    +0.000 OA
ATOM     23  N   UNL     1      -2.171  12.396  21.263  0.00  0.00    +0.000 N 
ATOM     24  C   UNL     1      -2.208  12.186  22.704  0.00  0.00    +0.000 C 
ATOM     25  C   UNL     1      -3.109  13.389  20.763  0.00  0.00    +0.000 C 
ENDBRANCH  19  21
ENDBRANCH  10  15
BRANCH  12  26
ATOM     26  C   UNL     1       2.410   3.578  20.956  0.00  0.00    +0.000 C 
BRANCH  26  27
ATOM     27  C   UNL     1       1.397   2.667  20.327  0.00  0.00    +0.000 C 
ATOM     28  C   UNL     1       0.873   2.874  18.926  0.00  0.00    +0.000 C 
ATOM     29  C   UNL     1       1.830   1.752  19.207  0.00  0.00    +0.000 C 
ENDBRANCH  26  27
ENDBRANCH  12  26
TORSDOF 4
ENDMDL
MODEL 9
REMARK VINA RESULT:      -7.5      1.600      2.730
REMARK  Name = 
REMARK  7 active torsions:
REMARK  status: ('A' for Active; 'I' for Inactive)
REMARK    1  A    between atoms: C_1  and  C_2
REMARK    2  A    between atoms: N_10  and  C_11
REMARK    3  A    between atoms: C_15  and  C_16
REMARK    4  A    between atoms: N_18  and  C_19
REMARK    5  A    between atoms: N_18  and  C_20
REMARK    6  A    between atoms: N_23  and  C_24
REMARK    7  A    between atoms: C_24  and  C_25
REMARK                            x       y       z     vdW  Elec       q    Type
REMARK                         _______ _______ _______ _____ _____    ______ ____
ROOT
ATOM      1  C   UNL     1       6.391   3.762  15.737  0.00  0.00    +0.000 C 
ATOM      2  C   UNL     1       5.769   5.137  15.674  0.00  0.00    +0.000 C 
ATOM      3  O   UNL     1       5.447   5.614  14.585  0.00  0.00    +0.000 OA
ATOM      4  N   UNL     1       5.546   5.800  16.868  0.00  0.00    +0.000 N 
ATOM      5  C   UNL     1       5.911   5.283  18.202  0.00  0.00    +0.000 C 
ATOM      6  C   UNL     1       4.655   4.842  18.976  0.00  0.00    +0.000 C 
ATOM      7  C   UNL     1       3.645   5.926  18.856  0.00  0.00    +0.000 A 
ATOM      8  C   UNL     1       3.658   6.927  17.896  0.00  0.00    +0.000 A 
ATOM      9  C   UNL     1       2.548   7.753  18.227  0.00  0.00    +0.000 A 
ATOM     10  N   UNL     1       2.211   8.876  17.544  0.00  0.00    +0.000 N 
ATOM     11  N   UNL     1       1.916   7.283  19.312  0.00  0.00    +0.000 NA
ATOM     12  N   UNL     1       2.555   6.149  19.637  0.00  0.00    +0.000 N 
ATOM     13  C   UNL     1       4.732   7.040  16.858  0.00  0.00    +0.000 C 
ATOM     14  H   UNL     1       2.607   9.005  16.618  0.00  0.00    +0.000 HD
ENDROOT
BRANCH  10  15
ATOM     15  C   UNL     1       1.546  10.046  17.994  0.00  0.00    +0.000 A 
ATOM     16  C   UNL     1       2.307  11.151  18.401  0.00  0.00    +0.000 A 
ATOM     17  C   UNL     1       1.695  12.301  18.903  0.00  0.00    +0.000 A 
ATOM     18  C   UNL     1       0.309  12.347  19.040  0.00  0.00    +0.000 A 
ATOM     19  C   UNL     1      -0.481  11.263  18.635  0.00  0.00    +0.000 A 
ATOM     20  C   UNL     1       0.146  10.163  18.039  0.00  0.00    +0.000 A 
BRANCH  19  21
ATOM     21  C   UNL     1      -1.959  11.378  18.836  0.00  0.00    +0.000 C 
ATOM     22  O   UNL     1      -2.334  11.631  19.984  0.00  0.00    +0.000 OA
ATOM     23  N   UNL     1      -2.877  11.146  17.803  0.00  0.00    +0.000 N 
ATOM     24  C   UNL     1      -2.570  10.883  16.404  0.00  0.00    +0.000 C 
ATOM     25  C   UNL     1      -4.294  11.294  18.103  0.00  0.00    +0.000 C 
ENDBRANCH  19  21
ENDBRANCH  10  15
BRANCH  12  26
ATOM     26  C   UNL     1       2.114   5.387  20.799  0.00  0.00    +0.000 C 
BRANCH  26  27
ATOM     27  C   UNL     1       2.102   3.903  20.575  0.00  0.00    +0.000 C 
ATOM     28  C   UNL     1       1.534   2.931  21.582  0.00  0.00    +0.000 C 
ATOM     29  C   UNL     1       0.784   3.213  20.311  0.00  0.00    +0.000 C 
ENDBRANCH  26  27
ENDBRANCH  12  26
TORSDOF 4
ENDMDL
