MODEL 1
REMARK VINA RESULT:      -9.2      0.000      0.000
REMARK  Name = 
REMARK  5 active torsions:
REMARK  status: ('A' for Active; 'I' for Inactive)
REMARK    1  A    between atoms: C_2  and  O_3
REMARK    2  A    between atoms: C_2  and  C_4
REMARK    3  A    between atoms: C_9  and  C_10
REMARK    4  A    between atoms: C_15  and  C_16
REMARK    5  A    between atoms: N_18  and  C_19
REMARK                            x       y       z     vdW  Elec       q    Type
REMARK                         _______ _______ _______ _____ _____    ______ ____
ROOT
ATOM      1  C   UNL     1       1.632   8.639  18.993  0.00  0.00    +0.000 C 
ATOM      2  O   UNL     1       1.544   9.288  17.951  0.00  0.00    +0.000 OA
ATOM      3  N   UNL     1       2.275   7.414  19.124  0.00  0.00    +0.000 N 
ATOM      4  H   UNL     1       2.214   6.940  20.016  0.00  0.00    +0.000 HD
ENDROOT
BRANCH   3   5
ATOM      5  C   UNL     1       3.114   6.813  18.131  0.00  0.00    +0.000 A 
ATOM      6  C   UNL     1       4.042   7.582  17.393  0.00  0.00    +0.000 A 
ATOM      7  C   UNL     1       4.964   7.027  16.489  0.00  0.00    +0.000 A 
ATOM      8  C   UNL     1       5.028   5.661  16.312  0.00  0.00    +0.000 A 
ATOM      9  C   UNL     1       4.150   4.889  17.051  0.00  0.00    +0.000 A 
ATOM     10  C   UNL     1       3.148   5.430  17.917  0.00  0.00    +0.000 A 
ATOM     11  C   UNL     1       2.438   4.288  18.500  0.00  0.00    +0.000 A 
ATOM     12  C   UNL     1       1.263   4.175  19.224  0.00  0.00    +0.000 A 
ATOM     13  C   UNL     1       0.895   2.914  19.724  0.00  0.00    +0.000 A 
ATOM     14  C   UNL     1       1.702   1.783  19.519  0.00  0.00    +0.000 A 
ATOM     15  C   UNL     1       2.829   1.867  18.709  0.00  0.00    +0.000 A 
ATOM     16  C   UNL     1       3.139   3.103  18.167  0.00  0.00    +0.000 A 
ATOM     17  C   UNL     1       4.183   3.381  17.120  0.00  0.00    +0.000 C 
ENDBRANCH   3   5
BRANCH   1  23
ATOM     18  C   UNL     1      -0.264   9.990  20.177  0.00  0.00    +0.000 A 
ATOM     19  C   UNL     1      -0.809  10.269  21.461  0.00  0.00    +0.000 A 
ATOM     20  C   UNL     1      -0.175   9.921  22.660  0.00  0.00    +0.000 A 
ATOM     21  C   UNL     1       1.019   9.228  22.631  0.00  0.00    +0.000 A 
ATOM     22  C   UNL     1       1.567   8.889  21.400  0.00  0.00    +0.000 A 
ATOM     23  C   UNL     1       0.956   9.261  20.172  0.00  0.00    +0.000 A 
BRANCH  18  29
ATOM     24  C   UNL     1      -0.880  11.657  18.307  0.00  0.00    +0.000 A 
ATOM     25  C   UNL     1      -1.656  12.017  17.187  0.00  0.00    +0.000 A 
ATOM     26  C   UNL     1      -2.605  11.140  16.684  0.00  0.00    +0.000 A 
ATOM     27  C   UNL     1      -2.798   9.917  17.310  0.00  0.00    +0.000 A 
ATOM     28  C   UNL     1      -2.057   9.577  18.451  0.00  0.00    +0.000 A 
ATOM     29  C   UNL     1      -1.045  10.409  18.969  0.00  0.00    +0.000 A 
BRANCH  24  31
ATOM     30  O   UNL     1      -0.064  13.586  19.440  0.00  0.00    +0.000 OA
ATOM     31  C   UNL     1       0.151  12.643  18.695  0.00  0.00    +0.000 C 
BRANCH  31  32
ATOM     32  O   UNL     1       1.353  12.392  18.130  0.00  0.00    +0.000 OA
ATOM     33  H   UNL     1       1.614  11.451  18.106  0.00  0.00    +0.000 HD
ENDBRANCH  31  32
ENDBRANCH  24  31
ENDBRANCH  18  29
ENDBRANCH   1  23
TORSDOF 5
ENDMDL
MODEL 2
REMARK VINA RESULT:      -8.9      1.613      2.489
REMARK  Name = 
REMARK  5 active torsions:
REMARK  status: ('A' for Active; 'I' for Inactive)
REMARK    1  A    between atoms: C_2  and  O_3
REMARK    2  A    between atoms: C_2  and  C_4
REMARK    3  A    between atoms: C_9  and  C_10
REMARK    4  A    between atoms: C_15  and  C_16
REMARK    5  A    between atoms: N_18  and  C_19
REMARK                            x       y       z     vdW  Elec       q    Type
REMARK                         _______ _______ _______ _____ _____    ______ ____
ROOT
ATOM      1  C   UNL     1       1.174   9.022  19.729  0.00  0.00    +0.000 C 
ATOM      2  O   UNL     1       0.946   9.571  18.652  0.00  0.00    +0.000 OA
ATOM      3  N   UNL     1       1.901   7.849  19.896  0.00  0.00    +0.000 N 
ATOM      4  H   UNL     1       1.957   7.454  20.825  0.00  0.00    +0.000 HD
ENDROOT
BRANCH   3   5
ATOM      5  C   UNL     1       2.674   7.207  18.875  0.00  0.00    +0.000 A 
ATOM      6  C   UNL     1       3.283   7.952  17.840  0.00  0.00    +0.000 A 
ATOM      7  C   UNL     1       4.142   7.388  16.880  0.00  0.00    +0.000 A 
ATOM      8  C   UNL     1       4.467   6.049  16.940  0.00  0.00    +0.000 A 
ATOM      9  C   UNL     1       3.907   5.311  17.966  0.00  0.00    +0.000 A 
ATOM     10  C   UNL     1       2.968   5.838  18.908  0.00  0.00    +0.000 A 
ATOM     11  C   UNL     1       2.624   4.741  19.816  0.00  0.00    +0.000 A 
ATOM     12  C   UNL     1       1.635   4.580  20.771  0.00  0.00    +0.000 A 
ATOM     13  C   UNL     1       1.632   3.410  21.551  0.00  0.00    +0.000 A 
ATOM     14  C   UNL     1       2.617   2.423  21.390  0.00  0.00    +0.000 A 
ATOM     15  C   UNL     1       3.552   2.529  20.367  0.00  0.00    +0.000 A 
ATOM     16  C   UNL     1       3.498   3.655  19.562  0.00  0.00    +0.000 A 
ATOM     17  C   UNL     1       4.272   3.883  18.293  0.00  0.00    +0.000 C 
ENDBRANCH   3   5
BRANCH   1  23
ATOM     18  C   UNL     1       0.382  11.107  21.089  0.00  0.00    +0.000 A 
ATOM     19  C   UNL     1      -0.419  11.482  22.202  0.00  0.00    +0.000 A 
ATOM     20  C   UNL     1      -0.938  10.564  23.123  0.00  0.00    +0.000 A 
ATOM     21  C   UNL     1      -0.718   9.212  22.945  0.00  0.00    +0.000 A 
ATOM     22  C   UNL     1       0.018   8.792  21.844  0.00  0.00    +0.000 A 
ATOM     23  C   UNL     1       0.579   9.710  20.916  0.00  0.00    +0.000 A 
BRANCH  18  29
ATOM     24  C   UNL     1       0.151  12.654  19.037  0.00  0.00    +0.000 A 
ATOM     25  C   UNL     1       0.662  13.656  18.189  0.00  0.00    +0.000 A 
ATOM     26  C   UNL     1       1.896  14.233  18.453  0.00  0.00    +0.000 A 
ATOM     27  C   UNL     1       2.628  13.794  19.547  0.00  0.00    +0.000 A 
ATOM     28  C   UNL     1       2.139  12.766  20.365  0.00  0.00    +0.000 A 
ATOM     29  C   UNL     1       0.870  12.186  20.171  0.00  0.00    +0.000 A 
BRANCH  24  31
ATOM     30  O   UNL     1      -2.212  12.518  19.298  0.00  0.00    +0.000 OA
ATOM     31  C   UNL     1      -1.207  12.179  18.694  0.00  0.00    +0.000 C 
BRANCH  31  32
ATOM     32  O   UNL     1      -1.213  11.325  17.646  0.00  0.00    +0.000 OA
ATOM     33  H   UNL     1      -0.688  11.610  16.873  0.00  0.00    +0.000 HD
ENDBRANCH  31  32
ENDBRANCH  24  31
ENDBRANCH  18  29
ENDBRANCH   1  23
TORSDOF 5
ENDMDL
MODEL 3
REMARK VINA RESULT:      -8.4      3.851      7.806
REMARK  Name = 
REMARK  5 active torsions:
REMARK  status: ('A' for Active; 'I' for Inactive)
REMARK    1  A    between atoms: C_2  and  O_3
REMARK    2  A    between atoms: C_2  and  C_4
REMARK    3  A    between atoms: C_9  and  C_10
REMARK    4  A    between atoms: C_15  and  C_16
REMARK    5  A    between atoms: N_18  and  C_19
REMARK                            x       y       z     vdW  Elec       q    Type
REMARK                         _______ _______ _______ _____ _____    ______ ____
ROOT
ATOM      1  C   UNL     1      -0.578  10.823  19.204  0.00  0.00    +0.000 C 
ATOM      2  O   UNL     1       0.000  11.715  18.584  0.00  0.00    +0.000 OA
ATOM      3  N   UNL     1      -1.856  10.352  18.928  0.00  0.00    +0.000 N 
ATOM      4  H   UNL     1      -2.253   9.666  19.557  0.00  0.00    +0.000 HD
ENDROOT
BRANCH   3   5
ATOM      5  C   UNL     1      -2.619  10.675  17.760  0.00  0.00    +0.000 A 
ATOM      6  C   UNL     1      -2.311  10.107  16.503  0.00  0.00    +0.000 A 
ATOM      7  C   UNL     1      -3.094  10.303  15.352  0.00  0.00    +0.000 A 
ATOM      8  C   UNL     1      -4.253  11.048  15.417  0.00  0.00    +0.000 A 
ATOM      9  C   UNL     1      -4.588  11.584  16.647  0.00  0.00    +0.000 A 
ATOM     10  C   UNL     1      -3.771  11.469  17.815  0.00  0.00    +0.000 A 
ATOM     11  C   UNL     1      -4.478  12.170  18.891  0.00  0.00    +0.000 A 
ATOM     12  C   UNL     1      -4.104  12.577  20.160  0.00  0.00    +0.000 A 
ATOM     13  C   UNL     1      -5.070  13.164  20.995  0.00  0.00    +0.000 A 
ATOM     14  C   UNL     1      -6.399  13.324  20.573  0.00  0.00    +0.000 A 
ATOM     15  C   UNL     1      -6.760  13.012  19.268  0.00  0.00    +0.000 A 
ATOM     16  C   UNL     1      -5.778  12.500  18.435  0.00  0.00    +0.000 A 
ATOM     17  C   UNL     1      -5.892  12.279  16.951  0.00  0.00    +0.000 C 
ENDBRANCH   3   5
BRANCH   1  23
ATOM     18  C   UNL     1       0.095  10.603  21.718  0.00  0.00    +0.000 A 
ATOM     19  C   UNL     1       0.776   9.747  22.626  0.00  0.00    +0.000 A 
ATOM     20  C   UNL     1       1.564   8.662  22.220  0.00  0.00    +0.000 A 
ATOM     21  C   UNL     1       1.668   8.352  20.879  0.00  0.00    +0.000 A 
ATOM     22  C   UNL     1       0.981   9.130  19.955  0.00  0.00    +0.000 A 
ATOM     23  C   UNL     1       0.202  10.253  20.345  0.00  0.00    +0.000 A 
BRANCH  18  29
ATOM     24  C   UNL     1      -0.404  13.102  22.120  0.00  0.00    +0.000 A 
ATOM     25  C   UNL     1      -1.192  14.123  22.688  0.00  0.00    +0.000 A 
ATOM     26  C   UNL     1      -2.328  13.804  23.417  0.00  0.00    +0.000 A 
ATOM     27  C   UNL     1      -2.665  12.471  23.599  0.00  0.00    +0.000 A 
ATOM     28  C   UNL     1      -1.856  11.454  23.072  0.00  0.00    +0.000 A 
ATOM     29  C   UNL     1      -0.724  11.725  22.280  0.00  0.00    +0.000 A 
BRANCH  24  31
ATOM     30  O   UNL     1       1.898  13.498  21.656  0.00  0.00    +0.000 OA
ATOM     31  C   UNL     1       0.732  13.574  21.301  0.00  0.00    +0.000 C 
BRANCH  31  32
ATOM     32  O   UNL     1       0.341  14.104  20.120  0.00  0.00    +0.000 OA
ATOM     33  H   UNL     1       0.460  15.069  20.036  0.00  0.00    +0.000 HD
ENDBRANCH  31  32
ENDBRANCH  24  31
ENDBRANCH  18  29
ENDBRANCH   1  23
TORSDOF 5
ENDMDL
MODEL 4
REMARK VINA RESULT:      -8.4      5.942      9.097
REMARK  Name = 
REMARK  5 active torsions:
REMARK  status: ('A' for Active; 'I' for Inactive)
REMARK    1  A    between atoms: C_2  and  O_3
REMARK    2  A    between atoms: C_2  and  C_4
REMARK    3  A    between atoms: C_9  and  C_10
REMARK    4  A    between atoms: C_15  and  C_16
REMARK    5  A    between atoms: N_18  and  C_19
REMARK                            x       y       z     vdW  Elec       q    Type
REMARK                         _______ _______ _______ _____ _____    ______ ____
ROOT
ATOM      1  C   UNL     1      -2.604  14.649  21.533  0.00  0.00    +0.000 C 
ATOM      2  O   UNL     1      -2.697  15.381  20.549  0.00  0.00    +0.000 OA
ATOM      3  N   UNL     1      -2.464  13.266  21.496  0.00  0.00    +0.000 N 
ATOM      4  H   UNL     1      -2.474  12.765  22.374  0.00  0.00    +0.000 HD
ENDROOT
BRANCH   3   5
ATOM      5  C   UNL     1      -2.196  12.497  20.318  0.00  0.00    +0.000 A 
ATOM      6  C   UNL     1      -0.903  11.995  20.049  0.00  0.00    +0.000 A 
ATOM      7  C   UNL     1      -0.610  11.144  18.969  0.00  0.00    +0.000 A 
ATOM      8  C   UNL     1      -1.616  10.719  18.127  0.00  0.00    +0.000 A 
ATOM      9  C   UNL     1      -2.895  11.173  18.394  0.00  0.00    +0.000 A 
ATOM     10  C   UNL     1      -3.209  12.103  19.435  0.00  0.00    +0.000 A 
ATOM     11  C   UNL     1      -4.657  12.321  19.378  0.00  0.00    +0.000 A 
ATOM     12  C   UNL     1      -5.497  13.249  19.970  0.00  0.00    +0.000 A 
ATOM     13  C   UNL     1      -6.884  13.129  19.774  0.00  0.00    +0.000 A 
ATOM     14  C   UNL     1      -7.425  12.082  19.010  0.00  0.00    +0.000 A 
ATOM     15  C   UNL     1      -6.585  11.208  18.330  0.00  0.00    +0.000 A 
ATOM     16  C   UNL     1      -5.219  11.383  18.478  0.00  0.00    +0.000 A 
ATOM     17  C   UNL     1      -4.140  10.688  17.693  0.00  0.00    +0.000 C 
ENDBRANCH   3   5
BRANCH   1  23
ATOM     18  C   UNL     1      -3.744  15.343  23.779  0.00  0.00    +0.000 A 
ATOM     19  C   UNL     1      -3.462  15.908  25.052  0.00  0.00    +0.000 A 
ATOM     20  C   UNL     1      -2.239  16.509  25.376  0.00  0.00    +0.000 A 
ATOM     21  C   UNL     1      -1.217  16.530  24.447  0.00  0.00    +0.000 A 
ATOM     22  C   UNL     1      -1.428  15.947  23.204  0.00  0.00    +0.000 A 
ATOM     23  C   UNL     1      -2.672  15.360  22.846  0.00  0.00    +0.000 A 
BRANCH  18  29
ATOM     24  C   UNL     1      -5.393  13.359  23.835  0.00  0.00    +0.000 A 
ATOM     25  C   UNL     1      -6.669  12.813  23.592  0.00  0.00    +0.000 A 
ATOM     26  C   UNL     1      -7.685  13.610  23.086  0.00  0.00    +0.000 A 
ATOM     27  C   UNL     1      -7.422  14.942  22.800  0.00  0.00    +0.000 A 
ATOM     28  C   UNL     1      -6.141  15.474  23.000  0.00  0.00    +0.000 A 
ATOM     29  C   UNL     1      -5.091  14.721  23.561  0.00  0.00    +0.000 A 
BRANCH  24  31
ATOM     30  O   UNL     1      -3.555  11.845  23.820  0.00  0.00    +0.000 OA
ATOM     31  C   UNL     1      -4.423  12.428  24.450  0.00  0.00    +0.000 C 
BRANCH  31  32
ATOM     32  O   UNL     1      -4.606  12.287  25.782  0.00  0.00    +0.000 OA
ATOM     33  H   UNL     1      -4.601  13.118  26.294  0.00  0.00    +0.000 HD
ENDBRANCH  31  32
ENDBRANCH  24  31
ENDBRANCH  18  29
ENDBRANCH   1  23
TORSDOF 5
ENDMDL
MODEL 5
REMARK VINA RESULT:      -8.3      2.379      8.138
REMARK  Name = 
REMARK  5 active torsions:
REMARK  status: ('A' for Active; 'I' for Inactive)
REMARK    1  A    between atoms: C_2  and  O_3
REMARK    2  A    between atoms: C_2  and  C_4
REMARK    3  A    between atoms: C_9  and  C_10
REMARK    4  A    between atoms: C_15  and  C_16
REMARK    5  A    between atoms: N_18  and  C_19
REMARK                            x       y       z     vdW  Elec       q    Type
REMARK                         _______ _______ _______ _____ _____    ______ ____
ROOT
ATOM      1  C   UNL     1       2.249   7.564  18.753  0.00  0.00    +0.000 C 
ATOM      2  O   UNL     1       1.348   7.732  17.932  0.00  0.00    +0.000 OA
ATOM      3  N   UNL     1       2.283   8.109  20.031  0.00  0.00    +0.000 N 
ATOM      4  H   UNL     1       3.115   7.960  20.587  0.00  0.00    +0.000 HD
ENDROOT
BRANCH   3   5
ATOM      5  C   UNL     1       1.189   8.774  20.672  0.00  0.00    +0.000 A 
ATOM      6  C   UNL     1       0.454   8.148  21.704  0.00  0.00    +0.000 A 
ATOM      7  C   UNL     1      -0.553   8.795  22.441  0.00  0.00    +0.000 A 
ATOM      8  C   UNL     1      -0.844  10.123  22.205  0.00  0.00    +0.000 A 
ATOM      9  C   UNL     1      -0.111  10.762  21.221  0.00  0.00    +0.000 A 
ATOM     10  C   UNL     1       0.862  10.109  20.401  0.00  0.00    +0.000 A 
ATOM     11  C   UNL     1       1.399  11.128  19.496  0.00  0.00    +0.000 A 
ATOM     12  C   UNL     1       2.190  11.063  18.362  0.00  0.00    +0.000 A 
ATOM     13  C   UNL     1       2.611  12.262  17.760  0.00  0.00    +0.000 A 
ATOM     14  C   UNL     1       2.260  13.511  18.297  0.00  0.00    +0.000 A 
ATOM     15  C   UNL     1       1.384  13.586  19.374  0.00  0.00    +0.000 A 
ATOM     16  C   UNL     1       0.924  12.396  19.912  0.00  0.00    +0.000 A 
ATOM     17  C   UNL     1      -0.167  12.243  20.937  0.00  0.00    +0.000 C 
ENDBRANCH   3   5
BRANCH   1  23
ATOM     18  C   UNL     1       3.596   5.335  18.550  0.00  0.00    +0.000 A 
ATOM     19  C   UNL     1       4.608   4.703  17.778  0.00  0.00    +0.000 A 
ATOM     20  C   UNL     1       5.401   5.379  16.843  0.00  0.00    +0.000 A 
ATOM     21  C   UNL     1       5.184   6.721  16.600  0.00  0.00    +0.000 A 
ATOM     22  C   UNL     1       4.172   7.373  17.295  0.00  0.00    +0.000 A 
ATOM     23  C   UNL     1       3.378   6.711  18.270  0.00  0.00    +0.000 A 
BRANCH  18  29
ATOM     24  C   UNL     1       1.790   3.585  19.126  0.00  0.00    +0.000 A 
ATOM     25  C   UNL     1       1.061   2.835  20.071  0.00  0.00    +0.000 A 
ATOM     26  C   UNL     1       1.339   2.958  21.425  0.00  0.00    +0.000 A 
ATOM     27  C   UNL     1       2.323   3.844  21.836  0.00  0.00    +0.000 A 
ATOM     28  C   UNL     1       3.017   4.623  20.900  0.00  0.00    +0.000 A 
ATOM     29  C   UNL     1       2.810   4.497  19.513  0.00  0.00    +0.000 A 
BRANCH  24  31
ATOM     30  O   UNL     1       0.872   4.095  16.989  0.00  0.00    +0.000 OA
ATOM     31  C   UNL     1       1.455   3.304  17.714  0.00  0.00    +0.000 C 
BRANCH  31  32
ATOM     32  O   UNL     1       1.856   2.076  17.316  0.00  0.00    +0.000 OA
ATOM     33  H   UNL     1       2.822   1.962  17.225  0.00  0.00    +0.000 HD
ENDBRANCH  31  32
ENDBRANCH  24  31
ENDBRANCH  18  29
ENDBRANCH   1  23
TORSDOF 5
ENDMDL
MODEL 6
REMARK VINA RESULT:      -8.1      2.271      8.171
REMARK  Name = 
REMARK  5 active torsions:
REMARK  status: ('A' for Active; 'I' for Inactive)
REMARK    1  A    between atoms: C_2  and  O_3
REMARK    2  A    between atoms: C_2  and  C_4
REMARK    3  A    between atoms: C_9  and  C_10
REMARK    4  A    between atoms: C_15  and  C_16
REMARK    5  A    between atoms: N_18  and  C_19
REMARK                            x       y       z     vdW  Elec       q    Type
REMARK                         _______ _______ _______ _____ _____    ______ ____
ROOT
ATOM      1  C   UNL     1       2.312   6.992  19.578  0.00  0.00    +0.000 C 
ATOM      2  O   UNL     1       2.095   6.163  20.461  0.00  0.00    +0.000 OA
ATOM      3  N   UNL     1       1.762   8.267  19.521  0.00  0.00    +0.000 N 
ATOM      4  H   UNL     1       1.956   8.831  18.705  0.00  0.00    +0.000 HD
ENDROOT
BRANCH   3   5
ATOM      5  C   UNL     1       1.027   8.895  20.578  0.00  0.00    +0.000 A 
ATOM      6  C   UNL     1       1.460   8.813  21.921  0.00  0.00    +0.000 A 
ATOM      7  C   UNL     1       0.841   9.502  22.979  0.00  0.00    +0.000 A 
ATOM      8  C   UNL     1      -0.223  10.344  22.732  0.00  0.00    +0.000 A 
ATOM      9  C   UNL     1      -0.640  10.463  21.419  0.00  0.00    +0.000 A 
ATOM     10  C   UNL     1      -0.083   9.714  20.335  0.00  0.00    +0.000 A 
ATOM     11  C   UNL     1      -0.799  10.130  19.126  0.00  0.00    +0.000 A 
ATOM     12  C   UNL     1      -0.857   9.623  17.840  0.00  0.00    +0.000 A 
ATOM     13  C   UNL     1      -1.590  10.325  16.867  0.00  0.00    +0.000 A 
ATOM     14  C   UNL     1      -2.242  11.530  17.174  0.00  0.00    +0.000 A 
ATOM     15  C   UNL     1      -2.274  11.993  18.484  0.00  0.00    +0.000 A 
ATOM     16  C   UNL     1      -1.604  11.252  19.443  0.00  0.00    +0.000 A 
ATOM     17  C   UNL     1      -1.669  11.455  20.933  0.00  0.00    +0.000 C 
ENDBRANCH   3   5
BRANCH   1  23
ATOM     18  C   UNL     1       3.327   5.214  17.956  0.00  0.00    +0.000 A 
ATOM     19  C   UNL     1       4.115   5.090  16.779  0.00  0.00    +0.000 A 
ATOM     20  C   UNL     1       4.819   6.157  16.206  0.00  0.00    +0.000 A 
ATOM     21  C   UNL     1       4.728   7.418  16.761  0.00  0.00    +0.000 A 
ATOM     22  C   UNL     1       3.931   7.600  17.884  0.00  0.00    +0.000 A 
ATOM     23  C   UNL     1       3.234   6.524  18.499  0.00  0.00    +0.000 A 
BRANCH  18  29
ATOM     24  C   UNL     1       3.247   2.953  19.196  0.00  0.00    +0.000 A 
ATOM     25  C   UNL     1       2.541   1.815  19.634  0.00  0.00    +0.000 A 
ATOM     26  C   UNL     1       1.185   1.691  19.372  0.00  0.00    +0.000 A 
ATOM     27  C   UNL     1       0.540   2.687  18.654  0.00  0.00    +0.000 A 
ATOM     28  C   UNL     1       1.251   3.798  18.180  0.00  0.00    +0.000 A 
ATOM     29  C   UNL     1       2.616   3.997  18.465  0.00  0.00    +0.000 A 
BRANCH  24  31
ATOM     30  O   UNL     1       5.313   4.037  19.671  0.00  0.00    +0.000 OA
ATOM     31  C   UNL     1       4.666   3.004  19.609  0.00  0.00    +0.000 C 
BRANCH  31  32
ATOM     32  O   UNL     1       5.169   1.784  19.902  0.00  0.00    +0.000 OA
ATOM     33  H   UNL     1       5.855   1.457  19.290  0.00  0.00    +0.000 HD
ENDBRANCH  31  32
ENDBRANCH  24  31
ENDBRANCH  18  29
ENDBRANCH   1  23
TORSDOF 5
ENDMDL
MODEL 7
REMARK VINA RESULT:      -8.1      5.375      8.420
REMARK  Name = 
REMARK  5 active torsions:
REMARK  status: ('A' for Active; 'I' for Inactive)
REMARK    1  A    between atoms: C_2  and  O_3
REMARK    2  A    between atoms: C_2  and  C_4
REMARK    3  A    between atoms: C_9  and  C_10
REMARK    4  A    between atoms: C_15  and  C_16
REMARK    5  A    between atoms: N_18  and  C_19
REMARK                            x       y       z     vdW  Elec       q    Type
REMARK                         _______ _______ _______ _____ _____    ______ ____
ROOT
ATOM      1  C   UNL     1      -4.162  13.146  21.801  0.00  0.00    +0.000 C 
ATOM      2  O   UNL     1      -4.756  12.127  22.151  0.00  0.00    +0.000 OA
ATOM      3  N   UNL     1      -4.178  13.686  20.521  0.00  0.00    +0.000 N 
ATOM      4  H   UNL     1      -3.588  14.486  20.337  0.00  0.00    +0.000 HD
ENDROOT
BRANCH   3   5
ATOM      5  C   UNL     1      -5.049  13.270  19.463  0.00  0.00    +0.000 A 
ATOM      6  C   UNL     1      -6.292  13.906  19.244  0.00  0.00    +0.000 A 
ATOM      7  C   UNL     1      -7.132  13.613  18.155  0.00  0.00    +0.000 A 
ATOM      8  C   UNL     1      -6.742  12.693  17.205  0.00  0.00    +0.000 A 
ATOM      9  C   UNL     1      -5.513  12.085  17.383  0.00  0.00    +0.000 A 
ATOM     10  C   UNL     1      -4.674  12.303  18.522  0.00  0.00    +0.000 A 
ATOM     11  C   UNL     1      -3.480  11.477  18.326  0.00  0.00    +0.000 A 
ATOM     12  C   UNL     1      -2.439  11.108  19.161  0.00  0.00    +0.000 A 
ATOM     13  C   UNL     1      -1.376  10.358  18.627  0.00  0.00    +0.000 A 
ATOM     14  C   UNL     1      -1.347   9.999  17.270  0.00  0.00    +0.000 A 
ATOM     15  C   UNL     1      -2.434  10.277  16.450  0.00  0.00    +0.000 A 
ATOM     16  C   UNL     1      -3.504  10.955  17.009  0.00  0.00    +0.000 A 
ATOM     17  C   UNL     1      -4.847  11.185  16.371  0.00  0.00    +0.000 C 
ENDBRANCH   3   5
BRANCH   1  23
ATOM     18  C   UNL     1      -2.025  13.496  23.262  0.00  0.00    +0.000 A 
ATOM     19  C   UNL     1      -1.415  14.421  24.153  0.00  0.00    +0.000 A 
ATOM     20  C   UNL     1      -2.080  15.531  24.689  0.00  0.00    +0.000 A 
ATOM     21  C   UNL     1      -3.384  15.796  24.317  0.00  0.00    +0.000 A 
ATOM     22  C   UNL     1      -4.008  14.948  23.410  0.00  0.00    +0.000 A 
ATOM     23  C   UNL     1      -3.360  13.799  22.881  0.00  0.00    +0.000 A 
BRANCH  18  29
ATOM     24  C   UNL     1      -0.258  12.459  21.695  0.00  0.00    +0.000 A 
ATOM     25  C   UNL     1       0.477  11.349  21.234  0.00  0.00    +0.000 A 
ATOM     26  C   UNL     1       0.308  10.105  21.825  0.00  0.00    +0.000 A 
ATOM     27  C   UNL     1      -0.610   9.964  22.855  0.00  0.00    +0.000 A 
ATOM     28  C   UNL     1      -1.374  11.059  23.283  0.00  0.00    +0.000 A 
ATOM     29  C   UNL     1      -1.201  12.352  22.754  0.00  0.00    +0.000 A 
BRANCH  24  31
ATOM     30  O   UNL     1       1.061  14.404  21.312  0.00  0.00    +0.000 OA
ATOM     31  C   UNL     1       0.072  13.742  21.038  0.00  0.00    +0.000 C 
BRANCH  31  32
ATOM     32  O   UNL     1      -0.841  14.106  20.110  0.00  0.00    +0.000 OA
ATOM     33  H   UNL     1      -1.227  14.994  20.230  0.00  0.00    +0.000 HD
ENDBRANCH  31  32
ENDBRANCH  24  31
ENDBRANCH  18  29
ENDBRANCH   1  23
TORSDOF 5
ENDMDL
MODEL 8
REMARK VINA RESULT:      -7.9      5.032      7.694
REMARK  Name = 
REMARK  5 active torsions:
REMARK  status: ('A' for Active; 'I' for Inactive)
REMARK    1  A    between atoms: C_2  and  O_3
REMARK    2  A    between atoms: C_2  and  C_4
REMARK    3  A    between atoms: C_9  and  C_10
REMARK    4  A    between atoms: C_15  and  C_16
REMARK    5  A    between atoms: N_18  and  C_19
REMARK                            x       y       z     vdW  Elec       q    Type
REMARK                         _______ _______ _______ _____ _____    ______ ____
ROOT
ATOM      1  C   UNL     1      -3.054  13.680  21.228  0.00  0.00    +0.000 C 
ATOM      2  O   UNL     1      -2.502  14.465  20.459  0.00  0.00    +0.000 OA
ATOM      3  N   UNL     1      -2.699  12.348  21.409  0.00  0.00    +0.000 N 
ATOM      4  H   UNL     1      -3.277  11.782  22.015  0.00  0.00    +0.000 HD
ENDROOT
BRANCH   3   5
ATOM      5  C   UNL     1      -1.513  11.734  20.891  0.00  0.00    +0.000 A 
ATOM      6  C   UNL     1      -0.394  11.488  21.720  0.00  0.00    +0.000 A 
ATOM      7  C   UNL     1       0.749  10.790  21.292  0.00  0.00    +0.000 A 
ATOM      8  C   UNL     1       0.807  10.266  20.017  0.00  0.00    +0.000 A 
ATOM      9  C   UNL     1      -0.293  10.468  19.203  0.00  0.00    +0.000 A 
ATOM     10  C   UNL     1      -1.434  11.242  19.583  0.00  0.00    +0.000 A 
ATOM     11  C   UNL     1      -2.359  11.209  18.447  0.00  0.00    +0.000 A 
ATOM     12  C   UNL     1      -3.502  11.926  18.138  0.00  0.00    +0.000 A 
ATOM     13  C   UNL     1      -4.225  11.583  16.981  0.00  0.00    +0.000 A 
ATOM     14  C   UNL     1      -3.818  10.524  16.155  0.00  0.00    +0.000 A 
ATOM     15  C   UNL     1      -2.619   9.866  16.401  0.00  0.00    +0.000 A 
ATOM     16  C   UNL     1      -1.884  10.263  17.506  0.00  0.00    +0.000 A 
ATOM     17  C   UNL     1      -0.483   9.832  17.847  0.00  0.00    +0.000 C 
ENDBRANCH   3   5
BRANCH   1  23
ATOM     18  C   UNL     1      -5.586  14.006  21.780  0.00  0.00    +0.000 A 
ATOM     19  C   UNL     1      -6.460  14.495  22.789  0.00  0.00    +0.000 A 
ATOM     20  C   UNL     1      -6.024  15.238  23.893  0.00  0.00    +0.000 A 
ATOM     21  C   UNL     1      -4.677  15.487  24.066  0.00  0.00    +0.000 A 
ATOM     22  C   UNL     1      -3.778  14.988  23.132  0.00  0.00    +0.000 A 
ATOM     23  C   UNL     1      -4.203  14.259  21.988  0.00  0.00    +0.000 A 
BRANCH  18  29
ATOM     24  C   UNL     1      -6.775  13.798  19.500  0.00  0.00    +0.000 A 
ATOM     25  C   UNL     1      -7.340  13.014  18.475  0.00  0.00    +0.000 A 
ATOM     26  C   UNL     1      -7.311  11.629  18.558  0.00  0.00    +0.000 A 
ATOM     27  C   UNL     1      -6.741  11.030  19.671  0.00  0.00    +0.000 A 
ATOM     28  C   UNL     1      -6.219  11.810  20.712  0.00  0.00    +0.000 A 
ATOM     29  C   UNL     1      -6.177  13.216  20.652  0.00  0.00    +0.000 A 
BRANCH  24  31
ATOM     30  O   UNL     1      -7.511  16.032  19.871  0.00  0.00    +0.000 OA
ATOM     31  C   UNL     1      -6.798  15.256  19.255  0.00  0.00    +0.000 C 
BRANCH  31  32
ATOM     32  O   UNL     1      -5.950  15.634  18.272  0.00  0.00    +0.000 OA
ATOM     33  H   UNL     1      -5.241  16.246  18.546  0.00  0.00    +0.000 HD
ENDBRANCH  31  32
ENDBRANCH  24  31
ENDBRANCH  18  29
ENDBRANCH   1  23
TORSDOF 5
ENDMDL
MODEL 9
REMARK VINA RESULT:      -7.9      2.696      8.402
REMARK  Name = 
REMARK  5 active torsions:
REMARK  status: ('A' for Active; 'I' for Inactive)
REMARK    1  A    between atoms: C_2  and  O_3
REMARK    2  A    between atoms: C_2  and  C_4
REMARK    3  A    between atoms: C_9  and  C_10
REMARK    4  A    between atoms: C_15  and  C_16
REMARK    5  A    between atoms: N_18  and  C_19
REMARK                            x       y       z     vdW  Elec       q    Type
REMARK                         _______ _______ _______ _____ _____    ______ ____
ROOT
ATOM      1  C   UNL     1       2.377   7.096  19.392  0.00  0.00    +0.000 C 
ATOM      2  O   UNL     1       2.208   6.356  20.360  0.00  0.00    +0.000 OA
ATOM      3  N   UNL     1       1.745   8.318  19.194  0.00  0.00    +0.000 N 
ATOM      4  H   UNL     1       1.910   8.800  18.320  0.00  0.00    +0.000 HD
ENDROOT
BRANCH   3   5
ATOM      5  C   UNL     1       0.962   9.008  20.174  0.00  0.00    +0.000 A 
ATOM      6  C   UNL     1       0.282   8.306  21.196  0.00  0.00    +0.000 A 
ATOM      7  C   UNL     1      -0.407   8.939  22.245  0.00  0.00    +0.000 A 
ATOM      8  C   UNL     1      -0.411  10.315  22.344  0.00  0.00    +0.000 A 
ATOM      9  C   UNL     1       0.277  11.018  21.372  0.00  0.00    +0.000 A 
ATOM     10  C   UNL     1       0.918  10.405  20.249  0.00  0.00    +0.000 A 
ATOM     11  C   UNL     1       1.521  11.489  19.469  0.00  0.00    +0.000 A 
ATOM     12  C   UNL     1       2.074  11.547  18.201  0.00  0.00    +0.000 A 
ATOM     13  C   UNL     1       2.659  12.751  17.772  0.00  0.00    +0.000 A 
ATOM     14  C   UNL     1       2.707  13.878  18.608  0.00  0.00    +0.000 A 
ATOM     15  C   UNL     1       2.066  13.860  19.841  0.00  0.00    +0.000 A 
ATOM     16  C   UNL     1       1.434  12.688  20.220  0.00  0.00    +0.000 A 
ATOM     17  C   UNL     1       0.525  12.506  21.405  0.00  0.00    +0.000 C 
ENDBRANCH   3   5
BRANCH   1  23
ATOM     18  C   UNL     1       3.437   5.243  17.887  0.00  0.00    +0.000 A 
ATOM     19  C   UNL     1       4.272   5.062  16.750  0.00  0.00    +0.000 A 
ATOM     20  C   UNL     1       5.012   6.097  16.164  0.00  0.00    +0.000 A 
ATOM     21  C   UNL     1       4.913   7.381  16.663  0.00  0.00    +0.000 A 
ATOM     22  C   UNL     1       4.072   7.617  17.744  0.00  0.00    +0.000 A 
ATOM     23  C   UNL     1       3.338   6.575  18.372  0.00  0.00    +0.000 A 
BRANCH  18  29
ATOM     24  C   UNL     1       3.288   3.013  19.176  0.00  0.00    +0.000 A 
ATOM     25  C   UNL     1       2.550   1.902  19.631  0.00  0.00    +0.000 A 
ATOM     26  C   UNL     1       1.194   1.805  19.355  0.00  0.00    +0.000 A 
ATOM     27  C   UNL     1       0.581   2.800  18.608  0.00  0.00    +0.000 A 
ATOM     28  C   UNL     1       1.325   3.883  18.118  0.00  0.00    +0.000 A 
ATOM     29  C   UNL     1       2.691   4.055  18.414  0.00  0.00    +0.000 A 
BRANCH  24  31
ATOM     30  O   UNL     1       5.383   4.052  19.624  0.00  0.00    +0.000 OA
ATOM     31  C   UNL     1       4.703   3.038  19.603  0.00  0.00    +0.000 C 
BRANCH  31  32
ATOM     32  O   UNL     1       5.163   1.819  19.962  0.00  0.00    +0.000 OA
ATOM     33  H   UNL     1       4.610   1.337  20.607  0.00  0.00    +0.000 HD
ENDBRANCH  31  32
ENDBRANCH  24  31
ENDBRANCH  18  29
ENDBRANCH   1  23
TORSDOF 5
ENDMDL
