MODEL 1
REMARK VINA RESULT:      -6.7      0.000      0.000
REMARK  Name = 
REMARK  4 active torsions:
REMARK  status: ('A' for Active; 'I' for Inactive)
REMARK    1  A    between atoms: C_1  and  N_2
REMARK    2  A    between atoms: N_10  and  C_11
REMARK    3  A    between atoms: C_18  and  C_19
REMARK    4  A    between atoms: C_19  and  O_20
REMARK                            x       y       z     vdW  Elec       q    Type
REMARK                         _______ _______ _______ _____ _____    ______ ____
ROOT
ATOM      1  C   UNL     1       1.763   5.324  21.032  0.00  0.00    +0.000 C 
ATOM      2  N   UNL     1       2.126   5.083  19.643  0.00  0.00    +0.000 N 
ATOM      3  C   UNL     1       2.746   6.093  18.921  0.00  0.00    +0.000 A 
ATOM      4  C   UNL     1       2.127   7.325  18.699  0.00  0.00    +0.000 A 
ATOM      5  C   UNL     1       2.707   8.277  17.860  0.00  0.00    +0.000 A 
ATOM      6  C   UNL     1       3.934   7.989  17.280  0.00  0.00    +0.000 A 
ATOM      7  N   UNL     1       4.588   6.831  17.476  0.00  0.00    +0.000 NA
ATOM      8  C   UNL     1       3.988   5.904  18.273  0.00  0.00    +0.000 A 
ATOM      9  C   UNL     1       4.730   4.609  18.448  0.00  0.00    +0.000 C 
ATOM     10  N   UNL     1       4.557   3.592  17.399  0.00  0.00    +0.000 NA
ATOM     11  C   UNL     1       3.210   3.283  16.898  0.00  0.00    +0.000 C 
ATOM     12  C   UNL     1       1.903   3.828  17.477  0.00  0.00    +0.000 C 
ATOM     13  C   UNL     1       1.738   3.798  19.002  0.00  0.00    +0.000 C 
ENDROOT
BRANCH  10  14
ATOM     14  C   UNL     1       5.555   3.676  16.326  0.00  0.00    +0.000 C 
ATOM     15  C   UNL     1       5.083   4.456  15.094  0.00  0.00    +0.000 C 
ATOM     16  C   UNL     1       6.368   4.806  14.360  0.00  0.00    +0.000 C 
ATOM     17  C   UNL     1       7.429   4.982  15.436  0.00  0.00    +0.000 C 
ATOM     18  C   UNL     1       6.826   4.451  16.725  0.00  0.00    +0.000 C 
ENDBRANCH  10  14
BRANCH  13  19
ATOM     19  C   UNL     1       2.362   2.548  19.675  0.00  0.00    +0.000 C 
BRANCH  19  20
ATOM     20  O   UNL     1       1.823   1.332  19.158  0.00  0.00    +0.000 OA
ATOM     21  H   UNL     1       2.513   0.658  19.223  0.00  0.00    +0.000 HD
ENDBRANCH  19  20
ENDBRANCH  13  19
TORSDOF 3
ENDMDL
MODEL 2
REMARK VINA RESULT:      -6.6      1.424      2.082
REMARK  Name = 
REMARK  4 active torsions:
REMARK  status: ('A' for Active; 'I' for Inactive)
REMARK    1  A    between atoms: C_1  and  N_2
REMARK    2  A    between atoms: N_10  and  C_11
REMARK    3  A    between atoms: C_18  and  C_19
REMARK    4  A    between atoms: C_19  and  O_20
REMARK                            x       y       z     vdW  Elec       q    Type
REMARK                         _______ _______ _______ _____ _____    ______ ____
ROOT
ATOM      1  C   UNL     1       2.622   2.435  21.601  0.00  0.00    +0.000 C 
ATOM      2  N   UNL     1       2.701   2.965  20.248  0.00  0.00    +0.000 N 
ATOM      3  C   UNL     1       2.751   4.340  20.062  0.00  0.00    +0.000 A 
ATOM      4  C   UNL     1       1.718   5.178  20.488  0.00  0.00    +0.000 A 
ATOM      5  C   UNL     1       1.724   6.536  20.174  0.00  0.00    +0.000 A 
ATOM      6  C   UNL     1       2.799   7.048  19.462  0.00  0.00    +0.000 A 
ATOM      7  N   UNL     1       3.832   6.296  19.047  0.00  0.00    +0.000 NA
ATOM      8  C   UNL     1       3.790   4.965  19.336  0.00  0.00    +0.000 A 
ATOM      9  C   UNL     1       4.945   4.146  18.833  0.00  0.00    +0.000 C 
ATOM     10  N   UNL     1       4.881   3.686  17.437  0.00  0.00    +0.000 NA
ATOM     11  C   UNL     1       3.638   3.091  16.922  0.00  0.00    +0.000 C 
ATOM     12  C   UNL     1       2.404   2.755  17.761  0.00  0.00    +0.000 C 
ATOM     13  C   UNL     1       2.629   2.029  19.094  0.00  0.00    +0.000 C 
ENDROOT
BRANCH  10  14
ATOM     14  C   UNL     1       5.504   4.610  16.482  0.00  0.00    +0.000 C 
ATOM     15  C   UNL     1       7.031   4.687  16.594  0.00  0.00    +0.000 C 
ATOM     16  C   UNL     1       7.471   5.295  15.271  0.00  0.00    +0.000 C 
ATOM     17  C   UNL     1       6.465   4.816  14.236  0.00  0.00    +0.000 C 
ATOM     18  C   UNL     1       5.314   4.196  15.010  0.00  0.00    +0.000 C 
ENDBRANCH  10  14
BRANCH  13  19
ATOM     19  C   UNL     1       3.780   0.991  19.055  0.00  0.00    +0.000 C 
BRANCH  19  20
ATOM     20  O   UNL     1       4.952   1.462  19.718  0.00  0.00    +0.000 OA
ATOM     21  H   UNL     1       5.291   0.735  20.260  0.00  0.00    +0.000 HD
ENDBRANCH  19  20
ENDBRANCH  13  19
TORSDOF 3
ENDMDL
MODEL 3
REMARK VINA RESULT:      -6.5      1.761      4.782
REMARK  Name = 
REMARK  4 active torsions:
REMARK  status: ('A' for Active; 'I' for Inactive)
REMARK    1  A    between atoms: C_1  and  N_2
REMARK    2  A    between atoms: N_10  and  C_11
REMARK    3  A    between atoms: C_18  and  C_19
REMARK    4  A    between atoms: C_19  and  O_20
REMARK                            x       y       z     vdW  Elec       q    Type
REMARK                         _______ _______ _______ _____ _____    ______ ____
ROOT
ATOM      1  C   UNL     1       3.383   2.120  17.601  0.00  0.00    +0.000 C 
ATOM      2  N   UNL     1       3.481   3.329  18.406  0.00  0.00    +0.000 N 
ATOM      3  C   UNL     1       4.406   4.302  18.053  0.00  0.00    +0.000 A 
ATOM      4  C   UNL     1       5.777   4.037  18.019  0.00  0.00    +0.000 A 
ATOM      5  C   UNL     1       6.698   5.059  17.794  0.00  0.00    +0.000 A 
ATOM      6  C   UNL     1       6.222   6.342  17.565  0.00  0.00    +0.000 A 
ATOM      7  N   UNL     1       4.914   6.653  17.563  0.00  0.00    +0.000 NA
ATOM      8  C   UNL     1       4.034   5.645  17.817  0.00  0.00    +0.000 A 
ATOM      9  C   UNL     1       2.581   6.030  17.836  0.00  0.00    +0.000 C 
ATOM     10  N   UNL     1       2.056   6.596  19.089  0.00  0.00    +0.000 NA
ATOM     11  C   UNL     1       2.375   5.950  20.371  0.00  0.00    +0.000 C 
ATOM     12  C   UNL     1       3.107   4.617  20.532  0.00  0.00    +0.000 C 
ATOM     13  C   UNL     1       2.660   3.451  19.640  0.00  0.00    +0.000 C 
ENDROOT
BRANCH  10  14
ATOM     14  C   UNL     1       2.140   8.060  19.156  0.00  0.00    +0.000 C 
ATOM     15  C   UNL     1       1.758   8.767  17.850  0.00  0.00    +0.000 C 
ATOM     16  C   UNL     1       1.467  10.199  18.274  0.00  0.00    +0.000 C 
ATOM     17  C   UNL     1       0.905  10.111  19.685  0.00  0.00    +0.000 C 
ATOM     18  C   UNL     1       1.152   8.688  20.158  0.00  0.00    +0.000 C 
ENDBRANCH  10  14
BRANCH  13  19
ATOM     19  C   UNL     1       1.131   3.410  19.382  0.00  0.00    +0.000 C 
BRANCH  19  20
ATOM     20  O   UNL     1       0.401   3.002  20.538  0.00  0.00    +0.000 OA
ATOM     21  H   UNL     1       0.630   2.079  20.715  0.00  0.00    +0.000 HD
ENDBRANCH  19  20
ENDBRANCH  13  19
TORSDOF 3
ENDMDL
MODEL 4
REMARK VINA RESULT:      -6.5      2.400      5.271
REMARK  Name = 
REMARK  4 active torsions:
REMARK  status: ('A' for Active; 'I' for Inactive)
REMARK    1  A    between atoms: C_1  and  N_2
REMARK    2  A    between atoms: N_10  and  C_11
REMARK    3  A    between atoms: C_18  and  C_19
REMARK    4  A    between atoms: C_19  and  O_20
REMARK                            x       y       z     vdW  Elec       q    Type
REMARK                         _______ _______ _______ _____ _____    ______ ____
ROOT
ATOM      1  C   UNL     1       5.147   2.136  20.278  0.00  0.00    +0.000 C 
ATOM      2  N   UNL     1       4.438   3.050  19.395  0.00  0.00    +0.000 N 
ATOM      3  C   UNL     1       3.051   3.030  19.373  0.00  0.00    +0.000 A 
ATOM      4  C   UNL     1       2.337   1.888  19.004  0.00  0.00    +0.000 A 
ATOM      5  C   UNL     1       0.951   1.925  18.858  0.00  0.00    +0.000 A 
ATOM      6  C   UNL     1       0.288   3.115  19.126  0.00  0.00    +0.000 A 
ATOM      7  N   UNL     1       0.918   4.239  19.508  0.00  0.00    +0.000 NA
ATOM      8  C   UNL     1       2.276   4.188  19.612  0.00  0.00    +0.000 A 
ATOM      9  C   UNL     1       2.953   5.468  20.012  0.00  0.00    +0.000 C 
ATOM     10  N   UNL     1       3.227   6.442  18.944  0.00  0.00    +0.000 NA
ATOM     11  C   UNL     1       3.820   5.986  17.677  0.00  0.00    +0.000 C 
ATOM     12  C   UNL     1       4.333   4.573  17.398  0.00  0.00    +0.000 C 
ATOM     13  C   UNL     1       5.216   3.916  18.468  0.00  0.00    +0.000 C 
ENDROOT
BRANCH  10  14
ATOM     14  C   UNL     1       2.151   7.420  18.746  0.00  0.00    +0.000 C 
ATOM     15  C   UNL     1       1.768   8.191  20.015  0.00  0.00    +0.000 C 
ATOM     16  C   UNL     1       1.019   9.410  19.497  0.00  0.00    +0.000 C 
ATOM     17  C   UNL     1       1.645   9.744  18.151  0.00  0.00    +0.000 C 
ATOM     18  C   UNL     1       2.524   8.561  17.781  0.00  0.00    +0.000 C 
ENDBRANCH  10  14
BRANCH  13  19
ATOM     19  C   UNL     1       6.171   4.905  19.185  0.00  0.00    +0.000 C 
BRANCH  19  20
ATOM     20  O   UNL     1       7.502   4.833  18.675  0.00  0.00    +0.000 OA
ATOM     21  H   UNL     1       8.097   5.139  19.373  0.00  0.00    +0.000 HD
ENDBRANCH  19  20
ENDBRANCH  13  19
TORSDOF 3
ENDMDL
MODEL 5
REMARK VINA RESULT:      -6.4      0.840      1.249
REMARK  Name = 
REMARK  4 active torsions:
REMARK  status: ('A' for Active; 'I' for Inactive)
REMARK    1  A    between atoms: C_1  and  N_2
REMARK    2  A    between atoms: N_10  and  C_11
REMARK    3  A    between atoms: C_18  and  C_19
REMARK    4  A    between atoms: C_19  and  O_20
REMARK                            x       y       z     vdW  Elec       q    Type
REMARK                         _______ _______ _______ _____ _____    ______ ____
ROOT
ATOM      1  C   UNL     1       2.534   4.511  21.274  0.00  0.00    +0.000 C 
ATOM      2  N   UNL     1       2.614   4.596  19.824  0.00  0.00    +0.000 N 
ATOM      3  C   UNL     1       2.792   5.837  19.228  0.00  0.00    +0.000 A 
ATOM      4  C   UNL     1       1.864   6.868  19.384  0.00  0.00    +0.000 A 
ATOM      5  C   UNL     1       1.991   8.060  18.671  0.00  0.00    +0.000 A 
ATOM      6  C   UNL     1       3.084   8.217  17.831  0.00  0.00    +0.000 A 
ATOM      7  N   UNL     1       4.022   7.270  17.659  0.00  0.00    +0.000 NA
ATOM      8  C   UNL     1       3.860   6.101  18.340  0.00  0.00    +0.000 A 
ATOM      9  C   UNL     1       4.909   5.051  18.104  0.00  0.00    +0.000 C 
ATOM     10  N   UNL     1       4.748   4.200  16.914  0.00  0.00    +0.000 NA
ATOM     11  C   UNL     1       3.435   3.611  16.613  0.00  0.00    +0.000 C 
ATOM     12  C   UNL     1       2.205   3.677  17.520  0.00  0.00    +0.000 C 
ATOM     13  C   UNL     1       2.407   3.368  19.010  0.00  0.00    +0.000 C 
ENDROOT
BRANCH  10  14
ATOM     14  C   UNL     1       5.423   4.721  15.719  0.00  0.00    +0.000 C 
ATOM     15  C   UNL     1       6.951   4.773  15.839  0.00  0.00    +0.000 C 
ATOM     16  C   UNL     1       7.432   4.879  14.400  0.00  0.00    +0.000 C 
ATOM     17  C   UNL     1       6.418   4.117  13.562  0.00  0.00    +0.000 C 
ATOM     18  C   UNL     1       5.231   3.841  14.470  0.00  0.00    +0.000 C 
ENDBRANCH  10  14
BRANCH  13  19
ATOM     19  C   UNL     1       3.449   2.252  19.282  0.00  0.00    +0.000 C 
BRANCH  19  20
ATOM     20  O   UNL     1       3.136   1.044  18.591  0.00  0.00    +0.000 OA
ATOM     21  H   UNL     1       3.322   0.309  19.192  0.00  0.00    +0.000 HD
ENDBRANCH  19  20
ENDBRANCH  13  19
TORSDOF 3
ENDMDL
MODEL 6
REMARK VINA RESULT:      -6.3      2.101      4.888
REMARK  Name = 
REMARK  4 active torsions:
REMARK  status: ('A' for Active; 'I' for Inactive)
REMARK    1  A    between atoms: C_1  and  N_2
REMARK    2  A    between atoms: N_10  and  C_11
REMARK    3  A    between atoms: C_18  and  C_19
REMARK    4  A    between atoms: C_19  and  O_20
REMARK                            x       y       z     vdW  Elec       q    Type
REMARK                         _______ _______ _______ _____ _____    ______ ____
ROOT
ATOM      1  C   UNL     1       5.500   6.774  15.307  0.00  0.00    +0.000 C 
ATOM      2  N   UNL     1       5.252   6.325  16.669  0.00  0.00    +0.000 N 
ATOM      3  C   UNL     1       4.029   6.608  17.262  0.00  0.00    +0.000 A 
ATOM      4  C   UNL     1       3.593   7.920  17.458  0.00  0.00    +0.000 A 
ATOM      5  C   UNL     1       2.427   8.187  18.174  0.00  0.00    +0.000 A 
ATOM      6  C   UNL     1       1.686   7.118  18.657  0.00  0.00    +0.000 A 
ATOM      7  N   UNL     1       2.043   5.834  18.479  0.00  0.00    +0.000 NA
ATOM      8  C   UNL     1       3.203   5.598  17.804  0.00  0.00    +0.000 A 
ATOM      9  C   UNL     1       3.590   4.155  17.647  0.00  0.00    +0.000 C 
ATOM     10  N   UNL     1       4.299   3.526  18.773  0.00  0.00    +0.000 NA
ATOM     11  C   UNL     1       5.417   4.233  19.416  0.00  0.00    +0.000 C 
ATOM     12  C   UNL     1       6.036   5.542  18.925  0.00  0.00    +0.000 C 
ATOM     13  C   UNL     1       6.346   5.661  17.427  0.00  0.00    +0.000 C 
ENDROOT
BRANCH  10  14
ATOM     14  C   UNL     1       3.408   2.875  19.742  0.00  0.00    +0.000 C 
ATOM     15  C   UNL     1       2.984   3.779  20.905  0.00  0.00    +0.000 C 
ATOM     16  C   UNL     1       1.756   3.091  21.482  0.00  0.00    +0.000 C 
ATOM     17  C   UNL     1       1.069   2.409  20.309  0.00  0.00    +0.000 C 
ATOM     18  C   UNL     1       2.048   2.462  19.148  0.00  0.00    +0.000 C 
ENDBRANCH  10  14
BRANCH  13  19
ATOM     19  C   UNL     1       6.842   4.340  16.784  0.00  0.00    +0.000 C 
BRANCH  19  20
ATOM     20  O   UNL     1       8.181   4.026  17.163  0.00  0.00    +0.000 OA
ATOM     21  H   UNL     1       8.709   4.829  17.054  0.00  0.00    +0.000 HD
ENDBRANCH  19  20
ENDBRANCH  13  19
TORSDOF 3
ENDMDL
MODEL 7
REMARK VINA RESULT:      -6.1      1.731      2.162
REMARK  Name = 
REMARK  4 active torsions:
REMARK  status: ('A' for Active; 'I' for Inactive)
REMARK    1  A    between atoms: C_1  and  N_2
REMARK    2  A    between atoms: N_10  and  C_11
REMARK    3  A    between atoms: C_18  and  C_19
REMARK    4  A    between atoms: C_19  and  O_20
REMARK                            x       y       z     vdW  Elec       q    Type
REMARK                         _______ _______ _______ _____ _____    ______ ____
ROOT
ATOM      1  C   UNL     1       1.152   3.504  19.867  0.00  0.00    +0.000 C 
ATOM      2  N   UNL     1       2.163   3.891  18.895  0.00  0.00    +0.000 N 
ATOM      3  C   UNL     1       2.402   5.240  18.669  0.00  0.00    +0.000 A 
ATOM      4  C   UNL     1       1.405   6.093  18.192  0.00  0.00    +0.000 A 
ATOM      5  C   UNL     1       1.698   7.411  17.843  0.00  0.00    +0.000 A 
ATOM      6  C   UNL     1       2.996   7.871  18.019  0.00  0.00    +0.000 A 
ATOM      7  N   UNL     1       3.991   7.103  18.496  0.00  0.00    +0.000 NA
ATOM      8  C   UNL     1       3.689   5.809  18.799  0.00  0.00    +0.000 A 
ATOM      9  C   UNL     1       4.829   4.969  19.303  0.00  0.00    +0.000 C 
ATOM     10  N   UNL     1       5.711   4.364  18.292  0.00  0.00    +0.000 NA
ATOM     11  C   UNL     1       5.125   3.689  17.124  0.00  0.00    +0.000 C 
ATOM     12  C   UNL     1       3.635   3.415  16.914  0.00  0.00    +0.000 C 
ATOM     13  C   UNL     1       2.848   2.838  18.099  0.00  0.00    +0.000 C 
ENDROOT
BRANCH  10  14
ATOM     14  C   UNL     1       6.868   5.197  17.944  0.00  0.00    +0.000 C 
ATOM     15  C   UNL     1       6.541   6.351  16.989  0.00  0.00    +0.000 C 
ATOM     16  C   UNL     1       7.715   7.306  17.144  0.00  0.00    +0.000 C 
ATOM     17  C   UNL     1       8.179   7.167  18.586  0.00  0.00    +0.000 C 
ATOM     18  C   UNL     1       7.475   5.944  19.147  0.00  0.00    +0.000 C 
ENDBRANCH  10  14
BRANCH  13  19
ATOM     19  C   UNL     1       3.656   1.829  18.955  0.00  0.00    +0.000 C 
BRANCH  19  20
ATOM     20  O   UNL     1       3.987   0.648  18.227  0.00  0.00    +0.000 OA
ATOM     21  H   UNL     1       3.430   0.629  17.436  0.00  0.00    +0.000 HD
ENDBRANCH  19  20
ENDBRANCH  13  19
TORSDOF 3
ENDMDL
MODEL 8
REMARK VINA RESULT:      -6.0      1.818      2.361
REMARK  Name = 
REMARK  4 active torsions:
REMARK  status: ('A' for Active; 'I' for Inactive)
REMARK    1  A    between atoms: C_1  and  N_2
REMARK    2  A    between atoms: N_10  and  C_11
REMARK    3  A    between atoms: C_18  and  C_19
REMARK    4  A    between atoms: C_19  and  O_20
REMARK                            x       y       z     vdW  Elec       q    Type
REMARK                         _______ _______ _______ _____ _____    ______ ____
ROOT
ATOM      1  C   UNL     1       2.192   2.143  21.381  0.00  0.00    +0.000 C 
ATOM      2  N   UNL     1       2.488   2.839  20.137  0.00  0.00    +0.000 N 
ATOM      3  C   UNL     1       2.516   4.227  20.129  0.00  0.00    +0.000 A 
ATOM      4  C   UNL     1       1.392   4.987  20.458  0.00  0.00    +0.000 A 
ATOM      5  C   UNL     1       1.400   6.374  20.315  0.00  0.00    +0.000 A 
ATOM      6  C   UNL     1       2.563   6.989  19.874  0.00  0.00    +0.000 A 
ATOM      7  N   UNL     1       3.682   6.312  19.565  0.00  0.00    +0.000 NA
ATOM      8  C   UNL     1       3.642   4.955  19.681  0.00  0.00    +0.000 A 
ATOM      9  C   UNL     1       4.899   4.225  19.300  0.00  0.00    +0.000 C 
ATOM     10  N   UNL     1       5.099   3.940  17.871  0.00  0.00    +0.000 NA
ATOM     11  C   UNL     1       3.992   3.392  17.074  0.00  0.00    +0.000 C 
ATOM     12  C   UNL     1       2.643   2.934  17.630  0.00  0.00    +0.000 C 
ATOM     13  C   UNL     1       2.657   2.052  18.886  0.00  0.00    +0.000 C 
ENDROOT
BRANCH  10  14
ATOM     14  C   UNL     1       5.845   4.986  17.160  0.00  0.00    +0.000 C 
ATOM     15  C   UNL     1       4.968   6.129  16.633  0.00  0.00    +0.000 C 
ATOM     16  C   UNL     1       5.949   7.262  16.375  0.00  0.00    +0.000 C 
ATOM     17  C   UNL     1       7.050   7.107  17.414  0.00  0.00    +0.000 C 
ATOM     18  C   UNL     1       6.849   5.742  18.051  0.00  0.00    +0.000 C 
ENDBRANCH  10  14
BRANCH  13  19
ATOM     19  C   UNL     1       3.838   1.047  18.931  0.00  0.00    +0.000 C 
BRANCH  19  20
ATOM     20  O   UNL     1       4.873   1.472  19.815  0.00  0.00    +0.000 OA
ATOM     21  H   UNL     1       4.752   2.420  19.970  0.00  0.00    +0.000 HD
ENDBRANCH  19  20
ENDBRANCH  13  19
TORSDOF 3
ENDMDL
MODEL 9
REMARK VINA RESULT:      -5.8      1.185      1.236
REMARK  Name = 
REMARK  4 active torsions:
REMARK  status: ('A' for Active; 'I' for Inactive)
REMARK    1  A    between atoms: C_1  and  N_2
REMARK    2  A    between atoms: N_10  and  C_11
REMARK    3  A    between atoms: C_18  and  C_19
REMARK    4  A    between atoms: C_19  and  O_20
REMARK                            x       y       z     vdW  Elec       q    Type
REMARK                         _______ _______ _______ _____ _____    ______ ____
ROOT
ATOM      1  C   UNL     1       1.375   6.691  21.397  0.00  0.00    +0.000 C 
ATOM      2  N   UNL     1       1.786   6.038  20.163  0.00  0.00    +0.000 N 
ATOM      3  C   UNL     1       2.458   6.776  19.199  0.00  0.00    +0.000 A 
ATOM      4  C   UNL     1       1.877   7.890  18.589  0.00  0.00    +0.000 A 
ATOM      5  C   UNL     1       2.511   8.538  17.529  0.00  0.00    +0.000 A 
ATOM      6  C   UNL     1       3.753   8.076  17.118  0.00  0.00    +0.000 A 
ATOM      7  N   UNL     1       4.372   7.025  17.682  0.00  0.00    +0.000 NA
ATOM      8  C   UNL     1       3.719   6.387  18.694  0.00  0.00    +0.000 A 
ATOM      9  C   UNL     1       4.423   5.198  19.284  0.00  0.00    +0.000 C 
ATOM     10  N   UNL     1       4.269   3.913  18.583  0.00  0.00    +0.000 NA
ATOM     11  C   UNL     1       2.935   3.482  18.139  0.00  0.00    +0.000 C 
ATOM     12  C   UNL     1       1.620   4.190  18.468  0.00  0.00    +0.000 C 
ATOM     13  C   UNL     1       1.394   4.623  19.923  0.00  0.00    +0.000 C 
ENDROOT
BRANCH  10  14
ATOM     14  C   UNL     1       5.310   3.659  17.580  0.00  0.00    +0.000 C 
ATOM     15  C   UNL     1       4.911   4.054  16.153  0.00  0.00    +0.000 C 
ATOM     16  C   UNL     1       6.235   4.148  15.410  0.00  0.00    +0.000 C 
ATOM     17  C   UNL     1       7.259   4.609  16.436  0.00  0.00    +0.000 C 
ATOM     18  C   UNL     1       6.589   4.491  17.795  0.00  0.00    +0.000 C 
ENDBRANCH  10  14
BRANCH  13  19
ATOM     19  C   UNL     1       1.962   3.628  20.968  0.00  0.00    +0.000 C 
BRANCH  19  20
ATOM     20  O   UNL     1       0.961   2.745  21.470  0.00  0.00    +0.000 OA
ATOM     21  H   UNL     1       1.032   1.916  20.978  0.00  0.00    +0.000 HD
ENDBRANCH  19  20
ENDBRANCH  13  19
TORSDOF 3
ENDMDL
