MODEL 1
REMARK VINA RESULT:      -7.4      0.000      0.000
REMARK  Name = 
REMARK  8 active torsions:
REMARK  status: ('A' for Active; 'I' for Inactive)
REMARK    1  A    between atoms: C_1  and  C_2
REMARK    2  A    between atoms: C_2  and  C_4
REMARK    3  A    between atoms: C_4  and  C_5
REMARK    4  A    between atoms: C_5  and  C_6
REMARK    5  A    between atoms: C_6  and  O_8
REMARK    6  A    between atoms: O_8  and  C_9
REMARK    7  A    between atoms: C_15  and  O_16
REMARK    8  A    between atoms: O_16  and  C_17
REMARK                            x       y       z     vdW  Elec       q    Type
REMARK                         _______ _______ _______ _____ _____    ______ ____
ROOT
ATOM      1  C   UNL     1       4.221   5.073  18.911  0.00  0.00    +0.000 A 
ATOM      2  C   UNL     1       4.394   3.684  18.870  0.00  0.00    +0.000 A 
ATOM      3  C   UNL     1       3.379   2.868  18.376  0.00  0.00    +0.000 A 
ATOM      4 CL   UNL     1       3.576   1.161  18.385  0.00  0.00    +0.000 Cl
ATOM      5  C   UNL     1       2.199   3.426  17.893  0.00  0.00    +0.000 A 
ATOM      6  C   UNL     1       2.052   4.815  17.871  0.00  0.00    +0.000 A 
ATOM      7  C   UNL     1       3.070   5.653  18.346  0.00  0.00    +0.000 A 
ENDROOT
BRANCH   1   8
ATOM      8  O   UNL     1       5.234   5.898  19.444  0.00  0.00    +0.000 OA
BRANCH   8   9
ATOM      9  C   UNL     1       6.582   5.621  19.205  0.00  0.00    +0.000 C 
ATOM     10  O   UNL     1       7.361   5.099  19.988  0.00  0.00    +0.000 OA
BRANCH   9  11
ATOM     11  C   UNL     1       6.951   5.975  17.784  0.00  0.00    +0.000 C 
BRANCH  11  12
ATOM     12  C   UNL     1       7.271   4.749  16.948  0.00  0.00    +0.000 C 
BRANCH  12  14
ATOM     13  C   UNL     1       5.429   5.769  15.489  0.00  0.00    +0.000 C 
ATOM     14  C   UNL     1       6.315   4.590  15.789  0.00  0.00    +0.000 C 
ATOM     15  O   UNL     1       6.226   3.539  15.158  0.00  0.00    +0.000 OA
ENDBRANCH  12  14
ENDBRANCH  11  12
ENDBRANCH   9  11
ENDBRANCH   8   9
ENDBRANCH   1   8
BRANCH   7  16
ATOM     16  O   UNL     1       2.760   6.990  18.296  0.00  0.00    +0.000 OA
BRANCH  16  17
ATOM     17  C   UNL     1       2.085   7.627  19.311  0.00  0.00    +0.000 A 
ATOM     18  C   UNL     1       1.851   7.069  20.572  0.00  0.00    +0.000 A 
ATOM     19  C   UNL     1       1.050   7.747  21.497  0.00  0.00    +0.000 A 
ATOM     20  C   UNL     1       0.539   9.006  21.187  0.00  0.00    +0.000 A 
ATOM     21 CL   UNL     1      -0.532   9.786  22.284  0.00  0.00    +0.000 Cl
ATOM     22  C   UNL     1       0.860   9.622  19.982  0.00  0.00    +0.000 A 
ATOM     23  C   UNL     1       1.640   8.935  19.050  0.00  0.00    +0.000 A 
ATOM     24 CL   UNL     1       2.033   9.743  17.573  0.00  0.00    +0.000 Cl
ENDBRANCH  16  17
ENDBRANCH   7  16
TORSDOF 7
ENDMDL
MODEL 2
REMARK VINA RESULT:      -7.3      1.775      2.661
REMARK  Name = 
REMARK  8 active torsions:
REMARK  status: ('A' for Active; 'I' for Inactive)
REMARK    1  A    between atoms: C_1  and  C_2
REMARK    2  A    between atoms: C_2  and  C_4
REMARK    3  A    between atoms: C_4  and  C_5
REMARK    4  A    between atoms: C_5  and  C_6
REMARK    5  A    between atoms: C_6  and  O_8
REMARK    6  A    between atoms: O_8  and  C_9
REMARK    7  A    between atoms: C_15  and  O_16
REMARK    8  A    between atoms: O_16  and  C_17
REMARK                            x       y       z     vdW  Elec       q    Type
REMARK                         _______ _______ _______ _____ _____    ______ ____
ROOT
ATOM      1  C   UNL     1       2.804   5.600  18.490  0.00  0.00    +0.000 A 
ATOM      2  C   UNL     1       2.500   4.246  18.296  0.00  0.00    +0.000 A 
ATOM      3  C   UNL     1       1.772   3.549  19.257  0.00  0.00    +0.000 A 
ATOM      4 CL   UNL     1       1.456   1.874  19.040  0.00  0.00    +0.000 Cl
ATOM      5  C   UNL     1       1.316   4.197  20.402  0.00  0.00    +0.000 A 
ATOM      6  C   UNL     1       1.561   5.563  20.565  0.00  0.00    +0.000 A 
ATOM      7  C   UNL     1       2.275   6.285  19.600  0.00  0.00    +0.000 A 
ENDROOT
BRANCH   1   8
ATOM      8  O   UNL     1       3.572   6.298  17.534  0.00  0.00    +0.000 OA
BRANCH   8   9
ATOM      9  C   UNL     1       4.953   6.107  17.450  0.00  0.00    +0.000 C 
ATOM     10  O   UNL     1       5.706   5.863  18.380  0.00  0.00    +0.000 OA
BRANCH   9  11
ATOM     11  C   UNL     1       5.406   6.154  16.009  0.00  0.00    +0.000 C 
BRANCH  11  12
ATOM     12  C   UNL     1       5.484   4.774  15.383  0.00  0.00    +0.000 C 
BRANCH  12  14
ATOM     13  C   UNL     1       6.299   3.742  13.186  0.00  0.00    +0.000 C 
ATOM     14  C   UNL     1       6.556   4.694  14.322  0.00  0.00    +0.000 C 
ATOM     15  O   UNL     1       7.605   5.330  14.407  0.00  0.00    +0.000 OA
ENDBRANCH  12  14
ENDBRANCH  11  12
ENDBRANCH   9  11
ENDBRANCH   8   9
ENDBRANCH   1   8
BRANCH   7  16
ATOM     16  O   UNL     1       2.468   7.606  19.922  0.00  0.00    +0.000 OA
BRANCH  16  17
ATOM     17  C   UNL     1       1.597   8.594  19.525  0.00  0.00    +0.000 A 
ATOM     18  C   UNL     1       1.331   8.920  18.192  0.00  0.00    +0.000 A 
ATOM     19  C   UNL     1       0.523  10.022  17.890  0.00  0.00    +0.000 A 
ATOM     20  C   UNL     1      -0.070  10.754  18.917  0.00  0.00    +0.000 A 
ATOM     21 CL   UNL     1      -0.974  12.168  18.544  0.00  0.00    +0.000 Cl
ATOM     22  C   UNL     1       0.092  10.369  20.244  0.00  0.00    +0.000 A 
ATOM     23  C   UNL     1       0.918   9.284  20.545  0.00  0.00    +0.000 A 
ATOM     24 CL   UNL     1       1.078   8.827  22.205  0.00  0.00    +0.000 Cl
ENDBRANCH  16  17
ENDBRANCH   7  16
TORSDOF 7
ENDMDL
MODEL 3
REMARK VINA RESULT:      -7.3      1.659      2.052
REMARK  Name = 
REMARK  8 active torsions:
REMARK  status: ('A' for Active; 'I' for Inactive)
REMARK    1  A    between atoms: C_1  and  C_2
REMARK    2  A    between atoms: C_2  and  C_4
REMARK    3  A    between atoms: C_4  and  C_5
REMARK    4  A    between atoms: C_5  and  C_6
REMARK    5  A    between atoms: C_6  and  O_8
REMARK    6  A    between atoms: O_8  and  C_9
REMARK    7  A    between atoms: C_15  and  O_16
REMARK    8  A    between atoms: O_16  and  C_17
REMARK                            x       y       z     vdW  Elec       q    Type
REMARK                         _______ _______ _______ _____ _____    ______ ____
ROOT
ATOM      1  C   UNL     1       2.628   5.113  18.371  0.00  0.00    +0.000 A 
ATOM      2  C   UNL     1       2.074   3.851  18.114  0.00  0.00    +0.000 A 
ATOM      3  C   UNL     1       1.238   3.251  19.054  0.00  0.00    +0.000 A 
ATOM      4 CL   UNL     1       0.612   1.679  18.757  0.00  0.00    +0.000 Cl
ATOM      5  C   UNL     1       0.923   3.910  20.238  0.00  0.00    +0.000 A 
ATOM      6  C   UNL     1       1.420   5.196  20.466  0.00  0.00    +0.000 A 
ATOM      7  C   UNL     1       2.247   5.823  19.524  0.00  0.00    +0.000 A 
ENDROOT
BRANCH   1   8
ATOM      8  O   UNL     1       3.504   5.705  17.437  0.00  0.00    +0.000 OA
BRANCH   8   9
ATOM      9  C   UNL     1       4.886   5.528  17.540  0.00  0.00    +0.000 C 
ATOM     10  O   UNL     1       5.648   6.191  18.227  0.00  0.00    +0.000 OA
BRANCH   9  11
ATOM     11  C   UNL     1       5.326   4.324  16.743  0.00  0.00    +0.000 C 
BRANCH  11  12
ATOM     12  C   UNL     1       6.772   4.423  16.296  0.00  0.00    +0.000 C 
BRANCH  12  14
ATOM     13  C   UNL     1       5.888   4.084  13.916  0.00  0.00    +0.000 C 
ATOM     14  C   UNL     1       6.889   4.745  14.824  0.00  0.00    +0.000 C 
ATOM     15  O   UNL     1       7.784   5.464  14.384  0.00  0.00    +0.000 OA
ENDBRANCH  12  14
ENDBRANCH  11  12
ENDBRANCH   9  11
ENDBRANCH   8   9
ENDBRANCH   1   8
BRANCH   7  16
ATOM     16  O   UNL     1       2.687   7.066  19.910  0.00  0.00    +0.000 OA
BRANCH  16  17
ATOM     17  C   UNL     1       1.824   8.113  20.137  0.00  0.00    +0.000 A 
ATOM     18  C   UNL     1       1.252   8.407  21.380  0.00  0.00    +0.000 A 
ATOM     19  C   UNL     1       0.291   9.418  21.485  0.00  0.00    +0.000 A 
ATOM     20  C   UNL     1      -0.049  10.176  20.365  0.00  0.00    +0.000 A 
ATOM     21 CL   UNL     1      -1.306  11.344  20.476  0.00  0.00    +0.000 Cl
ATOM     22  C   UNL     1       0.597   9.971  19.150  0.00  0.00    +0.000 A 
ATOM     23  C   UNL     1       1.538   8.946  19.041  0.00  0.00    +0.000 A 
ATOM     24 CL   UNL     1       2.332   8.735  17.519  0.00  0.00    +0.000 Cl
ENDBRANCH  16  17
ENDBRANCH   7  16
TORSDOF 7
ENDMDL
MODEL 4
REMARK VINA RESULT:      -7.1      1.059      1.298
REMARK  Name = 
REMARK  8 active torsions:
REMARK  status: ('A' for Active; 'I' for Inactive)
REMARK    1  A    between atoms: C_1  and  C_2
REMARK    2  A    between atoms: C_2  and  C_4
REMARK    3  A    between atoms: C_4  and  C_5
REMARK    4  A    between atoms: C_5  and  C_6
REMARK    5  A    between atoms: C_6  and  O_8
REMARK    6  A    between atoms: O_8  and  C_9
REMARK    7  A    between atoms: C_15  and  O_16
REMARK    8  A    between atoms: O_16  and  C_17
REMARK                            x       y       z     vdW  Elec       q    Type
REMARK                         _______ _______ _______ _____ _____    ______ ____
ROOT
ATOM      1  C   UNL     1       4.176   5.178  18.321  0.00  0.00    +0.000 A 
ATOM      2  C   UNL     1       4.376   3.791  18.295  0.00  0.00    +0.000 A 
ATOM      3  C   UNL     1       3.286   2.930  18.182  0.00  0.00    +0.000 A 
ATOM      4 CL   UNL     1       3.535   1.231  18.212  0.00  0.00    +0.000 Cl
ATOM      5  C   UNL     1       1.996   3.440  18.065  0.00  0.00    +0.000 A 
ATOM      6  C   UNL     1       1.802   4.823  18.023  0.00  0.00    +0.000 A 
ATOM      7  C   UNL     1       2.887   5.704  18.116  0.00  0.00    +0.000 A 
ENDROOT
BRANCH   1   8
ATOM      8  O   UNL     1       5.275   6.049  18.472  0.00  0.00    +0.000 OA
BRANCH   8   9
ATOM      9  C   UNL     1       5.996   6.491  17.360  0.00  0.00    +0.000 C 
ATOM     10  O   UNL     1       5.635   7.337  16.557  0.00  0.00    +0.000 OA
BRANCH   9  11
ATOM     11  C   UNL     1       7.358   5.839  17.319  0.00  0.00    +0.000 C 
BRANCH  11  12
ATOM     12  C   UNL     1       7.349   4.529  16.554  0.00  0.00    +0.000 C 
BRANCH  12  14
ATOM     13  C   UNL     1       6.063   3.874  14.438  0.00  0.00    +0.000 C 
ATOM     14  C   UNL     1       7.116   4.738  15.076  0.00  0.00    +0.000 C 
ATOM     15  O   UNL     1       7.785   5.532  14.417  0.00  0.00    +0.000 OA
ENDBRANCH  12  14
ENDBRANCH  11  12
ENDBRANCH   9  11
ENDBRANCH   8   9
ENDBRANCH   1   8
BRANCH   7  16
ATOM     16  O   UNL     1       2.531   7.030  18.101  0.00  0.00    +0.000 OA
BRANCH  16  17
ATOM     17  C   UNL     1       1.982   7.656  19.195  0.00  0.00    +0.000 A 
ATOM     18  C   UNL     1       1.824   7.057  20.449  0.00  0.00    +0.000 A 
ATOM     19  C   UNL     1       1.143   7.735  21.466  0.00  0.00    +0.000 A 
ATOM     20  C   UNL     1       0.681   9.031  21.252  0.00  0.00    +0.000 A 
ATOM     21 CL   UNL     1      -0.247   9.818  22.467  0.00  0.00    +0.000 Cl
ATOM     22  C   UNL     1       0.934   9.683  20.048  0.00  0.00    +0.000 A 
ATOM     23  C   UNL     1       1.592   8.997  19.026  0.00  0.00    +0.000 A 
ATOM     24 CL   UNL     1       1.903   9.847  17.553  0.00  0.00    +0.000 Cl
ENDBRANCH  16  17
ENDBRANCH   7  16
TORSDOF 7
ENDMDL
MODEL 5
REMARK VINA RESULT:      -7.1      1.543      2.566
REMARK  Name = 
REMARK  8 active torsions:
REMARK  status: ('A' for Active; 'I' for Inactive)
REMARK    1  A    between atoms: C_1  and  C_2
REMARK    2  A    between atoms: C_2  and  C_4
REMARK    3  A    between atoms: C_4  and  C_5
REMARK    4  A    between atoms: C_5  and  C_6
REMARK    5  A    between atoms: C_6  and  O_8
REMARK    6  A    between atoms: O_8  and  C_9
REMARK    7  A    between atoms: C_15  and  O_16
REMARK    8  A    between atoms: O_16  and  C_17
REMARK                            x       y       z     vdW  Elec       q    Type
REMARK                         _______ _______ _______ _____ _____    ______ ____
ROOT
ATOM      1  C   UNL     1       2.772   5.243  18.493  0.00  0.00    +0.000 A 
ATOM      2  C   UNL     1       2.253   3.976  18.195  0.00  0.00    +0.000 A 
ATOM      3  C   UNL     1       1.348   3.370  19.064  0.00  0.00    +0.000 A 
ATOM      4 CL   UNL     1       0.762   1.791  18.721  0.00  0.00    +0.000 Cl
ATOM      5  C   UNL     1       0.931   4.028  20.217  0.00  0.00    +0.000 A 
ATOM      6  C   UNL     1       1.395   5.319  20.481  0.00  0.00    +0.000 A 
ATOM      7  C   UNL     1       2.291   5.952  19.609  0.00  0.00    +0.000 A 
ENDROOT
BRANCH   1   8
ATOM      8  O   UNL     1       3.716   5.842  17.633  0.00  0.00    +0.000 OA
BRANCH   8   9
ATOM      9  C   UNL     1       4.703   5.076  17.009  0.00  0.00    +0.000 C 
ATOM     10  O   UNL     1       4.899   4.991  15.807  0.00  0.00    +0.000 OA
BRANCH   9  11
ATOM     11  C   UNL     1       5.586   4.412  18.039  0.00  0.00    +0.000 C 
BRANCH  11  12
ATOM     12  C   UNL     1       7.060   4.675  17.794  0.00  0.00    +0.000 C 
BRANCH  12  14
ATOM     13  C   UNL     1       7.795   7.107  18.116  0.00  0.00    +0.000 C 
ATOM     14  C   UNL     1       7.606   5.740  18.716  0.00  0.00    +0.000 C 
ATOM     15  O   UNL     1       7.929   5.494  19.876  0.00  0.00    +0.000 OA
ENDBRANCH  12  14
ENDBRANCH  11  12
ENDBRANCH   9  11
ENDBRANCH   8   9
ENDBRANCH   1   8
BRANCH   7  16
ATOM     16  O   UNL     1       2.686   7.200  20.027  0.00  0.00    +0.000 OA
BRANCH  16  17
ATOM     17  C   UNL     1       1.791   8.223  20.232  0.00  0.00    +0.000 A 
ATOM     18  C   UNL     1       1.223   8.536  21.472  0.00  0.00    +0.000 A 
ATOM     19  C   UNL     1       0.229   9.517  21.557  0.00  0.00    +0.000 A 
ATOM     20  C   UNL     1      -0.147  10.229  20.419  0.00  0.00    +0.000 A 
ATOM     21 CL   UNL     1      -1.442  11.357  20.509  0.00  0.00    +0.000 Cl
ATOM     22  C   UNL     1       0.492  10.008  19.203  0.00  0.00    +0.000 A 
ATOM     23  C   UNL     1       1.466   9.013  19.115  0.00  0.00    +0.000 A 
ATOM     24 CL   UNL     1       2.251   8.783  17.591  0.00  0.00    +0.000 Cl
ENDBRANCH  16  17
ENDBRANCH   7  16
TORSDOF 7
ENDMDL
MODEL 6
REMARK VINA RESULT:      -6.9      2.597      4.653
REMARK  Name = 
REMARK  8 active torsions:
REMARK  status: ('A' for Active; 'I' for Inactive)
REMARK    1  A    between atoms: C_1  and  C_2
REMARK    2  A    between atoms: C_2  and  C_4
REMARK    3  A    between atoms: C_4  and  C_5
REMARK    4  A    between atoms: C_5  and  C_6
REMARK    5  A    between atoms: C_6  and  O_8
REMARK    6  A    between atoms: O_8  and  C_9
REMARK    7  A    between atoms: C_15  and  O_16
REMARK    8  A    between atoms: O_16  and  C_17
REMARK                            x       y       z     vdW  Elec       q    Type
REMARK                         _______ _______ _______ _____ _____    ______ ____
ROOT
ATOM      1  C   UNL     1       3.322   4.682  17.446  0.00  0.00    +0.000 A 
ATOM      2  C   UNL     1       4.140   4.071  16.487  0.00  0.00    +0.000 A 
ATOM      3  C   UNL     1       5.437   4.535  16.278  0.00  0.00    +0.000 A 
ATOM      4 CL   UNL     1       6.413   3.818  15.059  0.00  0.00    +0.000 Cl
ATOM      5  C   UNL     1       5.939   5.587  17.038  0.00  0.00    +0.000 A 
ATOM      6  C   UNL     1       5.148   6.153  18.041  0.00  0.00    +0.000 A 
ATOM      7  C   UNL     1       3.848   5.688  18.278  0.00  0.00    +0.000 A 
ENDROOT
BRANCH   1   8
ATOM      8  O   UNL     1       1.996   4.238  17.632  0.00  0.00    +0.000 OA
BRANCH   8   9
ATOM      9  C   UNL     1       1.726   2.902  17.940  0.00  0.00    +0.000 C 
ATOM     10  O   UNL     1       2.278   1.925  17.458  0.00  0.00    +0.000 OA
BRANCH   9  11
ATOM     11  C   UNL     1       0.697   2.811  19.043  0.00  0.00    +0.000 C 
BRANCH  11  12
ATOM     12  C   UNL     1       1.054   3.674  20.239  0.00  0.00    +0.000 C 
BRANCH  12  14
ATOM     13  C   UNL     1       3.324   2.669  20.866  0.00  0.00    +0.000 C 
ATOM     14  C   UNL     1       1.892   2.924  21.247  0.00  0.00    +0.000 C 
ATOM     15  O   UNL     1       1.418   2.497  22.299  0.00  0.00    +0.000 OA
ENDBRANCH  12  14
ENDBRANCH  11  12
ENDBRANCH   9  11
ENDBRANCH   8   9
ENDBRANCH   1   8
BRANCH   7  16
ATOM     16  O   UNL     1       3.183   6.371  19.267  0.00  0.00    +0.000 OA
BRANCH  16  17
ATOM     17  C   UNL     1       2.498   7.538  19.020  0.00  0.00    +0.000 A 
ATOM     18  C   UNL     1       2.598   8.275  17.836  0.00  0.00    +0.000 A 
ATOM     19  C   UNL     1       1.954   9.513  17.727  0.00  0.00    +0.000 A 
ATOM     20  C   UNL     1       1.161   9.981  18.774  0.00  0.00    +0.000 A 
ATOM     21 CL   UNL     1       0.461  11.548  18.678  0.00  0.00    +0.000 Cl
ATOM     22  C   UNL     1       0.960   9.204  19.910  0.00  0.00    +0.000 A 
ATOM     23  C   UNL     1       1.621   7.980  20.027  0.00  0.00    +0.000 A 
ATOM     24 CL   UNL     1       1.330   7.036  21.446  0.00  0.00    +0.000 Cl
ENDBRANCH  16  17
ENDBRANCH   7  16
TORSDOF 7
ENDMDL
MODEL 7
REMARK VINA RESULT:      -6.9      1.791      2.277
REMARK  Name = 
REMARK  8 active torsions:
REMARK  status: ('A' for Active; 'I' for Inactive)
REMARK    1  A    between atoms: C_1  and  C_2
REMARK    2  A    between atoms: C_2  and  C_4
REMARK    3  A    between atoms: C_4  and  C_5
REMARK    4  A    between atoms: C_5  and  C_6
REMARK    5  A    between atoms: C_6  and  O_8
REMARK    6  A    between atoms: O_8  and  C_9
REMARK    7  A    between atoms: C_15  and  O_16
REMARK    8  A    between atoms: O_16  and  C_17
REMARK                            x       y       z     vdW  Elec       q    Type
REMARK                         _______ _______ _______ _____ _____    ______ ____
ROOT
ATOM      1  C   UNL     1       3.245   4.878  18.976  0.00  0.00    +0.000 A 
ATOM      2  C   UNL     1       2.792   3.598  18.630  0.00  0.00    +0.000 A 
ATOM      3  C   UNL     1       1.620   3.096  19.193  0.00  0.00    +0.000 A 
ATOM      4 CL   UNL     1       1.104   1.503  18.809  0.00  0.00    +0.000 Cl
ATOM      5  C   UNL     1       0.877   3.871  20.078  0.00  0.00    +0.000 A 
ATOM      6  C   UNL     1       1.291   5.172  20.372  0.00  0.00    +0.000 A 
ATOM      7  C   UNL     1       2.456   5.701  19.801  0.00  0.00    +0.000 A 
ENDROOT
BRANCH   1   8
ATOM      8  O   UNL     1       4.450   5.373  18.435  0.00  0.00    +0.000 OA
BRANCH   8   9
ATOM      9  C   UNL     1       5.684   4.976  18.954  0.00  0.00    +0.000 C 
ATOM     10  O   UNL     1       5.880   4.498  20.061  0.00  0.00    +0.000 OA
BRANCH   9  11
ATOM     11  C   UNL     1       6.770   5.130  17.916  0.00  0.00    +0.000 C 
BRANCH  11  12
ATOM     12  C   UNL     1       7.743   6.243  18.257  0.00  0.00    +0.000 C 
BRANCH  12  14
ATOM     13  C   UNL     1       8.167   8.750  17.953  0.00  0.00    +0.000 C 
ATOM     14  C   UNL     1       7.430   7.517  17.507  0.00  0.00    +0.000 C 
ATOM     15  O   UNL     1       6.582   7.557  16.618  0.00  0.00    +0.000 OA
ENDBRANCH  12  14
ENDBRANCH  11  12
ENDBRANCH   9  11
ENDBRANCH   8   9
ENDBRANCH   1   8
BRANCH   7  16
ATOM     16  O   UNL     1       2.752   6.976  20.219  0.00  0.00    +0.000 OA
BRANCH  16  17
ATOM     17  C   UNL     1       1.845   8.006  20.134  0.00  0.00    +0.000 A 
ATOM     18  C   UNL     1       1.047   8.443  21.196  0.00  0.00    +0.000 A 
ATOM     19  C   UNL     1       0.067   9.417  20.979  0.00  0.00    +0.000 A 
ATOM     20  C   UNL     1      -0.071   9.999  19.720  0.00  0.00    +0.000 A 
ATOM     21 CL   UNL     1      -1.346  11.116  19.432  0.00  0.00    +0.000 Cl
ATOM     22  C   UNL     1       0.792   9.657  18.684  0.00  0.00    +0.000 A 
ATOM     23  C   UNL     1       1.754   8.667  18.896  0.00  0.00    +0.000 A 
ATOM     24 CL   UNL     1       2.821   8.284  17.590  0.00  0.00    +0.000 Cl
ENDBRANCH  16  17
ENDBRANCH   7  16
TORSDOF 7
ENDMDL
MODEL 8
REMARK VINA RESULT:      -6.9      1.827      2.890
REMARK  Name = 
REMARK  8 active torsions:
REMARK  status: ('A' for Active; 'I' for Inactive)
REMARK    1  A    between atoms: C_1  and  C_2
REMARK    2  A    between atoms: C_2  and  C_4
REMARK    3  A    between atoms: C_4  and  C_5
REMARK    4  A    between atoms: C_5  and  C_6
REMARK    5  A    between atoms: C_6  and  O_8
REMARK    6  A    between atoms: O_8  and  C_9
REMARK    7  A    between atoms: C_15  and  O_16
REMARK    8  A    between atoms: O_16  and  C_17
REMARK                            x       y       z     vdW  Elec       q    Type
REMARK                         _______ _______ _______ _____ _____    ______ ____
ROOT
ATOM      1  C   UNL     1       3.044   6.057  18.189  0.00  0.00    +0.000 A 
ATOM      2  C   UNL     1       2.934   4.692  17.891  0.00  0.00    +0.000 A 
ATOM      3  C   UNL     1       2.319   3.827  18.794  0.00  0.00    +0.000 A 
ATOM      4 CL   UNL     1       2.242   2.146  18.449  0.00  0.00    +0.000 Cl
ATOM      5  C   UNL     1       1.783   4.315  19.982  0.00  0.00    +0.000 A 
ATOM      6  C   UNL     1       1.831   5.686  20.249  0.00  0.00    +0.000 A 
ATOM      7  C   UNL     1       2.430   6.573  19.345  0.00  0.00    +0.000 A 
ENDROOT
BRANCH   1   8
ATOM      8  O   UNL     1       3.699   6.926  17.292  0.00  0.00    +0.000 OA
BRANCH   8   9
ATOM      9  C   UNL     1       4.880   6.540  16.654  0.00  0.00    +0.000 C 
ATOM     10  O   UNL     1       4.963   5.906  15.614  0.00  0.00    +0.000 OA
BRANCH   9  11
ATOM     11  C   UNL     1       6.081   7.094  17.383  0.00  0.00    +0.000 C 
BRANCH  11  12
ATOM     12  C   UNL     1       7.354   6.333  17.064  0.00  0.00    +0.000 C 
BRANCH  12  14
ATOM     13  C   UNL     1       7.126   5.423  19.447  0.00  0.00    +0.000 C 
ATOM     14  C   UNL     1       7.595   5.201  18.035  0.00  0.00    +0.000 C 
ATOM     15  O   UNL     1       8.190   4.177  17.706  0.00  0.00    +0.000 OA
ENDBRANCH  12  14
ENDBRANCH  11  12
ENDBRANCH   9  11
ENDBRANCH   8   9
ENDBRANCH   1   8
BRANCH   7  16
ATOM     16  O   UNL     1       2.434   7.880  19.767  0.00  0.00    +0.000 OA
BRANCH  16  17
ATOM     17  C   UNL     1       1.417   8.754  19.464  0.00  0.00    +0.000 A 
ATOM     18  C   UNL     1       1.035   9.097  18.163  0.00  0.00    +0.000 A 
ATOM     19  C   UNL     1       0.069  10.088  17.957  0.00  0.00    +0.000 A 
ATOM     20  C   UNL     1      -0.559  10.687  19.047  0.00  0.00    +0.000 A 
ATOM     21 CL   UNL     1      -1.666  11.978  18.791  0.00  0.00    +0.000 Cl
ATOM     22  C   UNL     1      -0.272  10.272  20.344  0.00  0.00    +0.000 A 
ATOM     23  C   UNL     1       0.709   9.300  20.549  0.00  0.00    +0.000 A 
ATOM     24 CL   UNL     1       1.023   8.799  22.174  0.00  0.00    +0.000 Cl
ENDBRANCH  16  17
ENDBRANCH   7  16
TORSDOF 7
ENDMDL
MODEL 9
REMARK VINA RESULT:      -6.9      1.506      1.875
REMARK  Name = 
REMARK  8 active torsions:
REMARK  status: ('A' for Active; 'I' for Inactive)
REMARK    1  A    between atoms: C_1  and  C_2
REMARK    2  A    between atoms: C_2  and  C_4
REMARK    3  A    between atoms: C_4  and  C_5
REMARK    4  A    between atoms: C_5  and  C_6
REMARK    5  A    between atoms: C_6  and  O_8
REMARK    6  A    between atoms: O_8  and  C_9
REMARK    7  A    between atoms: C_15  and  O_16
REMARK    8  A    between atoms: O_16  and  C_17
REMARK                            x       y       z     vdW  Elec       q    Type
REMARK                         _______ _______ _______ _____ _____    ______ ____
ROOT
ATOM      1  C   UNL     1       2.963   5.191  18.725  0.00  0.00    +0.000 A 
ATOM      2  C   UNL     1       2.522   3.903  18.392  0.00  0.00    +0.000 A 
ATOM      3  C   UNL     1       1.498   3.305  19.123  0.00  0.00    +0.000 A 
ATOM      4 CL   UNL     1       1.004   1.703  18.746  0.00  0.00    +0.000 Cl
ATOM      5  C   UNL     1       0.886   3.991  20.169  0.00  0.00    +0.000 A 
ATOM      6  C   UNL     1       1.278   5.300  20.458  0.00  0.00    +0.000 A 
ATOM      7  C   UNL     1       2.294   5.925  19.722  0.00  0.00    +0.000 A 
ENDROOT
BRANCH   1   8
ATOM      8  O   UNL     1       4.024   5.783  18.009  0.00  0.00    +0.000 OA
BRANCH   8   9
ATOM      9  C   UNL     1       5.339   5.691  18.472  0.00  0.00    +0.000 C 
ATOM     10  O   UNL     1       5.687   5.350  19.592  0.00  0.00    +0.000 OA
BRANCH   9  11
ATOM     11  C   UNL     1       6.314   5.988  17.358  0.00  0.00    +0.000 C 
BRANCH  11  12
ATOM     12  C   UNL     1       5.682   5.856  15.985  0.00  0.00    +0.000 C 
BRANCH  12  14
ATOM     13  C   UNL     1       6.788   4.686  13.994  0.00  0.00    +0.000 C 
ATOM     14  C   UNL     1       6.065   4.562  15.308  0.00  0.00    +0.000 C 
ATOM     15  O   UNL     1       5.757   3.467  15.774  0.00  0.00    +0.000 OA
ENDBRANCH  12  14
ENDBRANCH  11  12
ENDBRANCH   9  11
ENDBRANCH   8   9
ENDBRANCH   1   8
BRANCH   7  16
ATOM     16  O   UNL     1       2.593   7.194  20.153  0.00  0.00    +0.000 OA
BRANCH  16  17
ATOM     17  C   UNL     1       1.668   8.212  20.142  0.00  0.00    +0.000 A 
ATOM     18  C   UNL     1       0.903   8.593  21.249  0.00  0.00    +0.000 A 
ATOM     19  C   UNL     1      -0.099   9.559  21.107  0.00  0.00    +0.000 A 
ATOM     20  C   UNL     1      -0.293  10.187  19.878  0.00  0.00    +0.000 A 
ATOM     21 CL   UNL     1      -1.595  11.293  19.681  0.00  0.00    +0.000 Cl
ATOM     22  C   UNL     1       0.537   9.900  18.799  0.00  0.00    +0.000 A 
ATOM     23  C   UNL     1       1.521   8.919  18.936  0.00  0.00    +0.000 A 
ATOM     24 CL   UNL     1       2.544   8.606  17.577  0.00  0.00    +0.000 Cl
ENDBRANCH  16  17
ENDBRANCH   7  16
TORSDOF 7
ENDMDL
