MODEL 1
REMARK VINA RESULT:      -8.4      0.000      0.000
REMARK  Name = 
REMARK  6 active torsions:
REMARK  status: ('A' for Active; 'I' for Inactive)
REMARK    1  A    between atoms: C_1  and  O_2
REMARK    2  A    between atoms: O_2  and  C_3
REMARK    3  A    between atoms: C_5  and  O_6
REMARK    4  A    between atoms: O_6  and  C_7
REMARK    5  A    between atoms: C_15  and  C_16
REMARK    6  A    between atoms: C_16  and  O_18
REMARK                            x       y       z     vdW  Elec       q    Type
REMARK                         _______ _______ _______ _____ _____    ______ ____
ROOT
ATOM      1  C   UNL     1      -0.146  10.269  21.004  0.00  0.00    +0.000 A 
ATOM      2  C   UNL     1       0.463  10.902  19.931  0.00  0.00    +0.000 A 
ATOM      3  C   UNL     1       1.388  10.238  19.117  0.00  0.00    +0.000 A 
ATOM      4  C   UNL     1       1.710   8.880  19.382  0.00  0.00    +0.000 A 
ATOM      5  C   UNL     1       2.608   8.094  18.650  0.00  0.00    +0.000 A 
ATOM      6  C   UNL     1       2.839   6.738  18.909  0.00  0.00    +0.000 A 
ATOM      7  N   UNL     1       2.227   6.152  19.971  0.00  0.00    +0.000 N 
ATOM      8  C   UNL     1       1.372   6.878  20.740  0.00  0.00    +0.000 A 
ATOM      9  C   UNL     1       1.087   8.229  20.471  0.00  0.00    +0.000 A 
ATOM     10  C   UNL     1       0.174   8.940  21.274  0.00  0.00    +0.000 A 
ATOM     11  C   UNL     1       2.398   4.684  20.246  0.00  0.00    +0.000 C 
ATOM     12  C   UNL     1       3.838   4.259  19.971  0.00  0.00    +0.000 C 
ATOM     13  C   UNL     1       4.281   4.708  18.605  0.00  0.00    +0.000 A 
ATOM     14  C   UNL     1       5.235   3.967  17.880  0.00  0.00    +0.000 A 
ATOM     15  C   UNL     1       5.648   4.459  16.660  0.00  0.00    +0.000 A 
ATOM     16  C   UNL     1       5.134   5.617  16.147  0.00  0.00    +0.000 A 
ATOM     17  C   UNL     1       4.186   6.350  16.822  0.00  0.00    +0.000 A 
ATOM     18  C   UNL     1       3.762   5.925  18.098  0.00  0.00    +0.000 A 
ATOM     19  O   UNL     1       5.674   5.951  14.948  0.00  0.00    +0.000 OA
ATOM     20  C   UNL     1       6.638   4.890  14.782  0.00  0.00    +0.000 C 
ATOM     21  O   UNL     1       6.579   3.906  15.841  0.00  0.00    +0.000 OA
ENDROOT
BRANCH   1  23
ATOM     22  C   UNL     1      -1.018  10.435  23.209  0.00  0.00    +0.000 C 
ATOM     23  O   UNL     1      -1.064  10.843  21.841  0.00  0.00    +0.000 OA
ENDBRANCH   1  23
BRANCH   3  24
ATOM     24  O   UNL     1       1.824  11.092  18.141  0.00  0.00    +0.000 OA
ATOM     25  C   UNL     1       2.182  12.439  18.362  0.00  0.00    +0.000 C 
ENDBRANCH   3  24
BRANCH  11  26
ATOM     26  C   UNL     1       1.371   3.922  19.422  0.00  0.00    +0.000 C 
ATOM     27  O   UNL     1       1.379   3.930  18.197  0.00  0.00    +0.000 OA
BRANCH  26  28
ATOM     28  O   UNL     1       0.399   3.288  20.108  0.00  0.00    +0.000 OA
ATOM     29  H   UNL     1      -0.478   3.112  19.713  0.00  0.00    +0.000 HD
ENDBRANCH  26  28
ENDBRANCH  11  26
TORSDOF 4
ENDMDL
MODEL 2
REMARK VINA RESULT:      -8.2      0.934      1.022
REMARK  Name = 
REMARK  6 active torsions:
REMARK  status: ('A' for Active; 'I' for Inactive)
REMARK    1  A    between atoms: C_1  and  O_2
REMARK    2  A    between atoms: O_2  and  C_3
REMARK    3  A    between atoms: C_5  and  O_6
REMARK    4  A    between atoms: O_6  and  C_7
REMARK    5  A    between atoms: C_15  and  C_16
REMARK    6  A    between atoms: C_16  and  O_18
REMARK                            x       y       z     vdW  Elec       q    Type
REMARK                         _______ _______ _______ _____ _____    ______ ____
ROOT
ATOM      1  C   UNL     1       0.070   9.065  21.436  0.00  0.00    +0.000 A 
ATOM      2  C   UNL     1       0.560   9.865  20.415  0.00  0.00    +0.000 A 
ATOM      3  C   UNL     1       1.481   9.378  19.479  0.00  0.00    +0.000 A 
ATOM      4  C   UNL     1       1.921   8.030  19.563  0.00  0.00    +0.000 A 
ATOM      5  C   UNL     1       2.829   7.410  18.696  0.00  0.00    +0.000 A 
ATOM      6  C   UNL     1       3.178   6.057  18.778  0.00  0.00    +0.000 A 
ATOM      7  N   UNL     1       2.681   5.305  19.795  0.00  0.00    +0.000 N 
ATOM      8  C   UNL     1       1.823   5.864  20.689  0.00  0.00    +0.000 A 
ATOM      9  C   UNL     1       1.419   7.208  20.599  0.00  0.00    +0.000 A 
ATOM     10  C   UNL     1       0.507   7.744  21.528  0.00  0.00    +0.000 A 
ATOM     11  C   UNL     1       2.979   3.834  19.883  0.00  0.00    +0.000 C 
ATOM     12  C   UNL     1       4.427   3.564  19.483  0.00  0.00    +0.000 C 
ATOM     13  C   UNL     1       4.749   4.202  18.158  0.00  0.00    +0.000 A 
ATOM     14  C   UNL     1       5.709   3.631  17.301  0.00  0.00    +0.000 A 
ATOM     15  C   UNL     1       6.006   4.291  16.127  0.00  0.00    +0.000 A 
ATOM     16  C   UNL     1       5.374   5.454  15.784  0.00  0.00    +0.000 A 
ATOM     17  C   UNL     1       4.417   6.023  16.591  0.00  0.00    +0.000 A 
ATOM     18  C   UNL     1       4.108   5.421  17.829  0.00  0.00    +0.000 A 
ATOM     19  O   UNL     1       5.811   5.967  14.606  0.00  0.00    +0.000 OA
ATOM     20  C   UNL     1       6.841   5.015  14.264  0.00  0.00    +0.000 C 
ATOM     21  O   UNL     1       6.924   3.916  15.200  0.00  0.00    +0.000 OA
ENDROOT
BRANCH   1  23
ATOM     22  C   UNL     1      -0.783  10.833  22.775  0.00  0.00    +0.000 C 
ATOM     23  O   UNL     1      -0.835   9.460  22.383  0.00  0.00    +0.000 OA
ENDBRANCH   1  23
BRANCH   3  24
ATOM     24  O   UNL     1       1.788  10.371  18.590  0.00  0.00    +0.000 OA
ATOM     25  C   UNL     1       1.482  11.735  18.782  0.00  0.00    +0.000 C 
ENDBRANCH   3  24
BRANCH  11  26
ATOM     26  C   UNL     1       1.964   3.088  19.030  0.00  0.00    +0.000 C 
ATOM     27  O   UNL     1       1.035   3.658  18.472  0.00  0.00    +0.000 OA
BRANCH  26  28
ATOM     28  O   UNL     1       2.095   1.748  18.974  0.00  0.00    +0.000 OA
ATOM     29  H   UNL     1       1.665   1.218  18.274  0.00  0.00    +0.000 HD
ENDBRANCH  26  28
ENDBRANCH  11  26
TORSDOF 4
ENDMDL
MODEL 3
REMARK VINA RESULT:      -7.4      1.896      7.302
REMARK  Name = 
REMARK  6 active torsions:
REMARK  status: ('A' for Active; 'I' for Inactive)
REMARK    1  A    between atoms: C_1  and  O_2
REMARK    2  A    between atoms: O_2  and  C_3
REMARK    3  A    between atoms: C_5  and  O_6
REMARK    4  A    between atoms: O_6  and  C_7
REMARK    5  A    between atoms: C_15  and  C_16
REMARK    6  A    between atoms: C_16  and  O_18
REMARK                            x       y       z     vdW  Elec       q    Type
REMARK                         _______ _______ _______ _____ _____    ______ ____
ROOT
ATOM      1  C   UNL     1       3.635   4.411  19.026  0.00  0.00    +0.000 A 
ATOM      2  C   UNL     1       4.110   5.215  18.001  0.00  0.00    +0.000 A 
ATOM      3  C   UNL     1       3.683   6.540  17.851  0.00  0.00    +0.000 A 
ATOM      4  C   UNL     1       2.748   7.086  18.771  0.00  0.00    +0.000 A 
ATOM      5  C   UNL     1       2.241   8.391  18.745  0.00  0.00    +0.000 A 
ATOM      6  C   UNL     1       1.374   8.903  19.718  0.00  0.00    +0.000 A 
ATOM      7  N   UNL     1       0.926   8.084  20.705  0.00  0.00    +0.000 N 
ATOM      8  C   UNL     1       1.357   6.796  20.758  0.00  0.00    +0.000 A 
ATOM      9  C   UNL     1       2.266   6.271  19.821  0.00  0.00    +0.000 A 
ATOM     10  C   UNL     1       2.710   4.939  19.925  0.00  0.00    +0.000 A 
ATOM     11  C   UNL     1       0.046   8.611  21.803  0.00  0.00    +0.000 C 
ATOM     12  C   UNL     1      -0.961   9.610  21.240  0.00  0.00    +0.000 C 
ATOM     13  C   UNL     1      -0.272  10.663  20.414  0.00  0.00    +0.000 A 
ATOM     14  C   UNL     1      -0.804  11.964  20.321  0.00  0.00    +0.000 A 
ATOM     15  C   UNL     1      -0.163  12.870  19.502  0.00  0.00    +0.000 A 
ATOM     16  C   UNL     1       0.971  12.533  18.817  0.00  0.00    +0.000 A 
ATOM     17  C   UNL     1       1.525  11.278  18.906  0.00  0.00    +0.000 A 
ATOM     18  C   UNL     1       0.885  10.293  19.687  0.00  0.00    +0.000 A 
ATOM     19  O   UNL     1       1.447  13.546  18.050  0.00  0.00    +0.000 OA
ATOM     20  C   UNL     1       0.445  14.558  18.288  0.00  0.00    +0.000 C 
ATOM     21  O   UNL     1      -0.546  14.149  19.260  0.00  0.00    +0.000 OA
ENDROOT
BRANCH   1  23
ATOM     22  C   UNL     1       3.521   2.146  18.315  0.00  0.00    +0.000 C 
ATOM     23  O   UNL     1       4.007   3.113  19.247  0.00  0.00    +0.000 OA
ENDBRANCH   1  23
BRANCH   3  24
ATOM     24  O   UNL     1       4.310   7.096  16.769  0.00  0.00    +0.000 OA
ATOM     25  C   UNL     1       5.192   6.400  15.915  0.00  0.00    +0.000 C 
ENDBRANCH   3  24
BRANCH  11  26
ATOM     26  C   UNL     1       0.936   9.193  22.891  0.00  0.00    +0.000 C 
ATOM     27  O   UNL     1       0.479   9.705  23.905  0.00  0.00    +0.000 OA
BRANCH  26  28
ATOM     28  O   UNL     1       2.262   9.186  22.650  0.00  0.00    +0.000 OA
ATOM     29  H   UNL     1       2.720   8.387  22.322  0.00  0.00    +0.000 HD
ENDBRANCH  26  28
ENDBRANCH  11  26
TORSDOF 4
ENDMDL
MODEL 4
REMARK VINA RESULT:      -7.0      5.893     10.873
REMARK  Name = 
REMARK  6 active torsions:
REMARK  status: ('A' for Active; 'I' for Inactive)
REMARK    1  A    between atoms: C_1  and  O_2
REMARK    2  A    between atoms: O_2  and  C_3
REMARK    3  A    between atoms: C_5  and  O_6
REMARK    4  A    between atoms: O_6  and  C_7
REMARK    5  A    between atoms: C_15  and  C_16
REMARK    6  A    between atoms: C_16  and  O_18
REMARK                            x       y       z     vdW  Elec       q    Type
REMARK                         _______ _______ _______ _____ _____    ______ ____
ROOT
ATOM      1  C   UNL     1      -2.752  10.094  16.480  0.00  0.00    +0.000 A 
ATOM      2  C   UNL     1      -1.502  10.202  17.070  0.00  0.00    +0.000 A 
ATOM      3  C   UNL     1      -1.306  10.940  18.244  0.00  0.00    +0.000 A 
ATOM      4  C   UNL     1      -2.410  11.590  18.858  0.00  0.00    +0.000 A 
ATOM      5  C   UNL     1      -2.361  12.352  20.032  0.00  0.00    +0.000 A 
ATOM      6  C   UNL     1      -3.492  12.914  20.637  0.00  0.00    +0.000 A 
ATOM      7  N   UNL     1      -4.700  12.791  20.027  0.00  0.00    +0.000 N 
ATOM      8  C   UNL     1      -4.801  12.093  18.866  0.00  0.00    +0.000 A 
ATOM      9  C   UNL     1      -3.688  11.477  18.264  0.00  0.00    +0.000 A 
ATOM     10  C   UNL     1      -3.837  10.738  17.074  0.00  0.00    +0.000 A 
ATOM     11  C   UNL     1      -5.947  13.325  20.675  0.00  0.00    +0.000 C 
ATOM     12  C   UNL     1      -5.660  14.662  21.353  0.00  0.00    +0.000 C 
ATOM     13  C   UNL     1      -4.463  14.561  22.260  0.00  0.00    +0.000 A 
ATOM     14  C   UNL     1      -4.364  15.369  23.409  0.00  0.00    +0.000 A 
ATOM     15  C   UNL     1      -3.218  15.276  24.171  0.00  0.00    +0.000 A 
ATOM     16  C   UNL     1      -2.212  14.410  23.842  0.00  0.00    +0.000 A 
ATOM     17  C   UNL     1      -2.291  13.594  22.738  0.00  0.00    +0.000 A 
ATOM     18  C   UNL     1      -3.416  13.681  21.892  0.00  0.00    +0.000 A 
ATOM     19  O   UNL     1      -1.159  14.473  24.695  0.00  0.00    +0.000 OA
ATOM     20  C   UNL     1      -1.593  15.527  25.581  0.00  0.00    +0.000 C 
ATOM     21  O   UNL     1      -2.929  15.997  25.284  0.00  0.00    +0.000 OA
ENDROOT
BRANCH   1  23
ATOM     22  C   UNL     1      -3.544  10.136  14.241  0.00  0.00    +0.000 C 
ATOM     23  O   UNL     1      -3.029   9.387  15.343  0.00  0.00    +0.000 OA
ENDBRANCH   1  23
BRANCH   3  24
ATOM     24  O   UNL     1       0.013  10.873  18.604  0.00  0.00    +0.000 OA
ATOM     25  C   UNL     1       0.500  10.149  19.713  0.00  0.00    +0.000 C 
ENDBRANCH   3  24
BRANCH  11  26
ATOM     26  C   UNL     1      -6.483  12.265  21.625  0.00  0.00    +0.000 C 
ATOM     27  O   UNL     1      -6.468  12.409  22.841  0.00  0.00    +0.000 OA
BRANCH  26  28
ATOM     28  O   UNL     1      -6.912  11.116  21.065  0.00  0.00    +0.000 OA
ATOM     29  H   UNL     1      -7.180  10.348  21.608  0.00  0.00    +0.000 HD
ENDBRANCH  26  28
ENDBRANCH  11  26
TORSDOF 4
ENDMDL
MODEL 5
REMARK VINA RESULT:      -6.9      6.623     10.113
REMARK  Name = 
REMARK  6 active torsions:
REMARK  status: ('A' for Active; 'I' for Inactive)
REMARK    1  A    between atoms: C_1  and  O_2
REMARK    2  A    between atoms: O_2  and  C_3
REMARK    3  A    between atoms: C_5  and  O_6
REMARK    4  A    between atoms: O_6  and  C_7
REMARK    5  A    between atoms: C_15  and  C_16
REMARK    6  A    between atoms: C_16  and  O_18
REMARK                            x       y       z     vdW  Elec       q    Type
REMARK                         _______ _______ _______ _____ _____    ______ ____
ROOT
ATOM      1  C   UNL     1      -3.083  10.202  15.423  0.00  0.00    +0.000 A 
ATOM      2  C   UNL     1      -4.213  10.967  15.672  0.00  0.00    +0.000 A 
ATOM      3  C   UNL     1      -4.386  11.650  16.882  0.00  0.00    +0.000 A 
ATOM      4  C   UNL     1      -3.380  11.571  17.882  0.00  0.00    +0.000 A 
ATOM      5  C   UNL     1      -3.417  12.204  19.131  0.00  0.00    +0.000 A 
ATOM      6  C   UNL     1      -2.367  12.153  20.055  0.00  0.00    +0.000 A 
ATOM      7  N   UNL     1      -1.277  11.390  19.780  0.00  0.00    +0.000 N 
ATOM      8  C   UNL     1      -1.203  10.723  18.597  0.00  0.00    +0.000 A 
ATOM      9  C   UNL     1      -2.223  10.798  17.631  0.00  0.00    +0.000 A 
ATOM     10  C   UNL     1      -2.098  10.114  16.406  0.00  0.00    +0.000 A 
ATOM     11  C   UNL     1      -0.101  11.358  20.716  0.00  0.00    +0.000 C 
ATOM     12  C   UNL     1      -0.580  11.362  22.165  0.00  0.00    +0.000 C 
ATOM     13  C   UNL     1      -1.559  12.479  22.408  0.00  0.00    +0.000 A 
ATOM     14  C   UNL     1      -1.659  13.083  23.676  0.00  0.00    +0.000 A 
ATOM     15  C   UNL     1      -2.615  14.061  23.856  0.00  0.00    +0.000 A 
ATOM     16  C   UNL     1      -3.430  14.458  22.832  0.00  0.00    +0.000 A 
ATOM     17  C   UNL     1      -3.340  13.901  21.578  0.00  0.00    +0.000 A 
ATOM     18  C   UNL     1      -2.417  12.860  21.347  0.00  0.00    +0.000 A 
ATOM     19  O   UNL     1      -4.318  15.414  23.203  0.00  0.00    +0.000 OA
ATOM     20  C   UNL     1      -4.006  15.542  24.606  0.00  0.00    +0.000 C 
ATOM     21  O   UNL     1      -2.882  14.726  25.009  0.00  0.00    +0.000 OA
ENDROOT
BRANCH   1  23
ATOM     22  C   UNL     1      -3.676   9.820  13.154  0.00  0.00    +0.000 C 
ATOM     23  O   UNL     1      -2.835   9.514  14.268  0.00  0.00    +0.000 OA
ENDBRANCH   1  23
BRANCH   3  24
ATOM     24  O   UNL     1      -5.577  12.322  16.855  0.00  0.00    +0.000 OA
ATOM     25  C   UNL     1      -6.664  12.052  17.714  0.00  0.00    +0.000 C 
ENDBRANCH   3  24
BRANCH  11  26
ATOM     26  C   UNL     1       0.812  12.527  20.376  0.00  0.00    +0.000 C 
ATOM     27  O   UNL     1       0.767  13.099  19.294  0.00  0.00    +0.000 OA
BRANCH  26  28
ATOM     28  O   UNL     1       1.733  12.860  21.303  0.00  0.00    +0.000 OA
ATOM     29  H   UNL     1       2.074  12.207  21.946  0.00  0.00    +0.000 HD
ENDBRANCH  26  28
ENDBRANCH  11  26
TORSDOF 4
ENDMDL
MODEL 6
REMARK VINA RESULT:      -6.5      8.347     11.609
REMARK  Name = 
REMARK  6 active torsions:
REMARK  status: ('A' for Active; 'I' for Inactive)
REMARK    1  A    between atoms: C_1  and  O_2
REMARK    2  A    between atoms: O_2  and  C_3
REMARK    3  A    between atoms: C_5  and  O_6
REMARK    4  A    between atoms: O_6  and  C_7
REMARK    5  A    between atoms: C_15  and  C_16
REMARK    6  A    between atoms: C_16  and  O_18
REMARK                            x       y       z     vdW  Elec       q    Type
REMARK                         _______ _______ _______ _____ _____    ______ ____
ROOT
ATOM      1  C   UNL     1      10.950  13.633  20.064  0.00  0.00    +0.000 A 
ATOM      2  C   UNL     1      10.477  12.335  19.951  0.00  0.00    +0.000 A 
ATOM      3  C   UNL     1       9.569  11.801  20.874  0.00  0.00    +0.000 A 
ATOM      4  C   UNL     1       9.107  12.606  21.950  0.00  0.00    +0.000 A 
ATOM      5  C   UNL     1       8.198  12.207  22.938  0.00  0.00    +0.000 A 
ATOM      6  C   UNL     1       7.719  13.061  23.939  0.00  0.00    +0.000 A 
ATOM      7  N   UNL     1       8.209  14.326  24.021  0.00  0.00    +0.000 N 
ATOM      8  C   UNL     1       9.121  14.756  23.110  0.00  0.00    +0.000 A 
ATOM      9  C   UNL     1       9.581  13.932  22.066  0.00  0.00    +0.000 A 
ATOM     10  C   UNL     1      10.507  14.423  21.125  0.00  0.00    +0.000 A 
ATOM     11  C   UNL     1       7.676  15.294  25.041  0.00  0.00    +0.000 C 
ATOM     12  C   UNL     1       7.414  14.577  26.363  0.00  0.00    +0.000 C 
ATOM     13  C   UNL     1       6.576  13.345  26.154  0.00  0.00    +0.000 A 
ATOM     14  C   UNL     1       5.706  12.889  27.162  0.00  0.00    +0.000 A 
ATOM     15  C   UNL     1       5.007  11.722  26.938  0.00  0.00    +0.000 A 
ATOM     16  C   UNL     1       5.129  11.033  25.763  0.00  0.00    +0.000 A 
ATOM     17  C   UNL     1       5.955  11.466  24.752  0.00  0.00    +0.000 A 
ATOM     18  C   UNL     1       6.734  12.625  24.944  0.00  0.00    +0.000 A 
ATOM     19  O   UNL     1       4.382   9.901  25.733  0.00  0.00    +0.000 OA
ATOM     20  C   UNL     1       3.807   9.922  27.056  0.00  0.00    +0.000 C 
ATOM     21  O   UNL     1       4.156  11.112  27.802  0.00  0.00    +0.000 OA
ENDROOT
BRANCH   1  23
ATOM     22  C   UNL     1      11.511  14.147  17.813  0.00  0.00    +0.000 C 
ATOM     23  O   UNL     1      11.829  14.231  19.203  0.00  0.00    +0.000 OA
ENDBRANCH   1  23
BRANCH   3  24
ATOM     24  O   UNL     1       9.271  10.514  20.521  0.00  0.00    +0.000 OA
ATOM     25  C   UNL     1       9.198  10.049  19.190  0.00  0.00    +0.000 C 
ENDBRANCH   3  24
BRANCH  11  26
ATOM     26  C   UNL     1       6.440  15.966  24.460  0.00  0.00    +0.000 C 
ATOM     27  O   UNL     1       5.676  16.633  25.146  0.00  0.00    +0.000 OA
BRANCH  26  28
ATOM     28  O   UNL     1       6.184  15.731  23.158  0.00  0.00    +0.000 OA
ATOM     29  H   UNL     1       5.518  16.248  22.663  0.00  0.00    +0.000 HD
ENDBRANCH  26  28
ENDBRANCH  11  26
TORSDOF 4
ENDMDL
MODEL 7
REMARK VINA RESULT:      -6.4      7.489     11.467
REMARK  Name = 
REMARK  6 active torsions:
REMARK  status: ('A' for Active; 'I' for Inactive)
REMARK    1  A    between atoms: C_1  and  O_2
REMARK    2  A    between atoms: O_2  and  C_3
REMARK    3  A    between atoms: C_5  and  O_6
REMARK    4  A    between atoms: O_6  and  C_7
REMARK    5  A    between atoms: C_15  and  C_16
REMARK    6  A    between atoms: C_16  and  O_18
REMARK                            x       y       z     vdW  Elec       q    Type
REMARK                         _______ _______ _______ _____ _____    ______ ____
ROOT
ATOM      1  C   UNL     1      -3.354  11.224  17.852  0.00  0.00    +0.000 A 
ATOM      2  C   UNL     1      -2.005  11.417  18.110  0.00  0.00    +0.000 A 
ATOM      3  C   UNL     1      -1.569  12.178  19.201  0.00  0.00    +0.000 A 
ATOM      4  C   UNL     1      -2.523  12.762  20.077  0.00  0.00    +0.000 A 
ATOM      5  C   UNL     1      -2.231  13.538  21.206  0.00  0.00    +0.000 A 
ATOM      6  C   UNL     1      -3.207  14.032  22.079  0.00  0.00    +0.000 A 
ATOM      7  N   UNL     1      -4.519  13.826  21.792  0.00  0.00    +0.000 N 
ATOM      8  C   UNL     1      -4.863  13.111  20.688  0.00  0.00    +0.000 A 
ATOM      9  C   UNL     1      -3.899  12.562  19.822  0.00  0.00    +0.000 A 
ATOM     10  C   UNL     1      -4.294  11.803  18.703  0.00  0.00    +0.000 A 
ATOM     11  C   UNL     1      -5.596  14.285  22.735  0.00  0.00    +0.000 C 
ATOM     12  C   UNL     1      -5.234  15.644  23.328  0.00  0.00    +0.000 C 
ATOM     13  C   UNL     1      -3.844  15.630  23.905  0.00  0.00    +0.000 A 
ATOM     14  C   UNL     1      -3.512  16.453  24.998  0.00  0.00    +0.000 A 
ATOM     15  C   UNL     1      -2.208  16.442  25.446  0.00  0.00    +0.000 A 
ATOM     16  C   UNL     1      -1.263  15.639  24.870  0.00  0.00    +0.000 A 
ATOM     17  C   UNL     1      -1.564  14.808  23.816  0.00  0.00    +0.000 A 
ATOM     18  C   UNL     1      -2.869  14.815  23.280  0.00  0.00    +0.000 A 
ATOM     19  O   UNL     1      -0.036  15.778  25.432  0.00  0.00    +0.000 OA
ATOM     20  C   UNL     1      -0.301  16.811  26.405  0.00  0.00    +0.000 C 
ATOM     21  O   UNL     1      -1.696  17.190  26.456  0.00  0.00    +0.000 OA
ENDROOT
BRANCH   1  23
ATOM     22  C   UNL     1      -2.921  10.031  15.843  0.00  0.00    +0.000 C 
ATOM     23  O   UNL     1      -3.862  10.490  16.815  0.00  0.00    +0.000 OA
ENDBRANCH   1  23
BRANCH   3  24
ATOM     24  O   UNL     1      -0.201  12.200  19.218  0.00  0.00    +0.000 OA
ATOM     25  C   UNL     1       0.586  13.228  18.657  0.00  0.00    +0.000 C 
ENDBRANCH   3  24
BRANCH  11  26
ATOM     26  C   UNL     1      -5.806  13.202  23.783  0.00  0.00    +0.000 C 
ATOM     27  O   UNL     1      -5.090  12.212  23.852  0.00  0.00    +0.000 OA
BRANCH  26  28
ATOM     28  O   UNL     1      -6.873  13.350  24.593  0.00  0.00    +0.000 OA
ATOM     29  H   UNL     1      -6.825  13.144  25.548  0.00  0.00    +0.000 HD
ENDBRANCH  26  28
ENDBRANCH  11  26
TORSDOF 4
ENDMDL
MODEL 8
REMARK VINA RESULT:      -6.4      5.872      8.112
REMARK  Name = 
REMARK  6 active torsions:
REMARK  status: ('A' for Active; 'I' for Inactive)
REMARK    1  A    between atoms: C_1  and  O_2
REMARK    2  A    between atoms: O_2  and  C_3
REMARK    3  A    between atoms: C_5  and  O_6
REMARK    4  A    between atoms: O_6  and  C_7
REMARK    5  A    between atoms: C_15  and  C_16
REMARK    6  A    between atoms: C_16  and  O_18
REMARK                            x       y       z     vdW  Elec       q    Type
REMARK                         _______ _______ _______ _____ _____    ______ ____
ROOT
ATOM      1  C   UNL     1      -2.445  15.534  24.709  0.00  0.00    +0.000 A 
ATOM      2  C   UNL     1      -3.491  15.827  23.847  0.00  0.00    +0.000 A 
ATOM      3  C   UNL     1      -3.638  15.168  22.620  0.00  0.00    +0.000 A 
ATOM      4  C   UNL     1      -2.703  14.165  22.246  0.00  0.00    +0.000 A 
ATOM      5  C   UNL     1      -2.731  13.424  21.058  0.00  0.00    +0.000 A 
ATOM      6  C   UNL     1      -1.827  12.396  20.766  0.00  0.00    +0.000 A 
ATOM      7  N   UNL     1      -0.812  12.139  21.633  0.00  0.00    +0.000 N 
ATOM      8  C   UNL     1      -0.714  12.854  22.785  0.00  0.00    +0.000 A 
ATOM      9  C   UNL     1      -1.639  13.858  23.124  0.00  0.00    +0.000 A 
ATOM     10  C   UNL     1      -1.520  14.558  24.341  0.00  0.00    +0.000 A 
ATOM     11  C   UNL     1       0.142  11.004  21.389  0.00  0.00    +0.000 C 
ATOM     12  C   UNL     1       0.475  10.904  19.902  0.00  0.00    +0.000 C 
ATOM     13  C   UNL     1      -0.777  10.876  19.069  0.00  0.00    +0.000 A 
ATOM     14  C   UNL     1      -0.805  10.192  17.838  0.00  0.00    +0.000 A 
ATOM     15  C   UNL     1      -1.961  10.250  17.089  0.00  0.00    +0.000 A 
ATOM     16  C   UNL     1      -3.064  10.928  17.531  0.00  0.00    +0.000 A 
ATOM     17  C   UNL     1      -3.073  11.587  18.738  0.00  0.00    +0.000 A 
ATOM     18  C   UNL     1      -1.902  11.606  19.525  0.00  0.00    +0.000 A 
ATOM     19  O   UNL     1      -4.096  10.890  16.652  0.00  0.00    +0.000 OA
ATOM     20  C   UNL     1      -3.499  10.149  15.567  0.00  0.00    +0.000 C 
ATOM     21  O   UNL     1      -2.161   9.689  15.869  0.00  0.00    +0.000 OA
ENDROOT
BRANCH   1  23
ATOM     22  C   UNL     1      -0.917  16.020  26.462  0.00  0.00    +0.000 C 
ATOM     23  O   UNL     1      -2.236  16.124  25.925  0.00  0.00    +0.000 OA
ENDBRANCH   1  23
BRANCH   3  24
ATOM     24  O   UNL     1      -4.748  15.647  21.980  0.00  0.00    +0.000 OA
ATOM     25  C   UNL     1      -4.803  16.882  21.299  0.00  0.00    +0.000 C 
ENDBRANCH   3  24
BRANCH  11  26
ATOM     26  C   UNL     1      -0.471   9.734  21.959  0.00  0.00    +0.000 C 
ATOM     27  O   UNL     1      -0.471   8.674  21.345  0.00  0.00    +0.000 OA
BRANCH  26  28
ATOM     28  O   UNL     1      -1.086   9.847  23.154  0.00  0.00    +0.000 OA
ATOM     29  H   UNL     1      -0.710   9.450  23.965  0.00  0.00    +0.000 HD
ENDBRANCH  26  28
ENDBRANCH  11  26
TORSDOF 4
ENDMDL
MODEL 9
REMARK VINA RESULT:      -6.3      3.404      6.439
REMARK  Name = 
REMARK  6 active torsions:
REMARK  status: ('A' for Active; 'I' for Inactive)
REMARK    1  A    between atoms: C_1  and  O_2
REMARK    2  A    between atoms: O_2  and  C_3
REMARK    3  A    between atoms: C_5  and  O_6
REMARK    4  A    between atoms: O_6  and  C_7
REMARK    5  A    between atoms: C_15  and  C_16
REMARK    6  A    between atoms: C_16  and  O_18
REMARK                            x       y       z     vdW  Elec       q    Type
REMARK                         _______ _______ _______ _____ _____    ______ ____
ROOT
ATOM      1  C   UNL     1       2.090  16.917  18.347  0.00  0.00    +0.000 A 
ATOM      2  C   UNL     1       3.297  16.390  17.914  0.00  0.00    +0.000 A 
ATOM      3  C   UNL     1       3.528  15.009  17.887  0.00  0.00    +0.000 A 
ATOM      4  C   UNL     1       2.503  14.117  18.303  0.00  0.00    +0.000 A 
ATOM      5  C   UNL     1       2.593  12.720  18.322  0.00  0.00    +0.000 A 
ATOM      6  C   UNL     1       1.529  11.881  18.674  0.00  0.00    +0.000 A 
ATOM      7  N   UNL     1       0.361  12.433  19.098  0.00  0.00    +0.000 N 
ATOM      8  C   UNL     1       0.230  13.786  19.135  0.00  0.00    +0.000 A 
ATOM      9  C   UNL     1       1.268  14.649  18.740  0.00  0.00    +0.000 A 
ATOM     10  C   UNL     1       1.085  16.046  18.766  0.00  0.00    +0.000 A 
ATOM     11  C   UNL     1      -0.826  11.571  19.424  0.00  0.00    +0.000 C 
ATOM     12  C   UNL     1      -0.374  10.300  20.140  0.00  0.00    +0.000 C 
ATOM     13  C   UNL     1       0.725   9.611  19.376  0.00  0.00    +0.000 A 
ATOM     14  C   UNL     1       0.873   8.212  19.438  0.00  0.00    +0.000 A 
ATOM     15  C   UNL     1       1.933   7.642  18.765  0.00  0.00    +0.000 A 
ATOM     16  C   UNL     1       2.807   8.401  18.037  0.00  0.00    +0.000 A 
ATOM     17  C   UNL     1       2.674   9.767  17.942  0.00  0.00    +0.000 A 
ATOM     18  C   UNL     1       1.639  10.413  18.650  0.00  0.00    +0.000 A 
ATOM     19  O   UNL     1       3.795   7.669  17.464  0.00  0.00    +0.000 OA
ATOM     20  C   UNL     1       3.476   6.352  17.961  0.00  0.00    +0.000 C 
ATOM     21  O   UNL     1       2.257   6.324  18.739  0.00  0.00    +0.000 OA
ENDROOT
BRANCH   1  23
ATOM     22  C   UNL     1       0.758  18.630  19.316  0.00  0.00    +0.000 C 
ATOM     23  O   UNL     1       1.783  18.249  18.396  0.00  0.00    +0.000 OA
ENDBRANCH   1  23
BRANCH   3  24
ATOM     24  O   UNL     1       4.791  14.772  17.416  0.00  0.00    +0.000 OA
ATOM     25  C   UNL     1       5.974  15.046  18.135  0.00  0.00    +0.000 C 
ENDBRANCH   3  24
BRANCH  11  26
ATOM     26  C   UNL     1      -1.590  11.303  18.136  0.00  0.00    +0.000 C 
ATOM     27  O   UNL     1      -2.054  10.202  17.868  0.00  0.00    +0.000 OA
BRANCH  26  28
ATOM     28  O   UNL     1      -1.669  12.325  17.261  0.00  0.00    +0.000 OA
ATOM     29  H   UNL     1      -1.774  12.173  16.301  0.00  0.00    +0.000 HD
ENDBRANCH  26  28
ENDBRANCH  11  26
TORSDOF 4
ENDMDL
