MODEL 1
REMARK VINA RESULT:      -6.6      0.000      0.000
REMARK  Name = 
REMARK  5 active torsions:
REMARK  status: ('A' for Active; 'I' for Inactive)
REMARK    1  A    between atoms: C_1  and  C_2
REMARK    2  A    between atoms: C_2  and  N_3
REMARK    3  A    between atoms: N_3  and  C_4
REMARK    4  A    between atoms: N_3  and  C_6
REMARK    5  A    between atoms: C_4  and  C_5
REMARK                            x       y       z     vdW  Elec       q    Type
REMARK                         _______ _______ _______ _____ _____    ______ ____
ROOT
ATOM      1  C   UNL     1       3.749   3.770  19.010  0.00  0.00    +0.000 A 
ATOM      2  C   UNL     1       4.461   4.849  19.562  0.00  0.00    +0.000 A 
ATOM      3  C   UNL     1       5.459   5.549  18.855  0.00  0.00    +0.000 A 
ATOM      4  C   UNL     1       5.794   5.189  17.552  0.00  0.00    +0.000 A 
ATOM      5  C   UNL     1       6.797   5.859  16.723  0.00  0.00    +0.000 A 
ATOM      6 CL   UNL     1       7.668   7.217  17.332  0.00  0.00    +0.000 Cl
ATOM      7  C   UNL     1       7.039   5.427  15.482  0.00  0.00    +0.000 A 
ATOM      8  C   UNL     1       6.327   4.285  14.901  0.00  0.00    +0.000 A 
ATOM      9  O   UNL     1       6.578   3.907  13.762  0.00  0.00    +0.000 OA
ATOM     10  O   UNL     1       5.376   3.665  15.691  0.00  0.00    +0.000 OA
ATOM     11  C   UNL     1       5.109   4.115  17.001  0.00  0.00    +0.000 A 
ATOM     12  C   UNL     1       4.115   3.421  17.700  0.00  0.00    +0.000 A 
ENDROOT
BRANCH   1  13
ATOM     13  N   UNL     1       2.729   3.098  19.703  0.00  0.00    +0.000 N 
BRANCH  13  15
ATOM     14  C   UNL     1       0.585   2.417  18.681  0.00  0.00    +0.000 C 
ATOM     15  C   UNL     1       2.000   1.996  19.062  0.00  0.00    +0.000 C 
ENDBRANCH  13  15
BRANCH  13  16
ATOM     16  C   UNL     1       2.255   3.683  20.973  0.00  0.00    +0.000 C 
ATOM     17  C   UNL     1       1.732   2.720  22.026  0.00  0.00    +0.000 C 
ENDBRANCH  13  16
ENDBRANCH   1  13
TORSDOF 3
ENDMDL
MODEL 2
REMARK VINA RESULT:      -6.6      0.418      1.509
REMARK  Name = 
REMARK  5 active torsions:
REMARK  status: ('A' for Active; 'I' for Inactive)
REMARK    1  A    between atoms: C_1  and  C_2
REMARK    2  A    between atoms: C_2  and  N_3
REMARK    3  A    between atoms: N_3  and  C_4
REMARK    4  A    between atoms: N_3  and  C_6
REMARK    5  A    between atoms: C_4  and  C_5
REMARK                            x       y       z     vdW  Elec       q    Type
REMARK                         _______ _______ _______ _____ _____    ______ ____
ROOT
ATOM      1  C   UNL     1       3.908   3.504  18.959  0.00  0.00    +0.000 A 
ATOM      2  C   UNL     1       4.585   4.591  19.540  0.00  0.00    +0.000 A 
ATOM      3  C   UNL     1       5.523   5.372  18.837  0.00  0.00    +0.000 A 
ATOM      4  C   UNL     1       5.830   5.091  17.508  0.00  0.00    +0.000 A 
ATOM      5  C   UNL     1       6.772   5.848  16.681  0.00  0.00    +0.000 A 
ATOM      6 CL   UNL     1       7.596   7.218  17.327  0.00  0.00    +0.000 Cl
ATOM      7  C   UNL     1       6.992   5.487  15.412  0.00  0.00    +0.000 A 
ATOM      8  C   UNL     1       6.316   4.340  14.800  0.00  0.00    +0.000 A 
ATOM      9  O   UNL     1       6.546   4.029  13.637  0.00  0.00    +0.000 OA
ATOM     10  O   UNL     1       5.424   3.637  15.589  0.00  0.00    +0.000 OA
ATOM     11  C   UNL     1       5.180   4.011  16.927  0.00  0.00    +0.000 A 
ATOM     12  C   UNL     1       4.246   3.236  17.623  0.00  0.00    +0.000 A 
ENDROOT
BRANCH   1  13
ATOM     13  N   UNL     1       2.946   2.750  19.651  0.00  0.00    +0.000 N 
BRANCH  13  15
ATOM     14  C   UNL     1       1.951   3.267  21.852  0.00  0.00    +0.000 C 
ATOM     15  C   UNL     1       3.065   2.548  21.100  0.00  0.00    +0.000 C 
ENDBRANCH  13  15
BRANCH  13  16
ATOM     16  C   UNL     1       1.970   1.978  18.855  0.00  0.00    +0.000 C 
ATOM     17  C   UNL     1       0.582   2.576  18.693  0.00  0.00    +0.000 C 
ENDBRANCH  13  16
ENDBRANCH   1  13
TORSDOF 3
ENDMDL
MODEL 3
REMARK VINA RESULT:      -6.6      3.146      5.726
REMARK  Name = 
REMARK  5 active torsions:
REMARK  status: ('A' for Active; 'I' for Inactive)
REMARK    1  A    between atoms: C_1  and  C_2
REMARK    2  A    between atoms: C_2  and  N_3
REMARK    3  A    between atoms: N_3  and  C_4
REMARK    4  A    between atoms: N_3  and  C_6
REMARK    5  A    between atoms: C_4  and  C_5
REMARK                            x       y       z     vdW  Elec       q    Type
REMARK                         _______ _______ _______ _____ _____    ______ ____
ROOT
ATOM      1  C   UNL     1       4.830   5.119  16.703  0.00  0.00    +0.000 A 
ATOM      2  C   UNL     1       4.534   6.446  17.062  0.00  0.00    +0.000 A 
ATOM      3  C   UNL     1       3.651   6.776  18.109  0.00  0.00    +0.000 A 
ATOM      4  C   UNL     1       3.015   5.779  18.845  0.00  0.00    +0.000 A 
ATOM      5  C   UNL     1       2.097   6.009  19.962  0.00  0.00    +0.000 A 
ATOM      6 CL   UNL     1       1.734   7.615  20.477  0.00  0.00    +0.000 Cl
ATOM      7  C   UNL     1       1.540   4.974  20.599  0.00  0.00    +0.000 A 
ATOM      8  C   UNL     1       1.816   3.586  20.218  0.00  0.00    +0.000 A 
ATOM      9  O   UNL     1       1.283   2.658  20.815  0.00  0.00    +0.000 OA
ATOM     10  O   UNL     1       2.689   3.381  19.166  0.00  0.00    +0.000 OA
ATOM     11  C   UNL     1       3.286   4.465  18.489  0.00  0.00    +0.000 A 
ATOM     12  C   UNL     1       4.166   4.135  17.452  0.00  0.00    +0.000 A 
ENDROOT
BRANCH   1  13
ATOM     13  N   UNL     1       5.740   4.793  15.684  0.00  0.00    +0.000 N 
BRANCH  13  15
ATOM     14  C   UNL     1       6.416   3.928  13.471  0.00  0.00    +0.000 C 
ATOM     15  C   UNL     1       5.256   4.278  14.396  0.00  0.00    +0.000 C 
ENDBRANCH  13  15
BRANCH  13  16
ATOM     16  C   UNL     1       7.176   4.748  16.027  0.00  0.00    +0.000 C 
ATOM     17  C   UNL     1       7.531   4.606  17.498  0.00  0.00    +0.000 C 
ENDBRANCH  13  16
ENDBRANCH   1  13
TORSDOF 3
ENDMDL
MODEL 4
REMARK VINA RESULT:      -6.5      2.032      2.987
REMARK  Name = 
REMARK  5 active torsions:
REMARK  status: ('A' for Active; 'I' for Inactive)
REMARK    1  A    between atoms: C_1  and  C_2
REMARK    2  A    between atoms: C_2  and  N_3
REMARK    3  A    between atoms: N_3  and  C_4
REMARK    4  A    between atoms: N_3  and  C_6
REMARK    5  A    between atoms: C_4  and  C_5
REMARK                            x       y       z     vdW  Elec       q    Type
REMARK                         _______ _______ _______ _____ _____    ______ ____
ROOT
ATOM      1  C   UNL     1       3.754   3.337  18.762  0.00  0.00    +0.000 A 
ATOM      2  C   UNL     1       3.755   3.129  17.371  0.00  0.00    +0.000 A 
ATOM      3  C   UNL     1       4.664   3.766  16.503  0.00  0.00    +0.000 A 
ATOM      4  C   UNL     1       5.618   4.652  16.997  0.00  0.00    +0.000 A 
ATOM      5  C   UNL     1       6.620   5.350  16.189  0.00  0.00    +0.000 A 
ATOM      6 CL   UNL     1       6.698   5.098  14.485  0.00  0.00    +0.000 Cl
ATOM      7  C   UNL     1       7.490   6.182  16.769  0.00  0.00    +0.000 A 
ATOM      8  C   UNL     1       7.484   6.432  18.214  0.00  0.00    +0.000 A 
ATOM      9  O   UNL     1       8.290   7.208  18.716  0.00  0.00    +0.000 OA
ATOM     10  O   UNL     1       6.538   5.762  18.967  0.00  0.00    +0.000 OA
ATOM     11  C   UNL     1       5.618   4.878  18.366  0.00  0.00    +0.000 A 
ATOM     12  C   UNL     1       4.718   4.244  19.230  0.00  0.00    +0.000 A 
ENDROOT
BRANCH   1  13
ATOM     13  N   UNL     1       2.871   2.673  19.629  0.00  0.00    +0.000 N 
BRANCH  13  15
ATOM     14  C   UNL     1       2.115   3.317  21.890  0.00  0.00    +0.000 C 
ATOM     15  C   UNL     1       3.168   2.587  21.064  0.00  0.00    +0.000 C 
ENDBRANCH  13  15
BRANCH  13  16
ATOM     16  C   UNL     1       1.788   1.868  19.029  0.00  0.00    +0.000 C 
ATOM     17  C   UNL     1       0.462   2.568  18.782  0.00  0.00    +0.000 C 
ENDBRANCH  13  16
ENDBRANCH   1  13
TORSDOF 3
ENDMDL
MODEL 5
REMARK VINA RESULT:      -6.5      3.098      5.657
REMARK  Name = 
REMARK  5 active torsions:
REMARK  status: ('A' for Active; 'I' for Inactive)
REMARK    1  A    between atoms: C_1  and  C_2
REMARK    2  A    between atoms: C_2  and  N_3
REMARK    3  A    between atoms: N_3  and  C_4
REMARK    4  A    between atoms: N_3  and  C_6
REMARK    5  A    between atoms: C_4  and  C_5
REMARK                            x       y       z     vdW  Elec       q    Type
REMARK                         _______ _______ _______ _____ _____    ______ ____
ROOT
ATOM      1  C   UNL     1       4.935   4.960  16.916  0.00  0.00    +0.000 A 
ATOM      2  C   UNL     1       4.737   6.023  17.816  0.00  0.00    +0.000 A 
ATOM      3  C   UNL     1       3.692   6.041  18.760  0.00  0.00    +0.000 A 
ATOM      4  C   UNL     1       2.786   4.987  18.840  0.00  0.00    +0.000 A 
ATOM      5  C   UNL     1       1.678   4.896  19.794  0.00  0.00    +0.000 A 
ATOM      6 CL   UNL     1       1.417   6.148  20.951  0.00  0.00    +0.000 Cl
ATOM      7  C   UNL     1       0.867   3.834  19.781  0.00  0.00    +0.000 A 
ATOM      8  C   UNL     1       1.041   2.732  18.831  0.00  0.00    +0.000 A 
ATOM      9  O   UNL     1       0.274   1.775  18.838  0.00  0.00    +0.000 OA
ATOM     10  O   UNL     1       2.094   2.825  17.940  0.00  0.00    +0.000 OA
ATOM     11  C   UNL     1       2.960   3.939  17.947  0.00  0.00    +0.000 A 
ATOM     12  C   UNL     1       4.000   3.916  17.011  0.00  0.00    +0.000 A 
ENDROOT
BRANCH   1  13
ATOM     13  N   UNL     1       5.999   4.926  16.002  0.00  0.00    +0.000 N 
BRANCH  13  15
ATOM     14  C   UNL     1       6.003   3.928  13.742  0.00  0.00    +0.000 C 
ATOM     15  C   UNL     1       5.759   5.181  14.575  0.00  0.00    +0.000 C 
ENDBRANCH  13  15
BRANCH  13  16
ATOM     16  C   UNL     1       7.295   4.394  16.469  0.00  0.00    +0.000 C 
ATOM     17  C   UNL     1       7.678   4.674  17.913  0.00  0.00    +0.000 C 
ENDBRANCH  13  16
ENDBRANCH   1  13
TORSDOF 3
ENDMDL
MODEL 6
REMARK VINA RESULT:      -6.4      2.058      2.667
REMARK  Name = 
REMARK  5 active torsions:
REMARK  status: ('A' for Active; 'I' for Inactive)
REMARK    1  A    between atoms: C_1  and  C_2
REMARK    2  A    between atoms: C_2  and  N_3
REMARK    3  A    between atoms: N_3  and  C_4
REMARK    4  A    between atoms: N_3  and  C_6
REMARK    5  A    between atoms: C_4  and  C_5
REMARK                            x       y       z     vdW  Elec       q    Type
REMARK                         _______ _______ _______ _____ _____    ______ ____
ROOT
ATOM      1  C   UNL     1       3.535   3.725  18.916  0.00  0.00    +0.000 A 
ATOM      2  C   UNL     1       3.510   3.438  17.540  0.00  0.00    +0.000 A 
ATOM      3  C   UNL     1       4.457   3.956  16.634  0.00  0.00    +0.000 A 
ATOM      4  C   UNL     1       5.478   4.796  17.073  0.00  0.00    +0.000 A 
ATOM      5  C   UNL     1       6.522   5.371  16.223  0.00  0.00    +0.000 A 
ATOM      6 CL   UNL     1       6.568   5.017  14.536  0.00  0.00    +0.000 Cl
ATOM      7  C   UNL     1       7.455   6.169  16.752  0.00  0.00    +0.000 A 
ATOM      8  C   UNL     1       7.478   6.500  18.180  0.00  0.00    +0.000 A 
ATOM      9  O   UNL     1       8.341   7.242  18.634  0.00  0.00    +0.000 OA
ATOM     10  O   UNL     1       6.490   5.946  18.973  0.00  0.00    +0.000 OA
ATOM     11  C   UNL     1       5.503   5.099  18.427  0.00  0.00    +0.000 A 
ATOM     12  C   UNL     1       4.566   4.584  19.329  0.00  0.00    +0.000 A 
ENDROOT
BRANCH   1  13
ATOM     13  N   UNL     1       2.612   3.178  19.823  0.00  0.00    +0.000 N 
BRANCH  13  15
ATOM     14  C   UNL     1       0.526   2.297  18.836  0.00  0.00    +0.000 C 
ATOM     15  C   UNL     1       1.867   1.960  19.478  0.00  0.00    +0.000 C 
ENDBRANCH  13  15
BRANCH  13  16
ATOM     16  C   UNL     1       2.241   3.985  21.002  0.00  0.00    +0.000 C 
ATOM     17  C   UNL     1       1.498   5.286  20.745  0.00  0.00    +0.000 C 
ENDBRANCH  13  16
ENDBRANCH   1  13
TORSDOF 3
ENDMDL
MODEL 7
REMARK VINA RESULT:      -6.4      3.645      6.143
REMARK  Name = 
REMARK  5 active torsions:
REMARK  status: ('A' for Active; 'I' for Inactive)
REMARK    1  A    between atoms: C_1  and  C_2
REMARK    2  A    between atoms: C_2  and  N_3
REMARK    3  A    between atoms: N_3  and  C_4
REMARK    4  A    between atoms: N_3  and  C_6
REMARK    5  A    between atoms: C_4  and  C_5
REMARK                            x       y       z     vdW  Elec       q    Type
REMARK                         _______ _______ _______ _____ _____    ______ ____
ROOT
ATOM      1  C   UNL     1       4.786   5.055  16.958  0.00  0.00    +0.000 A 
ATOM      2  C   UNL     1       4.193   3.784  17.051  0.00  0.00    +0.000 A 
ATOM      3  C   UNL     1       3.139   3.495  17.942  0.00  0.00    +0.000 A 
ATOM      4  C   UNL     1       2.634   4.478  18.790  0.00  0.00    +0.000 A 
ATOM      5  C   UNL     1       1.533   4.291  19.736  0.00  0.00    +0.000 A 
ATOM      6 CL   UNL     1       0.737   2.766  19.860  0.00  0.00    +0.000 Cl
ATOM      7  C   UNL     1       1.129   5.307  20.505  0.00  0.00    +0.000 A 
ATOM      8  C   UNL     1       1.756   6.630  20.441  0.00  0.00    +0.000 A 
ATOM      9  O   UNL     1       1.368   7.540  21.165  0.00  0.00    +0.000 OA
ATOM     10  O   UNL     1       2.791   6.796  19.538  0.00  0.00    +0.000 OA
ATOM     11  C   UNL     1       3.223   5.733  18.719  0.00  0.00    +0.000 A 
ATOM     12  C   UNL     1       4.266   6.023  17.833  0.00  0.00    +0.000 A 
ENDROOT
BRANCH   1  13
ATOM     13  N   UNL     1       5.810   5.351  16.043  0.00  0.00    +0.000 N 
BRANCH  13  15
ATOM     14  C   UNL     1       6.258   3.898  14.096  0.00  0.00    +0.000 C 
ATOM     15  C   UNL     1       5.591   5.172  14.602  0.00  0.00    +0.000 C 
ENDBRANCH  13  15
BRANCH  13  16
ATOM     16  C   UNL     1       7.163   5.603  16.579  0.00  0.00    +0.000 C 
ATOM     17  C   UNL     1       7.676   4.647  17.643  0.00  0.00    +0.000 C 
ENDBRANCH  13  16
ENDBRANCH   1  13
TORSDOF 3
ENDMDL
MODEL 8
REMARK VINA RESULT:      -6.3      3.605      6.247
REMARK  Name = 
REMARK  5 active torsions:
REMARK  status: ('A' for Active; 'I' for Inactive)
REMARK    1  A    between atoms: C_1  and  C_2
REMARK    2  A    between atoms: C_2  and  N_3
REMARK    3  A    between atoms: N_3  and  C_4
REMARK    4  A    between atoms: N_3  and  C_6
REMARK    5  A    between atoms: C_4  and  C_5
REMARK                            x       y       z     vdW  Elec       q    Type
REMARK                         _______ _______ _______ _____ _____    ______ ____
ROOT
ATOM      1  C   UNL     1       4.781   4.670  17.076  0.00  0.00    +0.000 A 
ATOM      2  C   UNL     1       4.238   3.448  17.510  0.00  0.00    +0.000 A 
ATOM      3  C   UNL     1       3.249   3.363  18.510  0.00  0.00    +0.000 A 
ATOM      4  C   UNL     1       2.761   4.512  19.128  0.00  0.00    +0.000 A 
ATOM      5  C   UNL     1       1.724   4.540  20.161  0.00  0.00    +0.000 A 
ATOM      6 CL   UNL     1       0.988   3.076  20.699  0.00  0.00    +0.000 Cl
ATOM      7  C   UNL     1       1.330   5.704  20.688  0.00  0.00    +0.000 A 
ATOM      8  C   UNL     1       1.907   6.984  20.267  0.00  0.00    +0.000 A 
ATOM      9  O   UNL     1       1.532   8.034  20.775  0.00  0.00    +0.000 OA
ATOM     10  O   UNL     1       2.882   6.946  19.286  0.00  0.00    +0.000 OA
ATOM     11  C   UNL     1       3.301   5.724  18.719  0.00  0.00    +0.000 A 
ATOM     12  C   UNL     1       4.280   5.811  17.724  0.00  0.00    +0.000 A 
ENDROOT
BRANCH   1  13
ATOM     13  N   UNL     1       5.740   4.754  16.053  0.00  0.00    +0.000 N 
BRANCH  13  15
ATOM     14  C   UNL     1       7.680   4.563  17.569  0.00  0.00    +0.000 C 
ATOM     15  C   UNL     1       7.091   5.250  16.343  0.00  0.00    +0.000 C 
ENDBRANCH  13  15
BRANCH  13  16
ATOM     16  C   UNL     1       5.283   4.568  14.661  0.00  0.00    +0.000 C 
ATOM     17  C   UNL     1       6.233   3.861  13.709  0.00  0.00    +0.000 C 
ENDBRANCH  13  16
ENDBRANCH   1  13
TORSDOF 3
ENDMDL
MODEL 9
REMARK VINA RESULT:      -6.3      3.301      5.895
REMARK  Name = 
REMARK  5 active torsions:
REMARK  status: ('A' for Active; 'I' for Inactive)
REMARK    1  A    between atoms: C_1  and  C_2
REMARK    2  A    between atoms: C_2  and  N_3
REMARK    3  A    between atoms: N_3  and  C_4
REMARK    4  A    between atoms: N_3  and  C_6
REMARK    5  A    between atoms: C_4  and  C_5
REMARK                            x       y       z     vdW  Elec       q    Type
REMARK                         _______ _______ _______ _____ _____    ______ ____
ROOT
ATOM      1  C   UNL     1       5.156   5.265  17.367  0.00  0.00    +0.000 A 
ATOM      2  C   UNL     1       3.816   5.686  17.431  0.00  0.00    +0.000 A 
ATOM      3  C   UNL     1       2.892   5.156  18.353  0.00  0.00    +0.000 A 
ATOM      4  C   UNL     1       3.274   4.166  19.256  0.00  0.00    +0.000 A 
ATOM      5  C   UNL     1       2.403   3.563  20.266  0.00  0.00    +0.000 A 
ATOM      6 CL   UNL     1       0.763   4.073  20.422  0.00  0.00    +0.000 Cl
ATOM      7  C   UNL     1       2.877   2.617  21.083  0.00  0.00    +0.000 A 
ATOM      8  C   UNL     1       4.263   2.147  21.009  0.00  0.00    +0.000 A 
ATOM      9  O   UNL     1       4.665   1.271  21.767  0.00  0.00    +0.000 OA
ATOM     10  O   UNL     1       5.078   2.729  20.056  0.00  0.00    +0.000 OA
ATOM     11  C   UNL     1       4.591   3.731  19.192  0.00  0.00    +0.000 A 
ATOM     12  C   UNL     1       5.511   4.259  18.280  0.00  0.00    +0.000 A 
ENDROOT
BRANCH   1  13
ATOM     13  N   UNL     1       6.085   5.822  16.472  0.00  0.00    +0.000 N 
BRANCH  13  15
ATOM     14  C   UNL     1       5.902   4.272  14.557  0.00  0.00    +0.000 C 
ATOM     15  C   UNL     1       5.868   5.723  15.023  0.00  0.00    +0.000 C 
ENDBRANCH  13  15
BRANCH  13  16
ATOM     16  C   UNL     1       7.380   6.279  17.016  0.00  0.00    +0.000 C 
ATOM     17  C   UNL     1       7.478   7.737  17.434  0.00  0.00    +0.000 C 
ENDBRANCH  13  16
ENDBRANCH   1  13
TORSDOF 3
ENDMDL
