MODEL 1
REMARK VINA RESULT:      -7.6      0.000      0.000
REMARK  Name = 
REMARK  6 active torsions:
REMARK  status: ('A' for Active; 'I' for Inactive)
REMARK    1  A    between atoms: C_2  and  O_3
REMARK    2  A    between atoms: C_2  and  C_4
REMARK    3  A    between atoms: C_7  and  C_8
REMARK    4  A    between atoms: C_8  and  C_9
REMARK    5  A    between atoms: C_9  and  C_10
REMARK    6  A    between atoms: C_15  and  O_16
REMARK                            x       y       z     vdW  Elec       q    Type
REMARK                         _______ _______ _______ _____ _____    ______ ____
ROOT
ATOM      1  C   UNK     1       7.291   4.780  18.086  0.00  0.00    +0.000 C 
ATOM      2  C   UNK     1       7.163   5.333  16.669  0.00  0.00    +0.000 C 
ATOM      3  S   UNK     1       5.588   4.696  16.077  0.00  0.00    +0.000 S 
ATOM      4  C   UNK     1       4.887   4.631  17.738  0.00  0.00    +0.000 C 
ATOM      5  N   UNK     1       5.993   4.236  18.633  0.00  0.00    +0.000 NA
ATOM      6  H   UNK     1       6.063   3.218  18.527  0.00  0.00    +0.000 HD
ENDROOT
BRANCH   1   8
ATOM      7  O   UNK     1       8.174   6.980  18.668  0.00  0.00    +0.000 OA
ATOM      8  C   UNK     1       7.828   5.866  19.023  0.00  0.00    +0.000 C 
BRANCH   8   9
ATOM      9  O   UNK     1       7.893   5.441  20.310  0.00  0.00    +0.000 OA
ATOM     10  H   UNK     1       7.336   6.063  20.840  0.00  0.00    +0.000 HD
ENDBRANCH   8   9
ENDBRANCH   1   8
BRANCH   4  11
ATOM     11  C   UNK     1       4.260   5.952  18.207  0.00  0.00    +0.000 C 
BRANCH  11  12
ATOM     12  C   UNK     1       2.726   5.916  18.211  0.00  0.00    +0.000 C 
BRANCH  12  13
ATOM     13  C   UNK     1       2.196   4.847  19.138  0.00  0.00    +0.000 A 
ATOM     14  C   UNK     1       2.521   4.891  20.502  0.00  0.00    +0.000 A 
ATOM     15  C   UNK     1       2.042   3.919  21.380  0.00  0.00    +0.000 A 
ATOM     16  C   UNK     1       1.235   2.888  20.905  0.00  0.00    +0.000 A 
ATOM     17  C   UNK     1       0.915   2.822  19.547  0.00  0.00    +0.000 A 
ATOM     18  C   UNK     1       1.403   3.793  18.674  0.00  0.00    +0.000 A 
BRANCH  18  19
ATOM     19  O   UNK     1       1.109   3.725  17.339  0.00  0.00    +0.000 OA
ATOM     20  H   UNK     1       1.096   2.791  17.074  0.00  0.00    +0.000 HD
ENDBRANCH  18  19
ENDBRANCH  12  13
ENDBRANCH  11  12
ENDBRANCH   4  11
TORSDOF 6
ENDMDL
MODEL 2
REMARK VINA RESULT:      -7.3      1.823      2.278
REMARK  Name = 
REMARK  6 active torsions:
REMARK  status: ('A' for Active; 'I' for Inactive)
REMARK    1  A    between atoms: C_2  and  O_3
REMARK    2  A    between atoms: C_2  and  C_4
REMARK    3  A    between atoms: C_7  and  C_8
REMARK    4  A    between atoms: C_8  and  C_9
REMARK    5  A    between atoms: C_9  and  C_10
REMARK    6  A    between atoms: C_15  and  O_16
REMARK                            x       y       z     vdW  Elec       q    Type
REMARK                         _______ _______ _______ _____ _____    ______ ____
ROOT
ATOM      1  C   UNK     1       7.074   5.266  17.681  0.00  0.00    +0.000 C 
ATOM      2  C   UNK     1       6.516   6.490  16.958  0.00  0.00    +0.000 C 
ATOM      3  S   UNK     1       5.707   5.821  15.497  0.00  0.00    +0.000 S 
ATOM      4  C   UNK     1       5.338   4.253  16.307  0.00  0.00    +0.000 C 
ATOM      5  N   UNK     1       6.492   3.965  17.184  0.00  0.00    +0.000 NA
ATOM      6  H   UNK     1       7.204   3.575  16.557  0.00  0.00    +0.000 HD
ENDROOT
BRANCH   1   8
ATOM      7  O   UNK     1       5.738   5.326  19.724  0.00  0.00    +0.000 OA
ATOM      8  C   UNK     1       6.831   5.395  19.187  0.00  0.00    +0.000 C 
BRANCH   8   9
ATOM      9  O   UNK     1       7.983   5.616  19.871  0.00  0.00    +0.000 OA
ATOM     10  H   UNK     1       7.792   5.405  20.818  0.00  0.00    +0.000 HD
ENDBRANCH   8   9
ENDBRANCH   1   8
BRANCH   4  11
ATOM     11  C   UNK     1       4.034   4.256  17.118  0.00  0.00    +0.000 C 
BRANCH  11  12
ATOM     12  C   UNK     1       3.597   2.851  17.550  0.00  0.00    +0.000 C 
BRANCH  12  13
ATOM     13  C   UNK     1       2.904   2.870  18.892  0.00  0.00    +0.000 A 
ATOM     14  C   UNK     1       1.537   3.178  18.959  0.00  0.00    +0.000 A 
ATOM     15  C   UNK     1       0.871   3.199  20.186  0.00  0.00    +0.000 A 
ATOM     16  C   UNK     1       1.565   2.916  21.360  0.00  0.00    +0.000 A 
ATOM     17  C   UNK     1       2.929   2.622  21.311  0.00  0.00    +0.000 A 
ATOM     18  C   UNK     1       3.589   2.609  20.083  0.00  0.00    +0.000 A 
BRANCH  18  19
ATOM     19  O   UNK     1       4.930   2.340  20.027  0.00  0.00    +0.000 OA
ATOM     20  H   UNK     1       5.182   1.870  20.838  0.00  0.00    +0.000 HD
ENDBRANCH  18  19
ENDBRANCH  12  13
ENDBRANCH  11  12
ENDBRANCH   4  11
TORSDOF 6
ENDMDL
MODEL 3
REMARK VINA RESULT:      -7.3      1.142      1.616
REMARK  Name = 
REMARK  6 active torsions:
REMARK  status: ('A' for Active; 'I' for Inactive)
REMARK    1  A    between atoms: C_2  and  O_3
REMARK    2  A    between atoms: C_2  and  C_4
REMARK    3  A    between atoms: C_7  and  C_8
REMARK    4  A    between atoms: C_8  and  C_9
REMARK    5  A    between atoms: C_9  and  C_10
REMARK    6  A    between atoms: C_15  and  O_16
REMARK                            x       y       z     vdW  Elec       q    Type
REMARK                         _______ _______ _______ _____ _____    ______ ____
ROOT
ATOM      1  C   UNK     1       7.372   4.760  17.977  0.00  0.00    +0.000 C 
ATOM      2  C   UNK     1       7.183   5.306  16.564  0.00  0.00    +0.000 C 
ATOM      3  S   UNK     1       5.598   4.643  16.032  0.00  0.00    +0.000 S 
ATOM      4  C   UNK     1       4.959   4.574  17.717  0.00  0.00    +0.000 C 
ATOM      5  N   UNK     1       6.104   4.199  18.573  0.00  0.00    +0.000 NA
ATOM      6  H   UNK     1       6.185   3.182  18.468  0.00  0.00    +0.000 HD
ENDROOT
BRANCH   1   8
ATOM      7  O   UNK     1       8.100   7.018  18.555  0.00  0.00    +0.000 OA
ATOM      8  C   UNK     1       7.926   5.857  18.890  0.00  0.00    +0.000 C 
BRANCH   8   9
ATOM      9  O   UNK     1       8.225   5.387  20.128  0.00  0.00    +0.000 OA
ATOM     10  H   UNK     1       8.744   6.097  20.580  0.00  0.00    +0.000 HD
ENDBRANCH   8   9
ENDBRANCH   1   8
BRANCH   4  11
ATOM     11  C   UNK     1       4.330   5.887  18.205  0.00  0.00    +0.000 C 
BRANCH  11  12
ATOM     12  C   UNK     1       2.812   5.938  17.990  0.00  0.00    +0.000 C 
BRANCH  12  13
ATOM     13  C   UNK     1       2.108   4.818  18.718  0.00  0.00    +0.000 A 
ATOM     14  C   UNK     1       1.648   3.706  17.997  0.00  0.00    +0.000 A 
ATOM     15  C   UNK     1       0.997   2.656  18.645  0.00  0.00    +0.000 A 
ATOM     16  C   UNK     1       0.795   2.705  20.022  0.00  0.00    +0.000 A 
ATOM     17  C   UNK     1       1.234   3.812  20.752  0.00  0.00    +0.000 A 
ATOM     18  C   UNK     1       1.877   4.861  20.097  0.00  0.00    +0.000 A 
BRANCH  18  19
ATOM     19  O   UNK     1       2.294   5.957  20.801  0.00  0.00    +0.000 OA
ATOM     20  H   UNK     1       3.082   5.712  21.314  0.00  0.00    +0.000 HD
ENDBRANCH  18  19
ENDBRANCH  12  13
ENDBRANCH  11  12
ENDBRANCH   4  11
TORSDOF 6
ENDMDL
MODEL 4
REMARK VINA RESULT:      -7.3      1.552      2.093
REMARK  Name = 
REMARK  6 active torsions:
REMARK  status: ('A' for Active; 'I' for Inactive)
REMARK    1  A    between atoms: C_2  and  O_3
REMARK    2  A    between atoms: C_2  and  C_4
REMARK    3  A    between atoms: C_7  and  C_8
REMARK    4  A    between atoms: C_8  and  C_9
REMARK    5  A    between atoms: C_9  and  C_10
REMARK    6  A    between atoms: C_15  and  O_16
REMARK                            x       y       z     vdW  Elec       q    Type
REMARK                         _______ _______ _______ _____ _____    ______ ____
ROOT
ATOM      1  C   UNK     1       7.264   5.600  17.695  0.00  0.00    +0.000 C 
ATOM      2  C   UNK     1       6.251   6.666  17.287  0.00  0.00    +0.000 C 
ATOM      3  S   UNK     1       5.503   6.026  15.781  0.00  0.00    +0.000 S 
ATOM      4  C   UNK     1       5.771   4.311  16.269  0.00  0.00    +0.000 C 
ATOM      5  N   UNK     1       7.066   4.285  16.980  0.00  0.00    +0.000 NA
ATOM      6  H   UNK     1       7.771   4.275  16.235  0.00  0.00    +0.000 HD
ENDROOT
BRANCH   1   8
ATOM      7  O   UNK     1       6.186   5.137  19.835  0.00  0.00    +0.000 OA
ATOM      8  C   UNK     1       7.205   5.376  19.208  0.00  0.00    +0.000 C 
BRANCH   8   9
ATOM      9  O   UNK     1       8.427   5.490  19.788  0.00  0.00    +0.000 OA
ATOM     10  H   UNK     1       8.855   6.286  19.385  0.00  0.00    +0.000 HD
ENDBRANCH   8   9
ENDBRANCH   1   8
BRANCH   4  11
ATOM     11  C   UNK     1       4.659   3.729  17.155  0.00  0.00    +0.000 C 
BRANCH  11  12
ATOM     12  C   UNK     1       3.505   4.712  17.385  0.00  0.00    +0.000 C 
BRANCH  12  13
ATOM     13  C   UNK     1       2.600   4.257  18.506  0.00  0.00    +0.000 A 
ATOM     14  C   UNK     1       1.689   3.214  18.278  0.00  0.00    +0.000 A 
ATOM     15  C   UNK     1       0.844   2.772  19.296  0.00  0.00    +0.000 A 
ATOM     16  C   UNK     1       0.896   3.368  20.554  0.00  0.00    +0.000 A 
ATOM     17  C   UNK     1       1.787   4.417  20.792  0.00  0.00    +0.000 A 
ATOM     18  C   UNK     1       2.624   4.859  19.768  0.00  0.00    +0.000 A 
BRANCH  18  19
ATOM     19  O   UNK     1       3.487   5.898  19.987  0.00  0.00    +0.000 OA
ATOM     20  H   UNK     1       3.389   6.189  20.908  0.00  0.00    +0.000 HD
ENDBRANCH  18  19
ENDBRANCH  12  13
ENDBRANCH  11  12
ENDBRANCH   4  11
TORSDOF 6
ENDMDL
MODEL 5
REMARK VINA RESULT:      -7.1      2.640      3.004
REMARK  Name = 
REMARK  6 active torsions:
REMARK  status: ('A' for Active; 'I' for Inactive)
REMARK    1  A    between atoms: C_2  and  O_3
REMARK    2  A    between atoms: C_2  and  C_4
REMARK    3  A    between atoms: C_7  and  C_8
REMARK    4  A    between atoms: C_8  and  C_9
REMARK    5  A    between atoms: C_9  and  C_10
REMARK    6  A    between atoms: C_15  and  O_16
REMARK                            x       y       z     vdW  Elec       q    Type
REMARK                         _______ _______ _______ _____ _____    ______ ____
ROOT
ATOM      1  C   UNK     1       7.030   5.008  15.995  0.00  0.00    +0.000 C 
ATOM      2  C   UNK     1       7.550   4.584  17.366  0.00  0.00    +0.000 C 
ATOM      3  S   UNK     1       7.347   6.044  18.397  0.00  0.00    +0.000 S 
ATOM      4  C   UNK     1       5.940   6.638  17.438  0.00  0.00    +0.000 C 
ATOM      5  N   UNK     1       6.226   6.286  16.032  0.00  0.00    +0.000 NA
ATOM      6  H   UNK     1       6.869   7.017  15.707  0.00  0.00    +0.000 HD
ENDROOT
BRANCH   1   8
ATOM      7  O   UNK     1       6.030   3.700  14.193  0.00  0.00    +0.000 OA
ATOM      8  C   UNK     1       6.182   3.887  15.388  0.00  0.00    +0.000 C 
BRANCH   8   9
ATOM      9  O   UNK     1       5.594   3.121  16.343  0.00  0.00    +0.000 OA
ATOM     10  H   UNK     1       4.687   3.491  16.479  0.00  0.00    +0.000 HD
ENDBRANCH   8   9
ENDBRANCH   1   8
BRANCH   4  11
ATOM     11  C   UNK     1       4.589   6.052  17.875  0.00  0.00    +0.000 C 
BRANCH  11  12
ATOM     12  C   UNK     1       4.576   5.616  19.346  0.00  0.00    +0.000 C 
BRANCH  12  13
ATOM     13  C   UNK     1       3.484   4.609  19.619  0.00  0.00    +0.000 A 
ATOM     14  C   UNK     1       2.202   5.057  19.970  0.00  0.00    +0.000 A 
ATOM     15  C   UNK     1       1.175   4.148  20.225  0.00  0.00    +0.000 A 
ATOM     16  C   UNK     1       1.417   2.780  20.134  0.00  0.00    +0.000 A 
ATOM     17  C   UNK     1       2.692   2.317  19.800  0.00  0.00    +0.000 A 
ATOM     18  C   UNK     1       3.715   3.231  19.554  0.00  0.00    +0.000 A 
BRANCH  18  19
ATOM     19  O   UNK     1       4.972   2.787  19.244  0.00  0.00    +0.000 OA
ATOM     20  H   UNK     1       5.605   3.211  19.846  0.00  0.00    +0.000 HD
ENDBRANCH  18  19
ENDBRANCH  12  13
ENDBRANCH  11  12
ENDBRANCH   4  11
TORSDOF 6
ENDMDL
MODEL 6
REMARK VINA RESULT:      -7.0      2.535      3.122
REMARK  Name = 
REMARK  6 active torsions:
REMARK  status: ('A' for Active; 'I' for Inactive)
REMARK    1  A    between atoms: C_2  and  O_3
REMARK    2  A    between atoms: C_2  and  C_4
REMARK    3  A    between atoms: C_7  and  C_8
REMARK    4  A    between atoms: C_8  and  C_9
REMARK    5  A    between atoms: C_9  and  C_10
REMARK    6  A    between atoms: C_15  and  O_16
REMARK                            x       y       z     vdW  Elec       q    Type
REMARK                         _______ _______ _______ _____ _____    ______ ____
ROOT
ATOM      1  C   UNK     1       7.115   5.660  16.372  0.00  0.00    +0.000 C 
ATOM      2  C   UNK     1       7.332   4.694  17.534  0.00  0.00    +0.000 C 
ATOM      3  S   UNK     1       6.264   5.314  18.842  0.00  0.00    +0.000 S 
ATOM      4  C   UNK     1       5.089   6.022  17.672  0.00  0.00    +0.000 C 
ATOM      5  N   UNK     1       5.893   6.531  16.542  0.00  0.00    +0.000 NA
ATOM      6  H   UNK     1       6.252   7.436  16.865  0.00  0.00    +0.000 HD
ENDROOT
BRANCH   1   8
ATOM      7  O   UNK     1       6.365   3.858  14.907  0.00  0.00    +0.000 OA
ATOM      8  C   UNK     1       7.011   4.881  15.058  0.00  0.00    +0.000 C 
BRANCH   8   9
ATOM      9  O   UNK     1       7.743   5.453  14.068  0.00  0.00    +0.000 OA
ATOM     10  H   UNK     1       8.531   5.863  14.503  0.00  0.00    +0.000 HD
ENDBRANCH   8   9
ENDBRANCH   1   8
BRANCH   4  11
ATOM     11  C   UNK     1       4.026   5.033  17.172  0.00  0.00    +0.000 C 
BRANCH  11  12
ATOM     12  C   UNK     1       4.164   3.641  17.801  0.00  0.00    +0.000 C 
BRANCH  12  13
ATOM     13  C   UNK     1       3.247   3.472  18.989  0.00  0.00    +0.000 A 
ATOM     14  C   UNK     1       1.988   4.091  18.984  0.00  0.00    +0.000 A 
ATOM     15  C   UNK     1       1.120   3.949  20.068  0.00  0.00    +0.000 A 
ATOM     16  C   UNK     1       1.501   3.189  21.171  0.00  0.00    +0.000 A 
ATOM     17  C   UNK     1       2.757   2.579  21.197  0.00  0.00    +0.000 A 
ATOM     18  C   UNK     1       3.622   2.731  20.114  0.00  0.00    +0.000 A 
BRANCH  18  19
ATOM     19  O   UNK     1       4.862   2.152  20.140  0.00  0.00    +0.000 OA
ATOM     20  H   UNK     1       5.017   1.799  21.031  0.00  0.00    +0.000 HD
ENDBRANCH  18  19
ENDBRANCH  12  13
ENDBRANCH  11  12
ENDBRANCH   4  11
TORSDOF 6
ENDMDL
MODEL 7
REMARK VINA RESULT:      -6.9      1.018      1.289
REMARK  Name = 
REMARK  6 active torsions:
REMARK  status: ('A' for Active; 'I' for Inactive)
REMARK    1  A    between atoms: C_2  and  O_3
REMARK    2  A    between atoms: C_2  and  C_4
REMARK    3  A    between atoms: C_7  and  C_8
REMARK    4  A    between atoms: C_8  and  C_9
REMARK    5  A    between atoms: C_9  and  C_10
REMARK    6  A    between atoms: C_15  and  O_16
REMARK                            x       y       z     vdW  Elec       q    Type
REMARK                         _______ _______ _______ _____ _____    ______ ____
ROOT
ATOM      1  C   UNK     1       7.333   4.725  17.395  0.00  0.00    +0.000 C 
ATOM      2  C   UNK     1       7.012   4.836  15.907  0.00  0.00    +0.000 C 
ATOM      3  S   UNK     1       5.610   3.735  15.663  0.00  0.00    +0.000 S 
ATOM      4  C   UNK     1       5.020   3.964  17.352  0.00  0.00    +0.000 C 
ATOM      5  N   UNK     1       6.228   4.076  18.195  0.00  0.00    +0.000 NA
ATOM      6  H   UNK     1       6.535   3.108  18.340  0.00  0.00    +0.000 HD
ENDROOT
BRANCH   1   8
ATOM      7  O   UNK     1       8.009   6.325  19.110  0.00  0.00    +0.000 OA
ATOM      8  C   UNK     1       7.635   6.112  17.969  0.00  0.00    +0.000 C 
BRANCH   8   9
ATOM      9  O   UNK     1       7.422   7.096  17.058  0.00  0.00    +0.000 OA
ATOM     10  H   UNK     1       6.509   6.958  16.705  0.00  0.00    +0.000 HD
ENDBRANCH   8   9
ENDBRANCH   1   8
BRANCH   4  11
ATOM     11  C   UNK     1       4.117   5.192  17.541  0.00  0.00    +0.000 C 
BRANCH  11  12
ATOM     12  C   UNK     1       2.629   4.831  17.620  0.00  0.00    +0.000 C 
BRANCH  12  13
ATOM     13  C   UNK     1       2.286   4.159  18.928  0.00  0.00    +0.000 A 
ATOM     14  C   UNK     1       2.407   4.877  20.127  0.00  0.00    +0.000 A 
ATOM     15  C   UNK     1       2.095   4.281  21.349  0.00  0.00    +0.000 A 
ATOM     16  C   UNK     1       1.660   2.959  21.388  0.00  0.00    +0.000 A 
ATOM     17  C   UNK     1       1.549   2.225  20.205  0.00  0.00    +0.000 A 
ATOM     18  C   UNK     1       1.870   2.825  18.988  0.00  0.00    +0.000 A 
BRANCH  18  19
ATOM     19  O   UNK     1       1.781   2.108  17.825  0.00  0.00    +0.000 OA
ATOM     20  H   UNK     1       1.013   2.428  17.325  0.00  0.00    +0.000 HD
ENDBRANCH  18  19
ENDBRANCH  12  13
ENDBRANCH  11  12
ENDBRANCH   4  11
TORSDOF 6
ENDMDL
MODEL 8
REMARK VINA RESULT:      -6.9      1.507      1.813
REMARK  Name = 
REMARK  6 active torsions:
REMARK  status: ('A' for Active; 'I' for Inactive)
REMARK    1  A    between atoms: C_2  and  O_3
REMARK    2  A    between atoms: C_2  and  C_4
REMARK    3  A    between atoms: C_7  and  C_8
REMARK    4  A    between atoms: C_8  and  C_9
REMARK    5  A    between atoms: C_9  and  C_10
REMARK    6  A    between atoms: C_15  and  O_16
REMARK                            x       y       z     vdW  Elec       q    Type
REMARK                         _______ _______ _______ _____ _____    ______ ____
ROOT
ATOM      1  C   UNK     1       7.319   4.705  17.269  0.00  0.00    +0.000 C 
ATOM      2  C   UNK     1       7.111   5.537  16.007  0.00  0.00    +0.000 C 
ATOM      3  S   UNK     1       5.623   4.859  15.258  0.00  0.00    +0.000 S 
ATOM      4  C   UNK     1       4.949   4.342  16.849  0.00  0.00    +0.000 C 
ATOM      5  N   UNK     1       6.103   3.898  17.657  0.00  0.00    +0.000 NA
ATOM      6  H   UNK     1       6.298   2.945  17.331  0.00  0.00    +0.000 HD
ENDROOT
BRANCH   1   8
ATOM      7  O   UNK     1       7.994   5.226  19.557  0.00  0.00    +0.000 OA
ATOM      8  C   UNK     1       7.724   5.614  18.432  0.00  0.00    +0.000 C 
BRANCH   8   9
ATOM      9  O   UNK     1       7.735   6.924  18.075  0.00  0.00    +0.000 OA
ATOM     10  H   UNK     1       7.882   7.440  18.905  0.00  0.00    +0.000 HD
ENDBRANCH   8   9
ENDBRANCH   1   8
BRANCH   4  11
ATOM     11  C   UNK     1       4.167   5.439  17.586  0.00  0.00    +0.000 C 
BRANCH  11  12
ATOM     12  C   UNK     1       4.326   5.364  19.110  0.00  0.00    +0.000 C 
BRANCH  12  13
ATOM     13  C   UNK     1       3.269   4.489  19.739  0.00  0.00    +0.000 A 
ATOM     14  C   UNK     1       1.994   5.017  19.991  0.00  0.00    +0.000 A 
ATOM     15  C   UNK     1       0.998   4.229  20.568  0.00  0.00    +0.000 A 
ATOM     16  C   UNK     1       1.264   2.904  20.903  0.00  0.00    +0.000 A 
ATOM     17  C   UNK     1       2.533   2.367  20.672  0.00  0.00    +0.000 A 
ATOM     18  C   UNK     1       3.526   3.163  20.102  0.00  0.00    +0.000 A 
BRANCH  18  19
ATOM     19  O   UNK     1       4.777   2.651  19.888  0.00  0.00    +0.000 OA
ATOM     20  H   UNK     1       4.748   1.693  20.048  0.00  0.00    +0.000 HD
ENDBRANCH  18  19
ENDBRANCH  12  13
ENDBRANCH  11  12
ENDBRANCH   4  11
TORSDOF 6
ENDMDL
MODEL 9
REMARK VINA RESULT:      -6.9      2.293      5.951
REMARK  Name = 
REMARK  6 active torsions:
REMARK  status: ('A' for Active; 'I' for Inactive)
REMARK    1  A    between atoms: C_2  and  O_3
REMARK    2  A    between atoms: C_2  and  C_4
REMARK    3  A    between atoms: C_7  and  C_8
REMARK    4  A    between atoms: C_8  and  C_9
REMARK    5  A    between atoms: C_9  and  C_10
REMARK    6  A    between atoms: C_15  and  O_16
REMARK                            x       y       z     vdW  Elec       q    Type
REMARK                         _______ _______ _______ _____ _____    ______ ____
ROOT
ATOM      1  C   UNK     1       1.968   2.990  19.769  0.00  0.00    +0.000 C 
ATOM      2  C   UNK     1       0.864   3.987  20.111  0.00  0.00    +0.000 C 
ATOM      3  S   UNK     1       1.740   5.464  20.648  0.00  0.00    +0.000 S 
ATOM      4  C   UNK     1       3.173   5.100  19.615  0.00  0.00    +0.000 C 
ATOM      5  N   UNK     1       3.329   3.631  19.636  0.00  0.00    +0.000 NA
ATOM      6  H   UNK     1       3.806   3.432  20.522  0.00  0.00    +0.000 HD
ENDROOT
BRANCH   1   8
ATOM      7  O   UNK     1       2.412   2.008  17.578  0.00  0.00    +0.000 OA
ATOM      8  C   UNK     1       1.620   2.251  18.474  0.00  0.00    +0.000 C 
BRANCH   8   9
ATOM      9  O   UNK     1       0.308   1.906  18.421  0.00  0.00    +0.000 OA
ATOM     10  H   UNK     1       0.096   1.477  19.287  0.00  0.00    +0.000 HD
ENDBRANCH   8   9
ENDBRANCH   1   8
BRANCH   4  11
ATOM     11  C   UNK     1       3.051   5.607  18.171  0.00  0.00    +0.000 C 
BRANCH  11  12
ATOM     12  C   UNK     1       4.178   5.099  17.263  0.00  0.00    +0.000 C 
BRANCH  12  13
ATOM     13  C   UNK     1       5.505   5.728  17.615  0.00  0.00    +0.000 A 
ATOM     14  C   UNK     1       5.809   7.012  17.138  0.00  0.00    +0.000 A 
ATOM     15  C   UNK     1       7.026   7.617  17.451  0.00  0.00    +0.000 A 
ATOM     16  C   UNK     1       7.956   6.946  18.242  0.00  0.00    +0.000 A 
ATOM     17  C   UNK     1       7.674   5.662  18.712  0.00  0.00    +0.000 A 
ATOM     18  C   UNK     1       6.458   5.060  18.389  0.00  0.00    +0.000 A 
BRANCH  18  19
ATOM     19  O   UNK     1       6.181   3.794  18.831  0.00  0.00    +0.000 OA
ATOM     20  H   UNK     1       5.758   3.303  18.108  0.00  0.00    +0.000 HD
ENDBRANCH  18  19
ENDBRANCH  12  13
ENDBRANCH  11  12
ENDBRANCH   4  11
TORSDOF 6
ENDMDL
