MODEL 1
REMARK VINA RESULT:      -7.9      0.000      0.000
REMARK  Name = 
REMARK  14 active torsions:
REMARK  status: ('A' for Active; 'I' for Inactive)
REMARK    1  A    between atoms: C_1  and  N_2
REMARK    2  A    between atoms: N_2  and  C_3
REMARK    3  A    between atoms: C_3  and  C_4
REMARK    4  A    between atoms: C_3  and  C_5
REMARK    5  A    between atoms: N_7  and  C_8
REMARK    6  A    between atoms: C_8  and  C_9
REMARK    7  A    between atoms: C_8  and  C_31
REMARK    8  A    between atoms: N_11  and  C_12
REMARK    9  A    between atoms: C_12  and  C_13
REMARK   10  A    between atoms: C_12  and  C_14
REMARK   11  A    between atoms: C_16  and  C_17
REMARK   12  A    between atoms: C_23  and  C_24
REMARK   13  A    between atoms: C_31  and  C_32
REMARK   14  A    between atoms: C_31  and  C_33
REMARK                            x       y       z     vdW  Elec       q    Type
REMARK                         _______ _______ _______ _____ _____    ______ ____
ROOT
ATOM      1  C   UNL     1       1.531   9.922  18.305  0.00  0.00    +0.000 C 
ATOM      2  C   UNL     1       2.376  11.051  17.736  0.00  0.00    +0.000 C 
ENDROOT
BRANCH   1   3
ATOM      3  C   UNL     1       2.251   8.597  18.212  0.00  0.00    +0.000 A 
ATOM      4  N   UNL     1       3.410   8.318  17.635  0.00  0.00    +0.000 NA
ATOM      5  C   UNL     1       3.576   6.960  17.867  0.00  0.00    +0.000 A 
ATOM      6  C   UNL     1       2.516   6.481  18.623  0.00  0.00    +0.000 A 
ATOM      7  O   UNL     1       1.649   7.530  18.818  0.00  0.00    +0.000 OA
BRANCH   5   8
ATOM      8  C   UNL     1       4.696   6.185  17.338  0.00  0.00    +0.000 A 
ATOM      9  C   UNL     1       5.528   5.465  18.199  0.00  0.00    +0.000 A 
ATOM     10  C   UNL     1       6.605   4.722  17.695  0.00  0.00    +0.000 A 
ATOM     11  C   UNL     1       6.856   4.696  16.318  0.00  0.00    +0.000 A 
ATOM     12  C   UNL     1       6.038   5.419  15.457  0.00  0.00    +0.000 A 
ATOM     13  C   UNL     1       4.977   6.168  15.963  0.00  0.00    +0.000 A 
ENDBRANCH   5   8
BRANCH   6  14
ATOM     14  C   UNL     1       2.121   5.210  19.227  0.00  0.00    +0.000 A 
ATOM     15  C   UNL     1       2.209   5.011  20.614  0.00  0.00    +0.000 A 
ATOM     16  C   UNL     1       1.862   3.784  21.188  0.00  0.00    +0.000 A 
ATOM     17  C   UNL     1       1.409   2.741  20.384  0.00  0.00    +0.000 A 
ATOM     18  C   UNL     1       1.305   2.927  19.006  0.00  0.00    +0.000 A 
ATOM     19  C   UNL     1       1.660   4.151  18.433  0.00  0.00    +0.000 A 
ENDBRANCH   6  14
ENDBRANCH   1   3
BRANCH   1  22
ATOM     20  C   UNL     1       0.078  10.820  20.128  0.00  0.00    +0.000 C 
ATOM     21  O   UNL     1      -0.735  11.280  19.323  0.00  0.00    +0.000 OA
ATOM     22  N   UNL     1       1.205  10.168  19.706  0.00  0.00    +0.000 N 
ATOM     23  H   UNL     1       1.921   9.890  20.354  0.00  0.00    +0.000 HD
BRANCH  20  24
ATOM     24  C   UNL     1      -0.233  10.815  21.657  0.00  0.00    +0.000 C 
BRANCH  24  27
ATOM     25  C   UNL     1      -1.444  12.763  22.709  0.00  0.00    +0.000 C 
ATOM     26  O   UNL     1      -0.455  13.193  23.303  0.00  0.00    +0.000 OA
ATOM     27  N   UNL     1      -1.428  11.643  21.922  0.00  0.00    +0.000 N 
ATOM     28  H   UNL     1      -2.269  11.460  21.377  0.00  0.00    +0.000 HD
BRANCH  25  29
ATOM     29  C   UNL     1      -2.830  13.432  22.838  0.00  0.00    +0.000 C 
ATOM     30  C   UNL     1      -2.792  14.502  23.930  0.00  0.00    +0.000 C 
BRANCH  29  32
ATOM     31  C   UNL     1      -4.334  12.442  24.479  0.00  0.00    +0.000 C 
ATOM     32  N   UNL     1      -3.864  12.401  23.092  0.00  0.00    +0.000 NA
ATOM     33  H   UNL     1      -4.667  12.612  22.489  0.00  0.00    +0.000 HD
ENDBRANCH  29  32
ENDBRANCH  25  29
ENDBRANCH  24  27
BRANCH  24  34
ATOM     34  C   UNL     1      -0.148   9.508  22.486  0.00  0.00    +0.000 C 
ATOM     35  C   UNL     1      -0.566   8.208  21.793  0.00  0.00    +0.000 C 
ATOM     36  C   UNL     1       1.226   9.351  23.152  0.00  0.00    +0.000 C 
ENDBRANCH  24  34
ENDBRANCH  20  24
ENDBRANCH   1  22
TORSDOF 9
ENDMDL
MODEL 2
REMARK VINA RESULT:      -7.9      0.579      1.031
REMARK  Name = 
REMARK  14 active torsions:
REMARK  status: ('A' for Active; 'I' for Inactive)
REMARK    1  A    between atoms: C_1  and  N_2
REMARK    2  A    between atoms: N_2  and  C_3
REMARK    3  A    between atoms: C_3  and  C_4
REMARK    4  A    between atoms: C_3  and  C_5
REMARK    5  A    between atoms: N_7  and  C_8
REMARK    6  A    between atoms: C_8  and  C_9
REMARK    7  A    between atoms: C_8  and  C_31
REMARK    8  A    between atoms: N_11  and  C_12
REMARK    9  A    between atoms: C_12  and  C_13
REMARK   10  A    between atoms: C_12  and  C_14
REMARK   11  A    between atoms: C_16  and  C_17
REMARK   12  A    between atoms: C_23  and  C_24
REMARK   13  A    between atoms: C_31  and  C_32
REMARK   14  A    between atoms: C_31  and  C_33
REMARK                            x       y       z     vdW  Elec       q    Type
REMARK                         _______ _______ _______ _____ _____    ______ ____
ROOT
ATOM      1  C   UNL     1       1.614  10.026  18.160  0.00  0.00    +0.000 C 
ATOM      2  C   UNL     1       2.522  11.151  17.690  0.00  0.00    +0.000 C 
ENDROOT
BRANCH   1   3
ATOM      3  C   UNL     1       2.311   8.688  18.081  0.00  0.00    +0.000 A 
ATOM      4  N   UNL     1       3.518   8.404  17.615  0.00  0.00    +0.000 NA
ATOM      5  C   UNL     1       3.629   7.033  17.800  0.00  0.00    +0.000 A 
ATOM      6  C   UNL     1       2.486   6.550  18.419  0.00  0.00    +0.000 A 
ATOM      7  O   UNL     1       1.626   7.611  18.571  0.00  0.00    +0.000 OA
BRANCH   5   8
ATOM      8  C   UNL     1       4.781   6.253  17.354  0.00  0.00    +0.000 A 
ATOM      9  C   UNL     1       5.621   5.637  18.285  0.00  0.00    +0.000 A 
ATOM     10  C   UNL     1       6.728   4.889  17.860  0.00  0.00    +0.000 A 
ATOM     11  C   UNL     1       7.003   4.754  16.495  0.00  0.00    +0.000 A 
ATOM     12  C   UNL     1       6.177   5.375  15.564  0.00  0.00    +0.000 A 
ATOM     13  C   UNL     1       5.085   6.129  15.989  0.00  0.00    +0.000 A 
ENDBRANCH   5   8
BRANCH   6  14
ATOM     14  C   UNL     1       2.003   5.265  18.920  0.00  0.00    +0.000 A 
ATOM     15  C   UNL     1       1.723   4.206  18.042  0.00  0.00    +0.000 A 
ATOM     16  C   UNL     1       1.230   2.988  18.518  0.00  0.00    +0.000 A 
ATOM     17  C   UNL     1       1.023   2.804  19.883  0.00  0.00    +0.000 A 
ATOM     18  C   UNL     1       1.308   3.842  20.770  0.00  0.00    +0.000 A 
ATOM     19  C   UNL     1       1.793   5.063  20.291  0.00  0.00    +0.000 A 
ENDBRANCH   6  14
ENDBRANCH   1   3
BRANCH   1  22
ATOM     20  C   UNL     1      -0.042  10.717  19.899  0.00  0.00    +0.000 C 
ATOM     21  O   UNL     1      -0.877  11.035  19.049  0.00  0.00    +0.000 OA
ATOM     22  N   UNL     1       1.189  10.240  19.540  0.00  0.00    +0.000 N 
ATOM     23  H   UNL     1       1.909  10.085  20.225  0.00  0.00    +0.000 HD
BRANCH  20  24
ATOM     24  C   UNL     1      -0.419  10.687  21.412  0.00  0.00    +0.000 C 
BRANCH  24  27
ATOM     25  C   UNL     1      -1.407  12.733  22.511  0.00  0.00    +0.000 C 
ATOM     26  O   UNL     1      -0.396  13.001  23.162  0.00  0.00    +0.000 OA
ATOM     27  N   UNL     1      -1.505  11.656  21.672  0.00  0.00    +0.000 N 
ATOM     28  H   UNL     1      -2.337  11.611  21.087  0.00  0.00    +0.000 HD
BRANCH  25  29
ATOM     29  C   UNL     1      -2.696  13.575  22.620  0.00  0.00    +0.000 C 
ATOM     30  C   UNL     1      -2.473  14.953  21.996  0.00  0.00    +0.000 C 
BRANCH  29  32
ATOM     31  C   UNL     1      -4.055  12.581  24.381  0.00  0.00    +0.000 C 
ATOM     32  N   UNL     1      -3.125  13.659  24.036  0.00  0.00    +0.000 NA
ATOM     33  H   UNL     1      -2.289  13.542  24.621  0.00  0.00    +0.000 HD
ENDBRANCH  29  32
ENDBRANCH  25  29
ENDBRANCH  24  27
BRANCH  24  34
ATOM     34  C   UNL     1      -0.544   9.346  22.179  0.00  0.00    +0.000 C 
ATOM     35  C   UNL     1      -0.009   8.089  21.486  0.00  0.00    +0.000 C 
ATOM     36  C   UNL     1       0.010   9.458  23.605  0.00  0.00    +0.000 C 
ENDBRANCH  24  34
ENDBRANCH  20  24
ENDBRANCH   1  22
TORSDOF 9
ENDMDL
MODEL 3
REMARK VINA RESULT:      -7.8      0.692      1.193
REMARK  Name = 
REMARK  14 active torsions:
REMARK  status: ('A' for Active; 'I' for Inactive)
REMARK    1  A    between atoms: C_1  and  N_2
REMARK    2  A    between atoms: N_2  and  C_3
REMARK    3  A    between atoms: C_3  and  C_4
REMARK    4  A    between atoms: C_3  and  C_5
REMARK    5  A    between atoms: N_7  and  C_8
REMARK    6  A    between atoms: C_8  and  C_9
REMARK    7  A    between atoms: C_8  and  C_31
REMARK    8  A    between atoms: N_11  and  C_12
REMARK    9  A    between atoms: C_12  and  C_13
REMARK   10  A    between atoms: C_12  and  C_14
REMARK   11  A    between atoms: C_16  and  C_17
REMARK   12  A    between atoms: C_23  and  C_24
REMARK   13  A    between atoms: C_31  and  C_32
REMARK   14  A    between atoms: C_31  and  C_33
REMARK                            x       y       z     vdW  Elec       q    Type
REMARK                         _______ _______ _______ _____ _____    ______ ____
ROOT
ATOM      1  C   UNL     1       1.502   9.778  18.310  0.00  0.00    +0.000 C 
ATOM      2  C   UNL     1       2.371  10.903  17.770  0.00  0.00    +0.000 C 
ENDROOT
BRANCH   1   3
ATOM      3  C   UNL     1       2.216   8.449  18.235  0.00  0.00    +0.000 A 
ATOM      4  N   UNL     1       3.346   8.145  17.615  0.00  0.00    +0.000 NA
ATOM      5  C   UNL     1       3.521   6.796  17.891  0.00  0.00    +0.000 A 
ATOM      6  C   UNL     1       2.498   6.350  18.714  0.00  0.00    +0.000 A 
ATOM      7  O   UNL     1       1.642   7.407  18.909  0.00  0.00    +0.000 OA
BRANCH   5   8
ATOM      8  C   UNL     1       4.614   5.998  17.339  0.00  0.00    +0.000 A 
ATOM      9  C   UNL     1       4.354   4.767  16.732  0.00  0.00    +0.000 A 
ATOM     10  C   UNL     1       5.401   3.998  16.203  0.00  0.00    +0.000 A 
ATOM     11  C   UNL     1       6.719   4.460  16.280  0.00  0.00    +0.000 A 
ATOM     12  C   UNL     1       6.985   5.680  16.892  0.00  0.00    +0.000 A 
ATOM     13  C   UNL     1       5.945   6.435  17.430  0.00  0.00    +0.000 A 
ENDBRANCH   5   8
BRANCH   6  14
ATOM     14  C   UNL     1       2.131   5.104  19.384  0.00  0.00    +0.000 A 
ATOM     15  C   UNL     1       1.480   4.073  18.689  0.00  0.00    +0.000 A 
ATOM     16  C   UNL     1       1.101   2.895  19.339  0.00  0.00    +0.000 A 
ATOM     17  C   UNL     1       1.379   2.724  20.692  0.00  0.00    +0.000 A 
ATOM     18  C   UNL     1       2.036   3.734  21.395  0.00  0.00    +0.000 A 
ATOM     19  C   UNL     1       2.408   4.915  20.746  0.00  0.00    +0.000 A 
ENDBRANCH   6  14
ENDBRANCH   1   3
BRANCH   1  22
ATOM     20  C   UNL     1       0.063  10.775  20.093  0.00  0.00    +0.000 C 
ATOM     21  O   UNL     1      -0.662  11.333  19.267  0.00  0.00    +0.000 OA
ATOM     22  N   UNL     1       1.138  10.024  19.702  0.00  0.00    +0.000 N 
ATOM     23  H   UNL     1       1.792   9.659  20.373  0.00  0.00    +0.000 HD
BRANCH  20  24
ATOM     24  C   UNL     1      -0.318  10.765  21.606  0.00  0.00    +0.000 C 
BRANCH  24  27
ATOM     25  C   UNL     1      -1.523  12.712  22.669  0.00  0.00    +0.000 C 
ATOM     26  O   UNL     1      -0.563  13.067  23.356  0.00  0.00    +0.000 OA
ATOM     27  N   UNL     1      -1.494  11.632  21.827  0.00  0.00    +0.000 N 
ATOM     28  H   UNL     1      -2.298  11.515  21.213  0.00  0.00    +0.000 HD
BRANCH  25  29
ATOM     29  C   UNL     1      -2.885  13.435  22.732  0.00  0.00    +0.000 C 
ATOM     30  C   UNL     1      -2.940  14.336  23.966  0.00  0.00    +0.000 C 
BRANCH  29  32
ATOM     31  C   UNL     1      -4.979  12.764  21.682  0.00  0.00    +0.000 C 
ATOM     32  N   UNL     1      -3.984  12.441  22.708  0.00  0.00    +0.000 NA
ATOM     33  H   UNL     1      -3.575  11.532  22.464  0.00  0.00    +0.000 HD
ENDBRANCH  29  32
ENDBRANCH  25  29
ENDBRANCH  24  27
BRANCH  24  34
ATOM     34  C   UNL     1      -0.316   9.447  22.423  0.00  0.00    +0.000 C 
ATOM     35  C   UNL     1      -0.563   8.146  21.656  0.00  0.00    +0.000 C 
ATOM     36  C   UNL     1       0.936   9.331  23.302  0.00  0.00    +0.000 C 
ENDBRANCH  24  34
ENDBRANCH  20  24
ENDBRANCH   1  22
TORSDOF 9
ENDMDL
MODEL 4
REMARK VINA RESULT:      -7.7      2.516      5.160
REMARK  Name = 
REMARK  14 active torsions:
REMARK  status: ('A' for Active; 'I' for Inactive)
REMARK    1  A    between atoms: C_1  and  N_2
REMARK    2  A    between atoms: N_2  and  C_3
REMARK    3  A    between atoms: C_3  and  C_4
REMARK    4  A    between atoms: C_3  and  C_5
REMARK    5  A    between atoms: N_7  and  C_8
REMARK    6  A    between atoms: C_8  and  C_9
REMARK    7  A    between atoms: C_8  and  C_31
REMARK    8  A    between atoms: N_11  and  C_12
REMARK    9  A    between atoms: C_12  and  C_13
REMARK   10  A    between atoms: C_12  and  C_14
REMARK   11  A    between atoms: C_16  and  C_17
REMARK   12  A    between atoms: C_23  and  C_24
REMARK   13  A    between atoms: C_31  and  C_32
REMARK   14  A    between atoms: C_31  and  C_33
REMARK                            x       y       z     vdW  Elec       q    Type
REMARK                         _______ _______ _______ _____ _____    ______ ____
ROOT
ATOM      1  C   UNL     1       0.968   9.348  21.224  0.00  0.00    +0.000 C 
ATOM      2  C   UNL     1      -0.259   9.175  22.106  0.00  0.00    +0.000 C 
ENDROOT
BRANCH   1   3
ATOM      3  C   UNL     1       1.443   8.022  20.679  0.00  0.00    +0.000 A 
ATOM      4  N   UNL     1       0.964   6.808  20.906  0.00  0.00    +0.000 NA
ATOM      5  C   UNL     1       1.778   5.984  20.143  0.00  0.00    +0.000 A 
ATOM      6  C   UNL     1       2.697   6.751  19.442  0.00  0.00    +0.000 A 
ATOM      7  O   UNL     1       2.500   8.060  19.812  0.00  0.00    +0.000 OA
BRANCH   5   8
ATOM      8  C   UNL     1       1.671   4.527  20.142  0.00  0.00    +0.000 A 
ATOM      9  C   UNL     1       1.941   3.796  21.301  0.00  0.00    +0.000 A 
ATOM     10  C   UNL     1       1.841   2.398  21.303  0.00  0.00    +0.000 A 
ATOM     11  C   UNL     1       1.468   1.719  20.138  0.00  0.00    +0.000 A 
ATOM     12  C   UNL     1       1.208   2.440  18.977  0.00  0.00    +0.000 A 
ATOM     13  C   UNL     1       1.322   3.829  18.974  0.00  0.00    +0.000 A 
ENDBRANCH   5   8
BRANCH   6  14
ATOM     14  C   UNL     1       3.759   6.520  18.465  0.00  0.00    +0.000 A 
ATOM     15  C   UNL     1       3.758   7.181  17.227  0.00  0.00    +0.000 A 
ATOM     16  C   UNL     1       4.756   6.935  16.279  0.00  0.00    +0.000 A 
ATOM     17  C   UNL     1       5.780   6.035  16.562  0.00  0.00    +0.000 A 
ATOM     18  C   UNL     1       5.802   5.379  17.792  0.00  0.00    +0.000 A 
ATOM     19  C   UNL     1       4.799   5.620  18.735  0.00  0.00    +0.000 A 
ENDBRANCH   6  14
ENDBRANCH   1   3
BRANCH   1  22
ATOM     20  C   UNL     1       0.889  11.583  20.110  0.00  0.00    +0.000 C 
ATOM     21  O   UNL     1       1.312  12.157  21.116  0.00  0.00    +0.000 OA
ATOM     22  N   UNL     1       0.681  10.230  20.098  0.00  0.00    +0.000 N 
ATOM     23  H   UNL     1       0.234   9.777  19.319  0.00  0.00    +0.000 HD
BRANCH  20  24
ATOM     24  C   UNL     1       0.736  12.353  18.761  0.00  0.00    +0.000 C 
BRANCH  24  27
ATOM     25  C   UNL     1      -1.729  11.914  18.444  0.00  0.00    +0.000 C 
ATOM     26  O   UNL     1      -2.065  12.427  19.512  0.00  0.00    +0.000 OA
ATOM     27  N   UNL     1      -0.430  11.828  18.020  0.00  0.00    +0.000 N 
ATOM     28  H   UNL     1      -0.286  11.505  17.065  0.00  0.00    +0.000 HD
BRANCH  25  29
ATOM     29  C   UNL     1      -2.755  11.265  17.491  0.00  0.00    +0.000 C 
ATOM     30  C   UNL     1      -2.883   9.773  17.800  0.00  0.00    +0.000 C 
BRANCH  29  32
ATOM     31  C   UNL     1      -3.175  10.733  15.150  0.00  0.00    +0.000 C 
ATOM     32  N   UNL     1      -2.365  11.520  16.083  0.00  0.00    +0.000 NA
ATOM     33  H   UNL     1      -2.544  12.511  15.886  0.00  0.00    +0.000 HD
ENDBRANCH  29  32
ENDBRANCH  25  29
ENDBRANCH  24  27
BRANCH  24  34
ATOM     34  C   UNL     1       0.913  13.891  18.694  0.00  0.00    +0.000 C 
ATOM     35  C   UNL     1       0.301  14.718  19.828  0.00  0.00    +0.000 C 
ATOM     36  C   UNL     1       2.380  14.280  18.468  0.00  0.00    +0.000 C 
ENDBRANCH  24  34
ENDBRANCH  20  24
ENDBRANCH   1  22
TORSDOF 9
ENDMDL
MODEL 5
REMARK VINA RESULT:      -7.7      0.624      1.043
REMARK  Name = 
REMARK  14 active torsions:
REMARK  status: ('A' for Active; 'I' for Inactive)
REMARK    1  A    between atoms: C_1  and  N_2
REMARK    2  A    between atoms: N_2  and  C_3
REMARK    3  A    between atoms: C_3  and  C_4
REMARK    4  A    between atoms: C_3  and  C_5
REMARK    5  A    between atoms: N_7  and  C_8
REMARK    6  A    between atoms: C_8  and  C_9
REMARK    7  A    between atoms: C_8  and  C_31
REMARK    8  A    between atoms: N_11  and  C_12
REMARK    9  A    between atoms: C_12  and  C_13
REMARK   10  A    between atoms: C_12  and  C_14
REMARK   11  A    between atoms: C_16  and  C_17
REMARK   12  A    between atoms: C_23  and  C_24
REMARK   13  A    between atoms: C_31  and  C_32
REMARK   14  A    between atoms: C_31  and  C_33
REMARK                            x       y       z     vdW  Elec       q    Type
REMARK                         _______ _______ _______ _____ _____    ______ ____
ROOT
ATOM      1  C   UNL     1       1.691   9.911  18.065  0.00  0.00    +0.000 C 
ATOM      2  C   UNL     1       2.624  11.046  17.672  0.00  0.00    +0.000 C 
ENDROOT
BRANCH   1   3
ATOM      3  C   UNL     1       2.390   8.574  17.988  0.00  0.00    +0.000 A 
ATOM      4  N   UNL     1       3.609   8.296  17.552  0.00  0.00    +0.000 NA
ATOM      5  C   UNL     1       3.715   6.923  17.723  0.00  0.00    +0.000 A 
ATOM      6  C   UNL     1       2.556   6.432  18.305  0.00  0.00    +0.000 A 
ATOM      7  O   UNL     1       1.692   7.492  18.446  0.00  0.00    +0.000 OA
BRANCH   5   8
ATOM      8  C   UNL     1       4.879   6.148  17.299  0.00  0.00    +0.000 A 
ATOM      9  C   UNL     1       5.145   5.957  15.941  0.00  0.00    +0.000 A 
ATOM     10  C   UNL     1       6.261   5.213  15.530  0.00  0.00    +0.000 A 
ATOM     11  C   UNL     1       7.119   4.652  16.483  0.00  0.00    +0.000 A 
ATOM     12  C   UNL     1       6.853   4.830  17.836  0.00  0.00    +0.000 A 
ATOM     13  C   UNL     1       5.736   5.558  18.241  0.00  0.00    +0.000 A 
ENDBRANCH   5   8
BRANCH   6  14
ATOM     14  C   UNL     1       2.060   5.141  18.776  0.00  0.00    +0.000 A 
ATOM     15  C   UNL     1       1.671   4.960  20.113  0.00  0.00    +0.000 A 
ATOM     16  C   UNL     1       1.228   3.716  20.571  0.00  0.00    +0.000 A 
ATOM     17  C   UNL     1       1.152   2.636  19.695  0.00  0.00    +0.000 A 
ATOM     18  C   UNL     1       1.523   2.803  18.361  0.00  0.00    +0.000 A 
ATOM     19  C   UNL     1       1.974   4.045  17.906  0.00  0.00    +0.000 A 
ENDBRANCH   6  14
ENDBRANCH   1   3
BRANCH   1  22
ATOM     20  C   UNL     1       0.038  10.751  19.740  0.00  0.00    +0.000 C 
ATOM     21  O   UNL     1      -0.656  11.277  18.867  0.00  0.00    +0.000 OA
ATOM     22  N   UNL     1       1.194  10.091  19.425  0.00  0.00    +0.000 N 
ATOM     23  H   UNL     1       1.816   9.757  20.142  0.00  0.00    +0.000 HD
BRANCH  20  24
ATOM     24  C   UNL     1      -0.466  10.672  21.214  0.00  0.00    +0.000 C 
BRANCH  24  27
ATOM     25  C   UNL     1      -1.913  12.450  22.270  0.00  0.00    +0.000 C 
ATOM     26  O   UNL     1      -1.068  12.795  23.098  0.00  0.00    +0.000 OA
ATOM     27  N   UNL     1      -1.714  11.452  21.354  0.00  0.00    +0.000 N 
ATOM     28  H   UNL     1      -2.429  11.345  20.637  0.00  0.00    +0.000 HD
BRANCH  25  29
ATOM     29  C   UNL     1      -3.317  13.091  22.219  0.00  0.00    +0.000 C 
ATOM     30  C   UNL     1      -3.220  14.583  22.538  0.00  0.00    +0.000 C 
BRANCH  29  32
ATOM     31  C   UNL     1      -4.795  13.276  24.147  0.00  0.00    +0.000 C 
ATOM     32  N   UNL     1      -4.231  12.374  23.140  0.00  0.00    +0.000 NA
ATOM     33  H   UNL     1      -5.011  12.010  22.582  0.00  0.00    +0.000 HD
ENDBRANCH  29  32
ENDBRANCH  25  29
ENDBRANCH  24  27
BRANCH  24  34
ATOM     34  C   UNL     1      -0.441   9.335  21.998  0.00  0.00    +0.000 C 
ATOM     35  C   UNL     1       0.236   8.139  21.322  0.00  0.00    +0.000 C 
ATOM     36  C   UNL     1       0.092   9.527  23.424  0.00  0.00    +0.000 C 
ENDBRANCH  24  34
ENDBRANCH  20  24
ENDBRANCH   1  22
TORSDOF 9
ENDMDL
MODEL 6
REMARK VINA RESULT:      -7.6      2.561      5.226
REMARK  Name = 
REMARK  14 active torsions:
REMARK  status: ('A' for Active; 'I' for Inactive)
REMARK    1  A    between atoms: C_1  and  N_2
REMARK    2  A    between atoms: N_2  and  C_3
REMARK    3  A    between atoms: C_3  and  C_4
REMARK    4  A    between atoms: C_3  and  C_5
REMARK    5  A    between atoms: N_7  and  C_8
REMARK    6  A    between atoms: C_8  and  C_9
REMARK    7  A    between atoms: C_8  and  C_31
REMARK    8  A    between atoms: N_11  and  C_12
REMARK    9  A    between atoms: C_12  and  C_13
REMARK   10  A    between atoms: C_12  and  C_14
REMARK   11  A    between atoms: C_16  and  C_17
REMARK   12  A    between atoms: C_23  and  C_24
REMARK   13  A    between atoms: C_31  and  C_32
REMARK   14  A    between atoms: C_31  and  C_33
REMARK                            x       y       z     vdW  Elec       q    Type
REMARK                         _______ _______ _______ _____ _____    ______ ____
ROOT
ATOM      1  C   UNL     1       0.987   9.263  21.330  0.00  0.00    +0.000 C 
ATOM      2  C   UNL     1      -0.267   9.077  22.171  0.00  0.00    +0.000 C 
ENDROOT
BRANCH   1   3
ATOM      3  C   UNL     1       1.454   7.951  20.744  0.00  0.00    +0.000 A 
ATOM      4  N   UNL     1       0.968   6.734  20.935  0.00  0.00    +0.000 NA
ATOM      5  C   UNL     1       1.778   5.928  20.146  0.00  0.00    +0.000 A 
ATOM      6  C   UNL     1       2.702   6.711  19.470  0.00  0.00    +0.000 A 
ATOM      7  O   UNL     1       2.512   8.009  19.880  0.00  0.00    +0.000 OA
BRANCH   5   8
ATOM      8  C   UNL     1       1.662   4.473  20.101  0.00  0.00    +0.000 A 
ATOM      9  C   UNL     1       1.308   3.828  18.913  0.00  0.00    +0.000 A 
ATOM     10  C   UNL     1       1.195   2.431  18.866  0.00  0.00    +0.000 A 
ATOM     11  C   UNL     1       1.435   1.669  20.015  0.00  0.00    +0.000 A 
ATOM     12  C   UNL     1       1.776   2.305  21.203  0.00  0.00    +0.000 A 
ATOM     13  C   UNL     1       1.875   3.695  21.250  0.00  0.00    +0.000 A 
ENDBRANCH   5   8
BRANCH   6  14
ATOM     14  C   UNL     1       3.763   6.504  18.487  0.00  0.00    +0.000 A 
ATOM     15  C   UNL     1       3.768   7.206  17.271  0.00  0.00    +0.000 A 
ATOM     16  C   UNL     1       4.766   6.984  16.317  0.00  0.00    +0.000 A 
ATOM     17  C   UNL     1       5.782   6.066  16.570  0.00  0.00    +0.000 A 
ATOM     18  C   UNL     1       5.797   5.369  17.778  0.00  0.00    +0.000 A 
ATOM     19  C   UNL     1       4.794   5.586  18.728  0.00  0.00    +0.000 A 
ENDBRANCH   6  14
ENDBRANCH   1   3
BRANCH   1  22
ATOM     20  C   UNL     1       0.868  11.553  20.339  0.00  0.00    +0.000 C 
ATOM     21  O   UNL     1       1.164  12.088  21.410  0.00  0.00    +0.000 OA
ATOM     22  N   UNL     1       0.746  10.195  20.233  0.00  0.00    +0.000 N 
ATOM     23  H   UNL     1       0.399   9.765  19.392  0.00  0.00    +0.000 HD
BRANCH  20  24
ATOM     24  C   UNL     1       0.787  12.394  19.027  0.00  0.00    +0.000 C 
BRANCH  24  27
ATOM     25  C   UNL     1      -1.639  11.762  18.738  0.00  0.00    +0.000 C 
ATOM     26  O   UNL     1      -1.927  11.903  19.928  0.00  0.00    +0.000 OA
ATOM     27  N   UNL     1      -0.382  11.963  18.233  0.00  0.00    +0.000 N 
ATOM     28  H   UNL     1      -0.293  11.948  17.219  0.00  0.00    +0.000 HD
BRANCH  25  29
ATOM     29  C   UNL     1      -2.677  11.292  17.696  0.00  0.00    +0.000 C 
ATOM     30  C   UNL     1      -2.988   9.810  17.904  0.00  0.00    +0.000 C 
BRANCH  29  32
ATOM     31  C   UNL     1      -2.935  10.834  15.317  0.00  0.00    +0.000 C 
ATOM     32  N   UNL     1      -2.182  11.579  16.328  0.00  0.00    +0.000 NA
ATOM     33  H   UNL     1      -2.332  12.579  16.148  0.00  0.00    +0.000 HD
ENDBRANCH  29  32
ENDBRANCH  25  29
ENDBRANCH  24  27
BRANCH  24  34
ATOM     34  C   UNL     1       1.039  13.924  19.041  0.00  0.00    +0.000 C 
ATOM     35  C   UNL     1       2.289  14.436  18.320  0.00  0.00    +0.000 C 
ATOM     36  C   UNL     1      -0.205  14.704  18.595  0.00  0.00    +0.000 C 
ENDBRANCH  24  34
ENDBRANCH  20  24
ENDBRANCH   1  22
TORSDOF 9
ENDMDL
MODEL 7
REMARK VINA RESULT:      -7.5      2.534      3.952
REMARK  Name = 
REMARK  14 active torsions:
REMARK  status: ('A' for Active; 'I' for Inactive)
REMARK    1  A    between atoms: C_1  and  N_2
REMARK    2  A    between atoms: N_2  and  C_3
REMARK    3  A    between atoms: C_3  and  C_4
REMARK    4  A    between atoms: C_3  and  C_5
REMARK    5  A    between atoms: N_7  and  C_8
REMARK    6  A    between atoms: C_8  and  C_9
REMARK    7  A    between atoms: C_8  and  C_31
REMARK    8  A    between atoms: N_11  and  C_12
REMARK    9  A    between atoms: C_12  and  C_13
REMARK   10  A    between atoms: C_12  and  C_14
REMARK   11  A    between atoms: C_16  and  C_17
REMARK   12  A    between atoms: C_23  and  C_24
REMARK   13  A    between atoms: C_31  and  C_32
REMARK   14  A    between atoms: C_31  and  C_33
REMARK                            x       y       z     vdW  Elec       q    Type
REMARK                         _______ _______ _______ _____ _____    ______ ____
ROOT
ATOM      1  C   UNL     1       1.138   9.045  20.909  0.00  0.00    +0.000 C 
ATOM      2  C   UNL     1      -0.081   8.579  21.689  0.00  0.00    +0.000 C 
ENDROOT
BRANCH   1   3
ATOM      3  C   UNL     1       1.755   7.910  20.125  0.00  0.00    +0.000 A 
ATOM      4  N   UNL     1       2.697   7.957  19.195  0.00  0.00    +0.000 NA
ATOM      5  C   UNL     1       2.872   6.628  18.835  0.00  0.00    +0.000 A 
ATOM      6  C   UNL     1       2.048   5.822  19.607  0.00  0.00    +0.000 A 
ATOM      7  O   UNL     1       1.308   6.652  20.415  0.00  0.00    +0.000 OA
BRANCH   5   8
ATOM      8  C   UNL     1       3.771   6.196  17.768  0.00  0.00    +0.000 A 
ATOM      9  C   UNL     1       4.267   7.119  16.844  0.00  0.00    +0.000 A 
ATOM     10  C   UNL     1       5.129   6.707  15.817  0.00  0.00    +0.000 A 
ATOM     11  C   UNL     1       5.500   5.362  15.709  0.00  0.00    +0.000 A 
ATOM     12  C   UNL     1       5.001   4.437  16.620  0.00  0.00    +0.000 A 
ATOM     13  C   UNL     1       4.133   4.847  17.631  0.00  0.00    +0.000 A 
ENDBRANCH   5   8
BRANCH   6  14
ATOM     14  C   UNL     1       1.793   4.391  19.762  0.00  0.00    +0.000 A 
ATOM     15  C   UNL     1       2.091   3.729  20.963  0.00  0.00    +0.000 A 
ATOM     16  C   UNL     1       1.877   2.354  21.099  0.00  0.00    +0.000 A 
ATOM     17  C   UNL     1       1.347   1.623  20.040  0.00  0.00    +0.000 A 
ATOM     18  C   UNL     1       1.034   2.268  18.844  0.00  0.00    +0.000 A 
ATOM     19  C   UNL     1       1.256   3.641  18.706  0.00  0.00    +0.000 A 
ENDBRANCH   6  14
ENDBRANCH   1   3
BRANCH   1  22
ATOM     20  C   UNL     1       0.749  11.436  20.297  0.00  0.00    +0.000 C 
ATOM     21  O   UNL     1       0.991  11.822  21.443  0.00  0.00    +0.000 OA
ATOM     22  N   UNL     1       0.783  10.107  19.973  0.00  0.00    +0.000 N 
ATOM     23  H   UNL     1       0.480   9.782  19.071  0.00  0.00    +0.000 HD
BRANCH  20  24
ATOM     24  C   UNL     1       0.562  12.462  19.137  0.00  0.00    +0.000 C 
BRANCH  24  27
ATOM     25  C   UNL     1      -1.862  11.902  18.713  0.00  0.00    +0.000 C 
ATOM     26  O   UNL     1      -2.218  12.090  19.877  0.00  0.00    +0.000 OA
ATOM     27  N   UNL     1      -0.569  12.044  18.283  0.00  0.00    +0.000 N 
ATOM     28  H   UNL     1      -0.418  11.993  17.278  0.00  0.00    +0.000 HD
BRANCH  25  29
ATOM     29  C   UNL     1      -2.848  11.432  17.622  0.00  0.00    +0.000 C 
ATOM     30  C   UNL     1      -3.262   9.984  17.883  0.00  0.00    +0.000 C 
BRANCH  29  32
ATOM     31  C   UNL     1      -2.867  10.742  15.286  0.00  0.00    +0.000 C 
ATOM     32  N   UNL     1      -2.240  11.613  16.282  0.00  0.00    +0.000 NA
ATOM     33  H   UNL     1      -2.409  12.583  15.993  0.00  0.00    +0.000 HD
ENDBRANCH  29  32
ENDBRANCH  25  29
ENDBRANCH  24  27
BRANCH  24  34
ATOM     34  C   UNL     1       0.656  13.988  19.396  0.00  0.00    +0.000 C 
ATOM     35  C   UNL     1       2.057  14.597  19.501  0.00  0.00    +0.000 C 
ATOM     36  C   UNL     1      -0.210  14.782  18.409  0.00  0.00    +0.000 C 
ENDBRANCH  24  34
ENDBRANCH  20  24
ENDBRANCH   1  22
TORSDOF 9
ENDMDL
MODEL 8
REMARK VINA RESULT:      -7.5      2.575      4.120
REMARK  Name = 
REMARK  14 active torsions:
REMARK  status: ('A' for Active; 'I' for Inactive)
REMARK    1  A    between atoms: C_1  and  N_2
REMARK    2  A    between atoms: N_2  and  C_3
REMARK    3  A    between atoms: C_3  and  C_4
REMARK    4  A    between atoms: C_3  and  C_5
REMARK    5  A    between atoms: N_7  and  C_8
REMARK    6  A    between atoms: C_8  and  C_9
REMARK    7  A    between atoms: C_8  and  C_31
REMARK    8  A    between atoms: N_11  and  C_12
REMARK    9  A    between atoms: C_12  and  C_13
REMARK   10  A    between atoms: C_12  and  C_14
REMARK   11  A    between atoms: C_16  and  C_17
REMARK   12  A    between atoms: C_23  and  C_24
REMARK   13  A    between atoms: C_31  and  C_32
REMARK   14  A    between atoms: C_31  and  C_33
REMARK                            x       y       z     vdW  Elec       q    Type
REMARK                         _______ _______ _______ _____ _____    ______ ____
ROOT
ATOM      1  C   UNL     1       1.021   9.387  20.882  0.00  0.00    +0.000 C 
ATOM      2  C   UNL     1      -0.286   9.009  21.562  0.00  0.00    +0.000 C 
ENDROOT
BRANCH   1   3
ATOM      3  C   UNL     1       1.650   8.195  20.200  0.00  0.00    +0.000 A 
ATOM      4  N   UNL     1       2.515   8.170  19.197  0.00  0.00    +0.000 NA
ATOM      5  C   UNL     1       2.747   6.817  18.995  0.00  0.00    +0.000 A 
ATOM      6  C   UNL     1       2.036   6.075  19.927  0.00  0.00    +0.000 A 
ATOM      7  O   UNL     1       1.306   6.963  20.681  0.00  0.00    +0.000 OA
BRANCH   5   8
ATOM      8  C   UNL     1       3.591   6.298  17.921  0.00  0.00    +0.000 A 
ATOM      9  C   UNL     1       4.283   7.173  17.080  0.00  0.00    +0.000 A 
ATOM     10  C   UNL     1       5.093   6.678  16.047  0.00  0.00    +0.000 A 
ATOM     11  C   UNL     1       5.213   5.298  15.849  0.00  0.00    +0.000 A 
ATOM     12  C   UNL     1       4.518   4.423  16.676  0.00  0.00    +0.000 A 
ATOM     13  C   UNL     1       3.703   4.918  17.693  0.00  0.00    +0.000 A 
ENDBRANCH   5   8
BRANCH   6  14
ATOM     14  C   UNL     1       1.884   4.666  20.280  0.00  0.00    +0.000 A 
ATOM     15  C   UNL     1       1.170   3.785  19.452  0.00  0.00    +0.000 A 
ATOM     16  C   UNL     1       0.998   2.444  19.807  0.00  0.00    +0.000 A 
ATOM     17  C   UNL     1       1.548   1.959  20.989  0.00  0.00    +0.000 A 
ATOM     18  C   UNL     1       2.270   2.818  21.818  0.00  0.00    +0.000 A 
ATOM     19  C   UNL     1       2.435   4.160  21.466  0.00  0.00    +0.000 A 
ENDBRANCH   6  14
ENDBRANCH   1   3
BRANCH   1  22
ATOM     20  C   UNL     1       0.835  11.768  20.148  0.00  0.00    +0.000 C 
ATOM     21  O   UNL     1       1.017  12.188  21.293  0.00  0.00    +0.000 OA
ATOM     22  N   UNL     1       0.806  10.427  19.880  0.00  0.00    +0.000 N 
ATOM     23  H   UNL     1       0.550  10.081  18.971  0.00  0.00    +0.000 HD
BRANCH  20  24
ATOM     24  C   UNL     1       0.802  12.751  18.937  0.00  0.00    +0.000 C 
BRANCH  24  27
ATOM     25  C   UNL     1      -1.555  12.019  18.410  0.00  0.00    +0.000 C 
ATOM     26  O   UNL     1      -1.915  11.967  19.587  0.00  0.00    +0.000 OA
ATOM     27  N   UNL     1      -0.291  12.369  18.018  0.00  0.00    +0.000 N 
ATOM     28  H   UNL     1      -0.147  12.507  17.019  0.00  0.00    +0.000 HD
BRANCH  25  29
ATOM     29  C   UNL     1      -2.501  11.642  17.249  0.00  0.00    +0.000 C 
ATOM     30  C   UNL     1      -3.920  11.437  17.779  0.00  0.00    +0.000 C 
BRANCH  29  32
ATOM     31  C   UNL     1      -2.830  10.078  15.411  0.00  0.00    +0.000 C 
ATOM     32  N   UNL     1      -1.981  10.445  16.546  0.00  0.00    +0.000 NA
ATOM     33  H   UNL     1      -1.055  10.682  16.173  0.00  0.00    +0.000 HD
ENDBRANCH  29  32
ENDBRANCH  25  29
ENDBRANCH  24  27
BRANCH  24  34
ATOM     34  C   UNL     1       0.979  14.278  19.141  0.00  0.00    +0.000 C 
ATOM     35  C   UNL     1       2.210  14.932  18.509  0.00  0.00    +0.000 C 
ATOM     36  C   UNL     1      -0.296  15.048  18.772  0.00  0.00    +0.000 C 
ENDBRANCH  24  34
ENDBRANCH  20  24
ENDBRANCH   1  22
TORSDOF 9
ENDMDL
MODEL 9
REMARK VINA RESULT:      -7.4      2.520      3.960
REMARK  Name = 
REMARK  14 active torsions:
REMARK  status: ('A' for Active; 'I' for Inactive)
REMARK    1  A    between atoms: C_1  and  N_2
REMARK    2  A    between atoms: N_2  and  C_3
REMARK    3  A    between atoms: C_3  and  C_4
REMARK    4  A    between atoms: C_3  and  C_5
REMARK    5  A    between atoms: N_7  and  C_8
REMARK    6  A    between atoms: C_8  and  C_9
REMARK    7  A    between atoms: C_8  and  C_31
REMARK    8  A    between atoms: N_11  and  C_12
REMARK    9  A    between atoms: C_12  and  C_13
REMARK   10  A    between atoms: C_12  and  C_14
REMARK   11  A    between atoms: C_16  and  C_17
REMARK   12  A    between atoms: C_23  and  C_24
REMARK   13  A    between atoms: C_31  and  C_32
REMARK   14  A    between atoms: C_31  and  C_33
REMARK                            x       y       z     vdW  Elec       q    Type
REMARK                         _______ _______ _______ _____ _____    ______ ____
ROOT
ATOM      1  C   UNL     1       0.806   9.404  21.194  0.00  0.00    +0.000 C 
ATOM      2  C   UNL     1      -0.291   8.924  22.132  0.00  0.00    +0.000 C 
ENDROOT
BRANCH   1   3
ATOM      3  C   UNL     1       1.459   8.246  20.477  0.00  0.00    +0.000 A 
ATOM      4  N   UNL     1       2.318   8.270  19.468  0.00  0.00    +0.000 NA
ATOM      5  C   UNL     1       2.583   6.929  19.229  0.00  0.00    +0.000 A 
ATOM      6  C   UNL     1       1.897   6.145  20.145  0.00  0.00    +0.000 A 
ATOM      7  O   UNL     1       1.151   6.993  20.928  0.00  0.00    +0.000 OA
BRANCH   5   8
ATOM      8  C   UNL     1       3.431   6.460  18.136  0.00  0.00    +0.000 A 
ATOM      9  C   UNL     1       3.631   5.092  17.932  0.00  0.00    +0.000 A 
ATOM     10  C   UNL     1       4.446   4.640  16.884  0.00  0.00    +0.000 A 
ATOM     11  C   UNL     1       5.069   5.558  16.032  0.00  0.00    +0.000 A 
ATOM     12  C   UNL     1       4.883   6.920  16.237  0.00  0.00    +0.000 A 
ATOM     13  C   UNL     1       4.083   7.368  17.287  0.00  0.00    +0.000 A 
ENDBRANCH   5   8
BRANCH   6  14
ATOM     14  C   UNL     1       1.783   4.723  20.463  0.00  0.00    +0.000 A 
ATOM     15  C   UNL     1       2.443   4.175  21.574  0.00  0.00    +0.000 A 
ATOM     16  C   UNL     1       2.361   2.809  21.858  0.00  0.00    +0.000 A 
ATOM     17  C   UNL     1       1.604   1.971  21.043  0.00  0.00    +0.000 A 
ATOM     18  C   UNL     1       0.933   2.502  19.942  0.00  0.00    +0.000 A 
ATOM     19  C   UNL     1       1.023   3.867  19.654  0.00  0.00    +0.000 A 
ENDBRANCH   6  14
ENDBRANCH   1   3
BRANCH   1  22
ATOM     20  C   UNL     1       0.491  11.671  20.193  0.00  0.00    +0.000 C 
ATOM     21  O   UNL     1       1.145  12.213  21.087  0.00  0.00    +0.000 OA
ATOM     22  N   UNL     1       0.272  10.321  20.192  0.00  0.00    +0.000 N 
ATOM     23  H   UNL     1      -0.351   9.893  19.528  0.00  0.00    +0.000 HD
BRANCH  20  24
ATOM     24  C   UNL     1       0.035  12.482  18.941  0.00  0.00    +0.000 C 
BRANCH  24  27
ATOM     25  C   UNL     1      -1.570  10.879  17.835  0.00  0.00    +0.000 C 
ATOM     26  O   UNL     1      -0.696  10.091  17.468  0.00  0.00    +0.000 OA
ATOM     27  N   UNL     1      -1.310  12.033  18.523  0.00  0.00    +0.000 N 
ATOM     28  H   UNL     1      -2.118  12.535  18.888  0.00  0.00    +0.000 HD
BRANCH  25  29
ATOM     29  C   UNL     1      -3.062  10.657  17.503  0.00  0.00    +0.000 C 
ATOM     30  C   UNL     1      -3.193   9.845  16.214  0.00  0.00    +0.000 C 
BRANCH  29  32
ATOM     31  C   UNL     1      -5.127  11.874  17.939  0.00  0.00    +0.000 C 
ATOM     32  N   UNL     1      -3.759  11.962  17.422  0.00  0.00    +0.000 NA
ATOM     33  H   UNL     1      -3.248  12.624  18.017  0.00  0.00    +0.000 HD
ENDBRANCH  29  32
ENDBRANCH  25  29
ENDBRANCH  24  27
BRANCH  24  34
ATOM     34  C   UNL     1       0.270  14.011  18.849  0.00  0.00    +0.000 C 
ATOM     35  C   UNL     1      -0.357  14.885  19.938  0.00  0.00    +0.000 C 
ATOM     36  C   UNL     1       1.759  14.343  18.676  0.00  0.00    +0.000 C 
ENDBRANCH  24  34
ENDBRANCH  20  24
ENDBRANCH   1  22
TORSDOF 9
ENDMDL
