MODEL 1
REMARK VINA RESULT:      -7.9      0.000      0.000
REMARK  Name = 
REMARK  6 active torsions:
REMARK  status: ('A' for Active; 'I' for Inactive)
REMARK    1  A    between atoms: C_1  and  O_2
REMARK    2  A    between atoms: O_2  and  C_3
REMARK    3  A    between atoms: C_8  and  O_9
REMARK    4  A    between atoms: O_9  and  C_10
REMARK    5  A    between atoms: N_14  and  C_15
REMARK    6  A    between atoms: C_18  and  C_19
REMARK                            x       y       z     vdW  Elec       q    Type
REMARK                         _______ _______ _______ _____ _____    ______ ____
ROOT
ATOM      1  C   UNL     1       3.921   4.364  18.170  0.00  0.00    +0.000 A 
ATOM      2  C   UNL     1       3.189   4.604  19.337  0.00  0.00    +0.000 A 
ATOM      3  C   UNL     1       2.602   5.855  19.599  0.00  0.00    +0.000 A 
ATOM      4  C   UNL     1       2.804   6.931  18.731  0.00  0.00    +0.000 A 
ATOM      5  C   UNL     1       3.616   6.694  17.605  0.00  0.00    +0.000 A 
ATOM      6  C   UNL     1       4.160   5.430  17.301  0.00  0.00    +0.000 A 
ATOM      7  C   UNL     1       2.145   8.238  18.997  0.00  0.00    +0.000 A 
ATOM      8  C   UNL     1       2.342   9.303  18.206  0.00  0.00    +0.000 A 
ATOM      9  C   UNL     1       1.680  10.575  18.577  0.00  0.00    +0.000 A 
ATOM     10  N   UNL     1       1.922  11.700  17.811  0.00  0.00    +0.000 N 
ATOM     11  N   UNL     1       0.889  10.655  19.600  0.00  0.00    +0.000 NA
ATOM     12  C   UNL     1       0.666   9.570  20.398  0.00  0.00    +0.000 A 
ATOM     13  O   UNL     1      -0.067   9.671  21.379  0.00  0.00    +0.000 OA
ATOM     14  N   UNL     1       1.307   8.369  20.092  0.00  0.00    +0.000 N 
ATOM     15  C   UNL     1       1.120   7.320  21.075  0.00  0.00    +0.000 C 
ATOM     16  C   UNL     1       1.686   5.946  20.779  0.00  0.00    +0.000 C 
ATOM     17  H   UNL     1       2.186  11.606  16.838  0.00  0.00    +0.000 HD
ENDROOT
BRANCH  10  18
ATOM     18  C   UNL     1       1.947  13.025  18.305  0.00  0.00    +0.000 A 
ATOM     19  C   UNL     1       3.151  13.600  18.739  0.00  0.00    +0.000 A 
ATOM     20  C   UNL     1       3.198  14.889  19.261  0.00  0.00    +0.000 A 
ATOM     21  C   UNL     1       2.033  15.652  19.383  0.00  0.00    +0.000 A 
ATOM     22  C   UNL     1       2.141  17.041  19.948  0.00  0.00    +0.000 C 
ATOM     23  C   UNL     1       0.806  15.082  18.987  0.00  0.00    +0.000 A 
ATOM     24 CL   UNL     1      -0.653  16.008  19.181  0.00  0.00    +0.000 Cl
ATOM     25  C   UNL     1       0.764  13.778  18.448  0.00  0.00    +0.000 A 
ATOM     26 CL   UNL     1      -0.741  13.056  17.952  0.00  0.00    +0.000 Cl
ENDBRANCH  10  18
BRANCH   1  28
ATOM     27  C   UNL     1       3.444   2.059  17.994  0.00  0.00    +0.000 C 
ATOM     28  O   UNL     1       4.402   3.114  17.883  0.00  0.00    +0.000 OA
ENDBRANCH   1  28
BRANCH   6  29
ATOM     29  O   UNL     1       4.843   5.445  16.114  0.00  0.00    +0.000 OA
ATOM     30  C   UNL     1       6.260   5.462  16.122  0.00  0.00    +0.000 C 
ENDBRANCH   6  29
TORSDOF 3
ENDMDL
MODEL 2
REMARK VINA RESULT:      -7.4      1.379      1.662
REMARK  Name = 
REMARK  6 active torsions:
REMARK  status: ('A' for Active; 'I' for Inactive)
REMARK    1  A    between atoms: C_1  and  O_2
REMARK    2  A    between atoms: O_2  and  C_3
REMARK    3  A    between atoms: C_8  and  O_9
REMARK    4  A    between atoms: O_9  and  C_10
REMARK    5  A    between atoms: N_14  and  C_15
REMARK    6  A    between atoms: C_18  and  C_19
REMARK                            x       y       z     vdW  Elec       q    Type
REMARK                         _______ _______ _______ _____ _____    ______ ____
ROOT
ATOM      1  C   UNL     1       3.934   5.017  18.317  0.00  0.00    +0.000 A 
ATOM      2  C   UNL     1       3.191   5.188  19.489  0.00  0.00    +0.000 A 
ATOM      3  C   UNL     1       2.482   6.374  19.752  0.00  0.00    +0.000 A 
ATOM      4  C   UNL     1       2.569   7.461  18.879  0.00  0.00    +0.000 A 
ATOM      5  C   UNL     1       3.391   7.302  17.747  0.00  0.00    +0.000 A 
ATOM      6  C   UNL     1       4.058   6.098  17.442  0.00  0.00    +0.000 A 
ATOM      7  C   UNL     1       1.784   8.696  19.146  0.00  0.00    +0.000 A 
ATOM      8  C   UNL     1       1.867   9.773  18.349  0.00  0.00    +0.000 A 
ATOM      9  C   UNL     1       1.083  10.974  18.722  0.00  0.00    +0.000 A 
ATOM     10  N   UNL     1       1.204  12.114  17.950  0.00  0.00    +0.000 N 
ATOM     11  N   UNL     1       0.296  10.977  19.751  0.00  0.00    +0.000 NA
ATOM     12  C   UNL     1       0.190   9.880  20.554  0.00  0.00    +0.000 A 
ATOM     13  O   UNL     1      -0.542   9.911  21.540  0.00  0.00    +0.000 OA
ATOM     14  N   UNL     1       0.946   8.748  20.247  0.00  0.00    +0.000 N 
ATOM     15  C   UNL     1       0.872   7.689  21.235  0.00  0.00    +0.000 C 
ATOM     16  C   UNL     1       1.571   6.378  20.938  0.00  0.00    +0.000 C 
ATOM     17  H   UNL     1       1.469  12.043  16.975  0.00  0.00    +0.000 HD
ENDROOT
BRANCH  10  18
ATOM     18  C   UNL     1       1.100  13.437  18.439  0.00  0.00    +0.000 A 
ATOM     19  C   UNL     1      -0.156  13.998  18.712  0.00  0.00    +0.000 A 
ATOM     20  C   UNL     1      -0.289  15.309  19.162  0.00  0.00    +0.000 A 
ATOM     21  C   UNL     1       0.837  16.117  19.342  0.00  0.00    +0.000 A 
ATOM     22  C   UNL     1       0.638  17.524  19.835  0.00  0.00    +0.000 C 
ATOM     23  C   UNL     1       2.108  15.587  19.039  0.00  0.00    +0.000 A 
ATOM     24 CL   UNL     1       3.507  16.604  19.216  0.00  0.00    +0.000 Cl
ATOM     25  C   UNL     1       2.239  14.254  18.594  0.00  0.00    +0.000 A 
ATOM     26 CL   UNL     1       3.799  13.580  18.215  0.00  0.00    +0.000 Cl
ENDBRANCH  10  18
BRANCH   1  28
ATOM     27  C   UNL     1       3.638   2.727  17.829  0.00  0.00    +0.000 C 
ATOM     28  O   UNL     1       4.536   3.821  18.030  0.00  0.00    +0.000 OA
ENDBRANCH   1  28
BRANCH   6  29
ATOM     29  O   UNL     1       4.726   6.177  16.250  0.00  0.00    +0.000 OA
ATOM     30  C   UNL     1       6.142   6.239  16.244  0.00  0.00    +0.000 C 
ENDBRANCH   6  29
TORSDOF 3
ENDMDL
MODEL 3
REMARK VINA RESULT:      -6.9      1.746      2.233
REMARK  Name = 
REMARK  6 active torsions:
REMARK  status: ('A' for Active; 'I' for Inactive)
REMARK    1  A    between atoms: C_1  and  O_2
REMARK    2  A    between atoms: O_2  and  C_3
REMARK    3  A    between atoms: C_8  and  O_9
REMARK    4  A    between atoms: O_9  and  C_10
REMARK    5  A    between atoms: N_14  and  C_15
REMARK    6  A    between atoms: C_18  and  C_19
REMARK                            x       y       z     vdW  Elec       q    Type
REMARK                         _______ _______ _______ _____ _____    ______ ____
ROOT
ATOM      1  C   UNL     1       2.923   5.547  19.146  0.00  0.00    +0.000 A 
ATOM      2  C   UNL     1       2.166   5.898  20.269  0.00  0.00    +0.000 A 
ATOM      3  C   UNL     1       1.585   7.172  20.403  0.00  0.00    +0.000 A 
ATOM      4  C   UNL     1       1.820   8.163  19.447  0.00  0.00    +0.000 A 
ATOM      5  C   UNL     1       2.655   7.818  18.367  0.00  0.00    +0.000 A 
ATOM      6  C   UNL     1       3.194   6.528  18.191  0.00  0.00    +0.000 A 
ATOM      7  C   UNL     1       1.168   9.494  19.578  0.00  0.00    +0.000 A 
ATOM      8  C   UNL     1       1.395  10.482  18.699  0.00  0.00    +0.000 A 
ATOM      9  C   UNL     1       0.737  11.787  18.938  0.00  0.00    +0.000 A 
ATOM     10  N   UNL     1       1.008  12.837  18.079  0.00  0.00    +0.000 N 
ATOM     11  N   UNL     1      -0.077  11.965  19.930  0.00  0.00    +0.000 NA
ATOM     12  C   UNL     1      -0.330  10.960  20.817  0.00  0.00    +0.000 A 
ATOM     13  O   UNL     1      -1.085  11.155  21.766  0.00  0.00    +0.000 OA
ATOM     14  N   UNL     1       0.306   9.731  20.636  0.00  0.00    +0.000 N 
ATOM     15  C   UNL     1       0.084   8.776  21.704  0.00  0.00    +0.000 C 
ATOM     16  C   UNL     1       0.643   7.376  21.547  0.00  0.00    +0.000 C 
ATOM     17  H   UNL     1       1.294  12.653  17.126  0.00  0.00    +0.000 HD
ENDROOT
BRANCH  10  18
ATOM     18  C   UNL     1       1.036  14.200  18.452  0.00  0.00    +0.000 A 
ATOM     19  C   UNL     1      -0.155  14.934  18.556  0.00  0.00    +0.000 A 
ATOM     20  C   UNL     1      -0.155  16.286  18.888  0.00  0.00    +0.000 A 
ATOM     21  C   UNL     1       1.047  16.962  19.115  0.00  0.00    +0.000 A 
ATOM     22  C   UNL     1       0.991  18.421  19.476  0.00  0.00    +0.000 C 
ATOM     23  C   UNL     1       2.259  16.255  18.981  0.00  0.00    +0.000 A 
ATOM     24 CL   UNL     1       3.758  17.104  19.216  0.00  0.00    +0.000 Cl
ATOM     25  C   UNL     1       2.253  14.882  18.655  0.00  0.00    +0.000 A 
ATOM     26 CL   UNL     1       3.739  13.990  18.486  0.00  0.00    +0.000 Cl
ENDBRANCH  10  18
BRANCH   1  28
ATOM     27  C   UNL     1       2.442   3.331  18.492  0.00  0.00    +0.000 C 
ATOM     28  O   UNL     1       3.398   4.272  18.986  0.00  0.00    +0.000 OA
ENDBRANCH   1  28
BRANCH   6  29
ATOM     29  O   UNL     1       3.904   6.430  17.025  0.00  0.00    +0.000 OA
ATOM     30  C   UNL     1       5.297   6.690  17.030  0.00  0.00    +0.000 C 
ENDBRANCH   6  29
TORSDOF 3
ENDMDL
MODEL 4
REMARK VINA RESULT:      -6.9      3.898      8.815
REMARK  Name = 
REMARK  6 active torsions:
REMARK  status: ('A' for Active; 'I' for Inactive)
REMARK    1  A    between atoms: C_1  and  O_2
REMARK    2  A    between atoms: O_2  and  C_3
REMARK    3  A    between atoms: C_8  and  O_9
REMARK    4  A    between atoms: O_9  and  C_10
REMARK    5  A    between atoms: N_14  and  C_15
REMARK    6  A    between atoms: C_18  and  C_19
REMARK                            x       y       z     vdW  Elec       q    Type
REMARK                         _______ _______ _______ _____ _____    ______ ____
ROOT
ATOM      1  C   UNL     1       0.845  14.826  19.130  0.00  0.00    +0.000 A 
ATOM      2  C   UNL     1      -0.147  14.299  19.964  0.00  0.00    +0.000 A 
ATOM      3  C   UNL     1      -0.138  12.952  20.368  0.00  0.00    +0.000 A 
ATOM      4  C   UNL     1       0.827  12.070  19.876  0.00  0.00    +0.000 A 
ATOM      5  C   UNL     1       1.767  12.597  18.970  0.00  0.00    +0.000 A 
ATOM      6  C   UNL     1       1.803  13.958  18.604  0.00  0.00    +0.000 A 
ATOM      7  C   UNL     1       0.851  10.657  20.342  0.00  0.00    +0.000 A 
ATOM      8  C   UNL     1       1.741   9.771  19.868  0.00  0.00    +0.000 A 
ATOM      9  C   UNL     1       1.658   8.375  20.356  0.00  0.00    +0.000 A 
ATOM     10  N   UNL     1       2.523   7.433  19.832  0.00  0.00    +0.000 N 
ATOM     11  N   UNL     1       0.793   8.021  21.254  0.00  0.00    +0.000 NA
ATOM     12  C   UNL     1      -0.101   8.921  21.758  0.00  0.00    +0.000 A 
ATOM     13  O   UNL     1      -0.929   8.561  22.590  0.00  0.00    +0.000 OA
ATOM     14  N   UNL     1      -0.068  10.234  21.287  0.00  0.00    +0.000 N 
ATOM     15  C   UNL     1      -1.144  11.074  21.775  0.00  0.00    +0.000 C 
ATOM     16  C   UNL     1      -1.133  12.544  21.408  0.00  0.00    +0.000 C 
ATOM     17  H   UNL     1       3.419   7.719  19.458  0.00  0.00    +0.000 HD
ENDROOT
BRANCH  10  18
ATOM     18  C   UNL     1       2.219   6.064  19.657  0.00  0.00    +0.000 A 
ATOM     19  C   UNL     1       1.459   5.376  20.614  0.00  0.00    +0.000 A 
ATOM     20  C   UNL     1       1.173   4.019  20.483  0.00  0.00    +0.000 A 
ATOM     21  C   UNL     1       1.654   3.293  19.390  0.00  0.00    +0.000 A 
ATOM     22  C   UNL     1       1.313   1.832  19.294  0.00  0.00    +0.000 C 
ATOM     23  C   UNL     1       2.451   3.955  18.433  0.00  0.00    +0.000 A 
ATOM     24 CL   UNL     1       3.091   3.045  17.097  0.00  0.00    +0.000 Cl
ATOM     25  C   UNL     1       2.729   5.332  18.564  0.00  0.00    +0.000 A 
ATOM     26 CL   UNL     1       3.710   6.169  17.394  0.00  0.00    +0.000 Cl
ENDBRANCH  10  18
BRANCH   1  28
ATOM     27  C   UNL     1      -0.392  16.736  18.507  0.00  0.00    +0.000 C 
ATOM     28  O   UNL     1       0.877  16.161  18.826  0.00  0.00    +0.000 OA
ENDBRANCH   1  28
BRANCH   6  29
ATOM     29  O   UNL     1       2.857  14.230  17.774  0.00  0.00    +0.000 OA
ATOM     30  C   UNL     1       4.106  14.606  18.328  0.00  0.00    +0.000 C 
ENDBRANCH   6  29
TORSDOF 3
ENDMDL
MODEL 5
REMARK VINA RESULT:      -6.9      1.598      2.121
REMARK  Name = 
REMARK  6 active torsions:
REMARK  status: ('A' for Active; 'I' for Inactive)
REMARK    1  A    between atoms: C_1  and  O_2
REMARK    2  A    between atoms: O_2  and  C_3
REMARK    3  A    between atoms: C_8  and  O_9
REMARK    4  A    between atoms: O_9  and  C_10
REMARK    5  A    between atoms: N_14  and  C_15
REMARK    6  A    between atoms: C_18  and  C_19
REMARK                            x       y       z     vdW  Elec       q    Type
REMARK                         _______ _______ _______ _____ _____    ______ ____
ROOT
ATOM      1  C   UNL     1       5.175   5.103  17.619  0.00  0.00    +0.000 A 
ATOM      2  C   UNL     1       4.505   4.981  18.841  0.00  0.00    +0.000 A 
ATOM      3  C   UNL     1       3.540   5.918  19.254  0.00  0.00    +0.000 A 
ATOM      4  C   UNL     1       3.280   7.055  18.486  0.00  0.00    +0.000 A 
ATOM      5  C   UNL     1       4.027   7.206  17.301  0.00  0.00    +0.000 A 
ATOM      6  C   UNL     1       4.953   6.245  16.848  0.00  0.00    +0.000 A 
ATOM      7  C   UNL     1       2.230   8.018  18.912  0.00  0.00    +0.000 A 
ATOM      8  C   UNL     1       1.974   9.139  18.219  0.00  0.00    +0.000 A 
ATOM      9  C   UNL     1       0.941  10.060  18.747  0.00  0.00    +0.000 A 
ATOM     10  N   UNL     1       0.709  11.251  18.082  0.00  0.00    +0.000 N 
ATOM     11  N   UNL     1       0.261   9.778  19.812  0.00  0.00    +0.000 NA
ATOM     12  C   UNL     1       0.498   8.630  20.510  0.00  0.00    +0.000 A 
ATOM     13  O   UNL     1      -0.140   8.391  21.532  0.00  0.00    +0.000 OA
ATOM     14  N   UNL     1       1.492   7.762  20.056  0.00  0.00    +0.000 N 
ATOM     15  C   UNL     1       1.766   6.646  20.940  0.00  0.00    +0.000 C 
ATOM     16  C   UNL     1       2.751   5.590  20.482  0.00  0.00    +0.000 C 
ATOM     17  H   UNL     1       0.908  11.328  17.093  0.00  0.00    +0.000 HD
ENDROOT
BRANCH  10  18
ATOM     18  C   UNL     1       0.309  12.457  18.701  0.00  0.00    +0.000 A 
ATOM     19  C   UNL     1      -0.999  12.610  19.185  0.00  0.00    +0.000 A 
ATOM     20  C   UNL     1      -1.428  13.799  19.768  0.00  0.00    +0.000 A 
ATOM     21  C   UNL     1      -0.564  14.892  19.875  0.00  0.00    +0.000 A 
ATOM     22  C   UNL     1      -1.077  16.151  20.518  0.00  0.00    +0.000 C 
ATOM     23  C   UNL     1       0.745  14.775  19.364  0.00  0.00    +0.000 A 
ATOM     24 CL   UNL     1       1.808  16.147  19.452  0.00  0.00    +0.000 Cl
ATOM     25  C   UNL     1       1.179  13.564  18.784  0.00  0.00    +0.000 A 
ATOM     26 CL   UNL     1       2.791  13.398  18.146  0.00  0.00    +0.000 Cl
ENDBRANCH  10  18
BRANCH   1  28
ATOM     27  C   UNL     1       7.420   4.394  17.449  0.00  0.00    +0.000 C 
ATOM     28  O   UNL     1       6.039   4.132  17.188  0.00  0.00    +0.000 OA
ENDBRANCH   1  28
BRANCH   6  29
ATOM     29  O   UNL     1       5.487   6.590  15.635  0.00  0.00    +0.000 OA
ATOM     30  C   UNL     1       5.549   5.626  14.598  0.00  0.00    +0.000 C 
ENDBRANCH   6  29
TORSDOF 3
ENDMDL
MODEL 6
REMARK VINA RESULT:      -6.7      4.496      8.563
REMARK  Name = 
REMARK  6 active torsions:
REMARK  status: ('A' for Active; 'I' for Inactive)
REMARK    1  A    between atoms: C_1  and  O_2
REMARK    2  A    between atoms: O_2  and  C_3
REMARK    3  A    between atoms: C_8  and  O_9
REMARK    4  A    between atoms: O_9  and  C_10
REMARK    5  A    between atoms: N_14  and  C_15
REMARK    6  A    between atoms: C_18  and  C_19
REMARK                            x       y       z     vdW  Elec       q    Type
REMARK                         _______ _______ _______ _____ _____    ______ ____
ROOT
ATOM      1  C   UNL     1      -4.485  11.951  17.329  0.00  0.00    +0.000 A 
ATOM      2  C   UNL     1      -4.022  12.107  18.640  0.00  0.00    +0.000 A 
ATOM      3  C   UNL     1      -2.802  11.551  19.066  0.00  0.00    +0.000 A 
ATOM      4  C   UNL     1      -2.049  10.748  18.206  0.00  0.00    +0.000 A 
ATOM      5  C   UNL     1      -2.573  10.531  16.918  0.00  0.00    +0.000 A 
ATOM      6  C   UNL     1      -3.764  11.131  16.460  0.00  0.00    +0.000 A 
ATOM      7  C   UNL     1      -0.741  10.198  18.655  0.00  0.00    +0.000 A 
ATOM      8  C   UNL     1      -0.005   9.396  17.870  0.00  0.00    +0.000 A 
ATOM      9  C   UNL     1       1.262   8.859  18.421  0.00  0.00    +0.000 A 
ATOM     10  N   UNL     1       2.002   7.980  17.652  0.00  0.00    +0.000 N 
ATOM     11  N   UNL     1       1.683   9.192  19.599  0.00  0.00    +0.000 NA
ATOM     12  C   UNL     1       0.952  10.024  20.395  0.00  0.00    +0.000 A 
ATOM     13  O   UNL     1       1.355  10.308  21.520  0.00  0.00    +0.000 OA
ATOM     14  N   UNL     1      -0.264  10.514  19.915  0.00  0.00    +0.000 N 
ATOM     15  C   UNL     1      -1.031  11.272  20.884  0.00  0.00    +0.000 C 
ATOM     16  C   UNL     1      -2.313  11.937  20.426  0.00  0.00    +0.000 C 
ATOM     17  H   UNL     1       1.933   8.004  16.643  0.00  0.00    +0.000 HD
ENDROOT
BRANCH  10  18
ATOM     18  C   UNL     1       2.796   6.928  18.166  0.00  0.00    +0.000 A 
ATOM     19  C   UNL     1       2.434   6.279  19.355  0.00  0.00    +0.000 A 
ATOM     20  C   UNL     1       3.215   5.263  19.900  0.00  0.00    +0.000 A 
ATOM     21  C   UNL     1       4.403   4.868  19.280  0.00  0.00    +0.000 A 
ATOM     22  C   UNL     1       5.207   3.763  19.908  0.00  0.00    +0.000 C 
ATOM     23  C   UNL     1       4.806   5.531  18.103  0.00  0.00    +0.000 A 
ATOM     24 CL   UNL     1       6.308   5.076  17.353  0.00  0.00    +0.000 Cl
ATOM     25  C   UNL     1       4.006   6.552  17.547  0.00  0.00    +0.000 A 
ATOM     26 CL   UNL     1       4.485   7.384  16.094  0.00  0.00    +0.000 Cl
ENDBRANCH  10  18
BRANCH   1  28
ATOM     27  C   UNL     1      -6.797  12.282  17.664  0.00  0.00    +0.000 C 
ATOM     28  O   UNL     1      -5.624  12.581  16.904  0.00  0.00    +0.000 OA
ENDBRANCH   1  28
BRANCH   6  29
ATOM     29  O   UNL     1      -4.014  10.823  15.150  0.00  0.00    +0.000 OA
ATOM     30  C   UNL     1      -3.048  10.106  14.402  0.00  0.00    +0.000 C 
ENDBRANCH   6  29
TORSDOF 3
ENDMDL
MODEL 7
REMARK VINA RESULT:      -6.7      3.278      4.588
REMARK  Name = 
REMARK  6 active torsions:
REMARK  status: ('A' for Active; 'I' for Inactive)
REMARK    1  A    between atoms: C_1  and  O_2
REMARK    2  A    between atoms: O_2  and  C_3
REMARK    3  A    between atoms: C_8  and  O_9
REMARK    4  A    between atoms: O_9  and  C_10
REMARK    5  A    between atoms: N_14  and  C_15
REMARK    6  A    between atoms: C_18  and  C_19
REMARK                            x       y       z     vdW  Elec       q    Type
REMARK                         _______ _______ _______ _____ _____    ______ ____
ROOT
ATOM      1  C   UNL     1       2.789   5.171  19.201  0.00  0.00    +0.000 A 
ATOM      2  C   UNL     1       2.711   6.175  18.231  0.00  0.00    +0.000 A 
ATOM      3  C   UNL     1       2.227   7.461  18.532  0.00  0.00    +0.000 A 
ATOM      4  C   UNL     1       1.725   7.752  19.803  0.00  0.00    +0.000 A 
ATOM      5  C   UNL     1       1.732   6.703  20.742  0.00  0.00    +0.000 A 
ATOM      6  C   UNL     1       2.269   5.428  20.470  0.00  0.00    +0.000 A 
ATOM      7  C   UNL     1       1.253   9.126  20.121  0.00  0.00    +0.000 A 
ATOM      8  C   UNL     1       0.734   9.435  21.320  0.00  0.00    +0.000 A 
ATOM      9  C   UNL     1       0.248  10.819  21.529  0.00  0.00    +0.000 A 
ATOM     10  N   UNL     1      -0.349  11.140  22.734  0.00  0.00    +0.000 N 
ATOM     11  N   UNL     1       0.365  11.724  20.611  0.00  0.00    +0.000 NA
ATOM     12  C   UNL     1       0.911  11.425  19.397  0.00  0.00    +0.000 A 
ATOM     13  O   UNL     1       0.990  12.291  18.529  0.00  0.00    +0.000 OA
ATOM     14  N   UNL     1       1.343  10.119  19.161  0.00  0.00    +0.000 N 
ATOM     15  C   UNL     1       1.776   9.866  17.800  0.00  0.00    +0.000 C 
ATOM     16  C   UNL     1       2.365   8.509  17.473  0.00  0.00    +0.000 C 
ATOM     17  H   UNL     1      -0.115  10.621  23.571  0.00  0.00    +0.000 HD
ENDROOT
BRANCH  10  18
ATOM     18  C   UNL     1      -1.384  12.089  22.897  0.00  0.00    +0.000 A 
ATOM     19  C   UNL     1      -2.688  11.675  23.204  0.00  0.00    +0.000 A 
ATOM     20  C   UNL     1      -3.732  12.586  23.336  0.00  0.00    +0.000 A 
ATOM     21  C   UNL     1      -3.511  13.954  23.150  0.00  0.00    +0.000 A 
ATOM     22  C   UNL     1      -4.673  14.896  23.309  0.00  0.00    +0.000 C 
ATOM     23  C   UNL     1      -2.216  14.391  22.805  0.00  0.00    +0.000 A 
ATOM     24 CL   UNL     1      -1.947  16.086  22.525  0.00  0.00    +0.000 Cl
ATOM     25  C   UNL     1      -1.158  13.465  22.683  0.00  0.00    +0.000 A 
ATOM     26 CL   UNL     1       0.449  13.983  22.258  0.00  0.00    +0.000 Cl
ENDBRANCH  10  18
BRANCH   1  28
ATOM     27  C   UNL     1       4.767   3.888  19.118  0.00  0.00    +0.000 C 
ATOM     28  O   UNL     1       3.354   3.956  18.916  0.00  0.00    +0.000 OA
ENDBRANCH   1  28
BRANCH   6  29
ATOM     29  O   UNL     1       2.225   4.616  21.571  0.00  0.00    +0.000 OA
ATOM     30  C   UNL     1       1.643   3.328  21.468  0.00  0.00    +0.000 C 
ENDBRANCH   6  29
TORSDOF 3
ENDMDL
MODEL 8
REMARK VINA RESULT:      -6.7      5.104      7.450
REMARK  Name = 
REMARK  6 active torsions:
REMARK  status: ('A' for Active; 'I' for Inactive)
REMARK    1  A    between atoms: C_1  and  O_2
REMARK    2  A    between atoms: O_2  and  C_3
REMARK    3  A    between atoms: C_8  and  O_9
REMARK    4  A    between atoms: O_9  and  C_10
REMARK    5  A    between atoms: N_14  and  C_15
REMARK    6  A    between atoms: C_18  and  C_19
REMARK                            x       y       z     vdW  Elec       q    Type
REMARK                         _______ _______ _______ _____ _____    ______ ____
ROOT
ATOM      1  C   UNL     1      -3.514  10.433  16.119  0.00  0.00    +0.000 A 
ATOM      2  C   UNL     1      -2.234  10.042  16.524  0.00  0.00    +0.000 A 
ATOM      3  C   UNL     1      -1.680  10.467  17.745  0.00  0.00    +0.000 A 
ATOM      4  C   UNL     1      -2.367  11.370  18.560  0.00  0.00    +0.000 A 
ATOM      5  C   UNL     1      -3.618  11.820  18.094  0.00  0.00    +0.000 A 
ATOM      6  C   UNL     1      -4.208  11.356  16.902  0.00  0.00    +0.000 A 
ATOM      7  C   UNL     1      -1.790  11.782  19.867  0.00  0.00    +0.000 A 
ATOM      8  C   UNL     1      -2.404  12.672  20.662  0.00  0.00    +0.000 A 
ATOM      9  C   UNL     1      -1.730  13.056  21.925  0.00  0.00    +0.000 A 
ATOM     10  N   UNL     1      -2.314  14.019  22.726  0.00  0.00    +0.000 N 
ATOM     11  N   UNL     1      -0.610  12.514  22.287  0.00  0.00    +0.000 NA
ATOM     12  C   UNL     1       0.010  11.592  21.495  0.00  0.00    +0.000 A 
ATOM     13  O   UNL     1       1.084  11.108  21.843  0.00  0.00    +0.000 OA
ATOM     14  N   UNL     1      -0.585  11.241  20.283  0.00  0.00    +0.000 N 
ATOM     15  C   UNL     1       0.217  10.365  19.452  0.00  0.00    +0.000 C 
ATOM     16  C   UNL     1      -0.389   9.840  18.165  0.00  0.00    +0.000 C 
ATOM     17  H   UNL     1      -3.315  14.166  22.696  0.00  0.00    +0.000 HD
ENDROOT
BRANCH  10  18
ATOM     18  C   UNL     1      -1.606  14.936  23.536  0.00  0.00    +0.000 A 
ATOM     19  C   UNL     1      -1.683  14.857  24.934  0.00  0.00    +0.000 A 
ATOM     20  C   UNL     1      -1.023  15.768  25.755  0.00  0.00    +0.000 A 
ATOM     21  C   UNL     1      -0.269  16.807  25.203  0.00  0.00    +0.000 A 
ATOM     22  C   UNL     1       0.428  17.761  26.134  0.00  0.00    +0.000 C 
ATOM     23  C   UNL     1      -0.207  16.929  23.799  0.00  0.00    +0.000 A 
ATOM     24 CL   UNL     1       0.691  18.248  23.108  0.00  0.00    +0.000 Cl
ATOM     25  C   UNL     1      -0.868  15.997  22.971  0.00  0.00    +0.000 A 
ATOM     26 CL   UNL     1      -0.803  16.128  21.236  0.00  0.00    +0.000 Cl
ENDBRANCH  10  18
BRANCH   1  28
ATOM     27  C   UNL     1      -3.264  10.045  13.804  0.00  0.00    +0.000 C 
ATOM     28  O   UNL     1      -4.076   9.931  14.975  0.00  0.00    +0.000 OA
ENDBRANCH   1  28
BRANCH   6  29
ATOM     29  O   UNL     1      -5.456  11.887  16.715  0.00  0.00    +0.000 OA
ATOM     30  C   UNL     1      -6.235  12.258  17.839  0.00  0.00    +0.000 C 
ENDBRANCH   6  29
TORSDOF 3
ENDMDL
MODEL 9
REMARK VINA RESULT:      -6.6      4.273      5.791
REMARK  Name = 
REMARK  6 active torsions:
REMARK  status: ('A' for Active; 'I' for Inactive)
REMARK    1  A    between atoms: C_1  and  O_2
REMARK    2  A    between atoms: O_2  and  C_3
REMARK    3  A    between atoms: C_8  and  O_9
REMARK    4  A    between atoms: O_9  and  C_10
REMARK    5  A    between atoms: N_14  and  C_15
REMARK    6  A    between atoms: C_18  and  C_19
REMARK                            x       y       z     vdW  Elec       q    Type
REMARK                         _______ _______ _______ _____ _____    ______ ____
ROOT
ATOM      1  C   UNL     1       2.507   7.323  18.903  0.00  0.00    +0.000 A 
ATOM      2  C   UNL     1       2.440   8.512  18.168  0.00  0.00    +0.000 A 
ATOM      3  C   UNL     1       1.786   9.654  18.664  0.00  0.00    +0.000 A 
ATOM      4  C   UNL     1       1.104   9.609  19.883  0.00  0.00    +0.000 A 
ATOM      5  C   UNL     1       1.109   8.379  20.568  0.00  0.00    +0.000 A 
ATOM      6  C   UNL     1       1.811   7.245  20.110  0.00  0.00    +0.000 A 
ATOM      7  C   UNL     1       0.450  10.834  20.416  0.00  0.00    +0.000 A 
ATOM      8  C   UNL     1      -0.242  10.822  21.566  0.00  0.00    +0.000 A 
ATOM      9  C   UNL     1      -0.898  12.079  21.994  0.00  0.00    +0.000 A 
ATOM     10  N   UNL     1      -1.669  12.072  23.142  0.00  0.00    +0.000 N 
ATOM     11  N   UNL     1      -0.769  13.176  21.316  0.00  0.00    +0.000 NA
ATOM     12  C   UNL     1      -0.049  13.202  20.158  0.00  0.00    +0.000 A 
ATOM     13  O   UNL     1       0.042  14.246  19.516  0.00  0.00    +0.000 OA
ATOM     14  N   UNL     1       0.548  12.022  19.713  0.00  0.00    +0.000 N 
ATOM     15  C   UNL     1       1.169  12.118  18.406  0.00  0.00    +0.000 C 
ATOM     16  C   UNL     1       1.938  10.921  17.884  0.00  0.00    +0.000 C 
ATOM     17  H   UNL     1      -1.484  11.397  23.873  0.00  0.00    +0.000 HD
ENDROOT
BRANCH  10  18
ATOM     18  C   UNL     1      -2.813  12.875  23.353  0.00  0.00    +0.000 A 
ATOM     19  C   UNL     1      -4.066  12.471  22.870  0.00  0.00    +0.000 A 
ATOM     20  C   UNL     1      -5.202  13.259  23.035  0.00  0.00    +0.000 A 
ATOM     21  C   UNL     1      -5.122  14.496  23.680  0.00  0.00    +0.000 A 
ATOM     22  C   UNL     1      -6.380  15.305  23.836  0.00  0.00    +0.000 C 
ATOM     23  C   UNL     1      -3.867  14.940  24.142  0.00  0.00    +0.000 A 
ATOM     24 CL   UNL     1      -3.754  16.500  24.902  0.00  0.00    +0.000 Cl
ATOM     25  C   UNL     1      -2.720  14.133  23.983  0.00  0.00    +0.000 A 
ATOM     26 CL   UNL     1      -1.160  14.663  24.546  0.00  0.00    +0.000 Cl
ENDBRANCH  10  18
BRANCH   1  28
ATOM     27  C   UNL     1       4.364   6.590  17.644  0.00  0.00    +0.000 C 
ATOM     28  O   UNL     1       3.232   6.253  18.449  0.00  0.00    +0.000 OA
ENDBRANCH   1  28
BRANCH   6  29
ATOM     29  O   UNL     1       1.722   6.204  20.994  0.00  0.00    +0.000 OA
ATOM     30  C   UNL     1       1.219   4.954  20.555  0.00  0.00    +0.000 C 
ENDBRANCH   6  29
TORSDOF 3
ENDMDL
