MODEL 1
REMARK VINA RESULT:      -8.1      0.000      0.000
REMARK  Name = 
REMARK  8 active torsions:
REMARK  status: ('A' for Active; 'I' for Inactive)
REMARK    1  A    between atoms: C_1  and  C_2
REMARK    2  A    between atoms: C_5  and  S_6
REMARK    3  A    between atoms: S_6  and  N_9
REMARK    4  A    between atoms: N_13  and  C_14
REMARK    5  A    between atoms: C_14  and  C_15
REMARK    6  A    between atoms: C_15  and  O_16
REMARK    7  A    between atoms: O_16  and  C_17
REMARK    8  A    between atoms: C_17  and  C_19
REMARK                            x       y       z     vdW  Elec       q    Type
REMARK                         _______ _______ _______ _____ _____    ______ ____
ROOT
ATOM      1  N   UNL     1       4.601   4.427  19.490  0.00  0.00    +0.000 N 
ATOM      2  C   UNL     1       5.597   5.139  18.825  0.00  0.00    +0.000 C 
ATOM      3  N   UNL     1       6.631   5.469  19.470  0.00  0.00    +0.000 NA
ATOM      4  C   UNL     1       7.683   6.129  18.708  0.00  0.00    +0.000 C 
ATOM      5  N   UNL     1       7.405   6.746  17.408  0.00  0.00    +0.000 NA
ATOM      6  C   UNL     1       6.082   6.429  16.915  0.00  0.00    +0.000 C 
ATOM      7  N   UNL     1       5.358   5.361  17.522  0.00  0.00    +0.000 N 
ATOM      8  H   UNL     1       4.938   3.560  19.925  0.00  0.00    +0.000 HD
ATOM      9  H   UNL     1       4.389   5.285  17.223  0.00  0.00    +0.000 HD
ENDROOT
BRANCH   1  10
ATOM     10  S   UNL     1       2.965   4.415  19.125  0.00  0.00    +0.000 S 
ATOM     11  O   UNL     1       2.300   3.666  20.149  0.00  0.00    +0.000 OA
ATOM     12  O   UNL     1       2.838   4.056  17.716  0.00  0.00    +0.000 OA
BRANCH  10  17
ATOM     13  C   UNL     1       1.034  10.173  19.397  0.00  0.00    +0.000 C 
ATOM     14  C   UNL     1       1.525   8.755  19.340  0.00  0.00    +0.000 A 
ATOM     15  C   UNL     1       1.879   8.174  18.117  0.00  0.00    +0.000 A 
ATOM     16  C   UNL     1       2.338   6.858  18.070  0.00  0.00    +0.000 A 
ATOM     17  C   UNL     1       2.462   6.116  19.246  0.00  0.00    +0.000 A 
ATOM     18  C   UNL     1       2.104   6.680  20.476  0.00  0.00    +0.000 A 
ATOM     19  C   UNL     1       1.634   7.999  20.515  0.00  0.00    +0.000 A 
ENDBRANCH  10  17
ENDBRANCH   1  10
BRANCH   5  20
ATOM     20  C   UNL     1       7.657   8.193  17.397  0.00  0.00    +0.000 C 
BRANCH  20  21
ATOM     21  C   UNL     1       8.407   8.742  18.628  0.00  0.00    +0.000 C 
BRANCH  21  22
ATOM     22  O   UNL     1       9.221   9.875  18.237  0.00  0.00    +0.000 OA
BRANCH  22  23
ATOM     23  C   UNL     1       9.670  10.639  19.280  0.00  0.00    +0.000 C 
ATOM     24  O   UNL     1       9.331  10.501  20.434  0.00  0.00    +0.000 OA
BRANCH  23  25
ATOM     25  C   UNL     1      10.622  11.716  18.855  0.00  0.00    +0.000 A 
ATOM     26  C   UNL     1      10.631  12.070  17.494  0.00  0.00    +0.000 A 
ATOM     27  C   UNL     1      11.488  13.069  17.018  0.00  0.00    +0.000 A 
ATOM     28  C   UNL     1      12.321  13.748  17.905  0.00  0.00    +0.000 A 
ATOM     29  C   UNL     1      12.331  13.392  19.255  0.00  0.00    +0.000 A 
ATOM     30  C   UNL     1      11.504  12.366  19.725  0.00  0.00    +0.000 A 
ENDBRANCH  23  25
ENDBRANCH  22  23
ENDBRANCH  21  22
ENDBRANCH  20  21
ENDBRANCH   5  20
TORSDOF 7
ENDMDL
MODEL 2
REMARK VINA RESULT:      -7.9      1.119      1.362
REMARK  Name = 
REMARK  8 active torsions:
REMARK  status: ('A' for Active; 'I' for Inactive)
REMARK    1  A    between atoms: C_1  and  C_2
REMARK    2  A    between atoms: C_5  and  S_6
REMARK    3  A    between atoms: S_6  and  N_9
REMARK    4  A    between atoms: N_13  and  C_14
REMARK    5  A    between atoms: C_14  and  C_15
REMARK    6  A    between atoms: C_15  and  O_16
REMARK    7  A    between atoms: O_16  and  C_17
REMARK    8  A    between atoms: C_17  and  C_19
REMARK                            x       y       z     vdW  Elec       q    Type
REMARK                         _______ _______ _______ _____ _____    ______ ____
ROOT
ATOM      1  N   UNL     1       5.044   3.581  19.162  0.00  0.00    +0.000 N 
ATOM      2  C   UNL     1       5.886   4.394  18.404  0.00  0.00    +0.000 C 
ATOM      3  N   UNL     1       6.968   4.785  18.923  0.00  0.00    +0.000 NA
ATOM      4  C   UNL     1       7.857   5.554  18.060  0.00  0.00    +0.000 C 
ATOM      5  N   UNL     1       7.361   6.189  16.835  0.00  0.00    +0.000 NA
ATOM      6  C   UNL     1       6.012   5.782  16.505  0.00  0.00    +0.000 C 
ATOM      7  N   UNL     1       5.459   4.639  17.154  0.00  0.00    +0.000 N 
ATOM      8  H   UNL     1       5.502   2.731  19.510  0.00  0.00    +0.000 HD
ATOM      9  H   UNL     1       4.468   4.495  16.981  0.00  0.00    +0.000 HD
ENDROOT
BRANCH   1  10
ATOM     10  S   UNL     1       3.380   3.449  19.013  0.00  0.00    +0.000 S 
ATOM     11  O   UNL     1       2.941   2.462  19.952  0.00  0.00    +0.000 OA
ATOM     12  O   UNL     1       3.080   3.331  17.589  0.00  0.00    +0.000 OA
BRANCH  10  17
ATOM     13  C   UNL     1       1.083   8.870  20.528  0.00  0.00    +0.000 C 
ATOM     14  C   UNL     1       1.661   7.531  20.168  0.00  0.00    +0.000 A 
ATOM     15  C   UNL     1       2.408   7.370  18.996  0.00  0.00    +0.000 A 
ATOM     16  C   UNL     1       2.945   6.126  18.669  0.00  0.00    +0.000 A 
ATOM     17  C   UNL     1       2.753   5.034  19.518  0.00  0.00    +0.000 A 
ATOM     18  C   UNL     1       2.001   5.176  20.689  0.00  0.00    +0.000 A 
ATOM     19  C   UNL     1       1.456   6.427  21.007  0.00  0.00    +0.000 A 
ENDBRANCH  10  17
ENDBRANCH   1  10
BRANCH   5  20
ATOM     20  C   UNL     1       7.498   7.651  16.855  0.00  0.00    +0.000 C 
BRANCH  20  21
ATOM     21  C   UNL     1       8.139   8.237  18.131  0.00  0.00    +0.000 C 
BRANCH  21  22
ATOM     22  O   UNL     1       8.181   9.682  18.034  0.00  0.00    +0.000 OA
BRANCH  22  23
ATOM     23  C   UNL     1       9.090  10.280  18.865  0.00  0.00    +0.000 C 
ATOM     24  O   UNL     1       9.425   9.851  19.947  0.00  0.00    +0.000 OA
BRANCH  23  25
ATOM     25  C   UNL     1       9.627  11.569  18.320  0.00  0.00    +0.000 A 
ATOM     26  C   UNL     1      10.948  11.565  17.835  0.00  0.00    +0.000 A 
ATOM     27  C   UNL     1      11.522  12.727  17.306  0.00  0.00    +0.000 A 
ATOM     28  C   UNL     1      10.769  13.897  17.226  0.00  0.00    +0.000 A 
ATOM     29  C   UNL     1       9.463  13.915  17.720  0.00  0.00    +0.000 A 
ATOM     30  C   UNL     1       8.902  12.764  18.286  0.00  0.00    +0.000 A 
ENDBRANCH  23  25
ENDBRANCH  22  23
ENDBRANCH  21  22
ENDBRANCH  20  21
ENDBRANCH   5  20
TORSDOF 7
ENDMDL
MODEL 3
REMARK VINA RESULT:      -7.9      1.447      2.090
REMARK  Name = 
REMARK  8 active torsions:
REMARK  status: ('A' for Active; 'I' for Inactive)
REMARK    1  A    between atoms: C_1  and  C_2
REMARK    2  A    between atoms: C_5  and  S_6
REMARK    3  A    between atoms: S_6  and  N_9
REMARK    4  A    between atoms: N_13  and  C_14
REMARK    5  A    between atoms: C_14  and  C_15
REMARK    6  A    between atoms: C_15  and  O_16
REMARK    7  A    between atoms: O_16  and  C_17
REMARK    8  A    between atoms: C_17  and  C_19
REMARK                            x       y       z     vdW  Elec       q    Type
REMARK                         _______ _______ _______ _____ _____    ______ ____
ROOT
ATOM      1  N   UNL     1       4.474   3.177  18.311  0.00  0.00    +0.000 N 
ATOM      2  C   UNL     1       5.437   4.007  17.740  0.00  0.00    +0.000 C 
ATOM      3  N   UNL     1       6.539   4.147  18.339  0.00  0.00    +0.000 NA
ATOM      4  C   UNL     1       7.547   4.949  17.657  0.00  0.00    +0.000 C 
ATOM      5  N   UNL     1       7.180   5.871  16.578  0.00  0.00    +0.000 NA
ATOM      6  C   UNL     1       5.804   5.713  16.157  0.00  0.00    +0.000 C 
ATOM      7  N   UNL     1       5.090   4.545  16.559  0.00  0.00    +0.000 N 
ATOM      8  H   UNL     1       4.809   2.223  18.488  0.00  0.00    +0.000 HD
ATOM      9  H   UNL     1       4.096   4.566  16.348  0.00  0.00    +0.000 HD
ENDROOT
BRANCH   1  10
ATOM     10  S   UNL     1       2.813   3.291  18.118  0.00  0.00    +0.000 S 
ATOM     11  O   UNL     1       2.218   2.227  18.870  0.00  0.00    +0.000 OA
ATOM     12  O   UNL     1       2.552   3.452  16.691  0.00  0.00    +0.000 OA
BRANCH  10  17
ATOM     13  C   UNL     1       1.496   8.537  20.894  0.00  0.00    +0.000 C 
ATOM     14  C   UNL     1       1.809   7.245  20.196  0.00  0.00    +0.000 A 
ATOM     15  C   UNL     1       1.592   6.019  20.836  0.00  0.00    +0.000 A 
ATOM     16  C   UNL     1       1.880   4.822  20.181  0.00  0.00    +0.000 A 
ATOM     17  C   UNL     1       2.375   4.838  18.876  0.00  0.00    +0.000 A 
ATOM     18  C   UNL     1       2.606   6.056  18.225  0.00  0.00    +0.000 A 
ATOM     19  C   UNL     1       2.322   7.255  18.891  0.00  0.00    +0.000 A 
ENDBRANCH  10  17
ENDBRANCH   1  10
BRANCH   5  20
ATOM     20  C   UNL     1       7.495   7.270  16.890  0.00  0.00    +0.000 C 
BRANCH  20  21
ATOM     21  C   UNL     1       7.794   7.565  18.375  0.00  0.00    +0.000 C 
BRANCH  21  22
ATOM     22  O   UNL     1       8.915   8.476  18.474  0.00  0.00    +0.000 OA
BRANCH  22  23
ATOM     23  C   UNL     1       8.587   9.798  18.340  0.00  0.00    +0.000 C 
ATOM     24  O   UNL     1       7.565  10.209  17.838  0.00  0.00    +0.000 OA
BRANCH  23  25
ATOM     25  C   UNL     1       9.649  10.724  18.853  0.00  0.00    +0.000 A 
ATOM     26  C   UNL     1       9.582  11.096  20.208  0.00  0.00    +0.000 A 
ATOM     27  C   UNL     1      10.539  11.954  20.764  0.00  0.00    +0.000 A 
ATOM     28  C   UNL     1      11.590  12.422  19.979  0.00  0.00    +0.000 A 
ATOM     29  C   UNL     1      11.655  12.071  18.629  0.00  0.00    +0.000 A 
ATOM     30  C   UNL     1      10.677  11.246  18.061  0.00  0.00    +0.000 A 
ENDBRANCH  23  25
ENDBRANCH  22  23
ENDBRANCH  21  22
ENDBRANCH  20  21
ENDBRANCH   5  20
TORSDOF 7
ENDMDL
MODEL 4
REMARK VINA RESULT:      -7.8      1.283      1.977
REMARK  Name = 
REMARK  8 active torsions:
REMARK  status: ('A' for Active; 'I' for Inactive)
REMARK    1  A    between atoms: C_1  and  C_2
REMARK    2  A    between atoms: C_5  and  S_6
REMARK    3  A    between atoms: S_6  and  N_9
REMARK    4  A    between atoms: N_13  and  C_14
REMARK    5  A    between atoms: C_14  and  C_15
REMARK    6  A    between atoms: C_15  and  O_16
REMARK    7  A    between atoms: O_16  and  C_17
REMARK    8  A    between atoms: C_17  and  C_19
REMARK                            x       y       z     vdW  Elec       q    Type
REMARK                         _______ _______ _______ _____ _____    ______ ____
ROOT
ATOM      1  N   UNL     1       5.080   4.166  19.608  0.00  0.00    +0.000 N 
ATOM      2  C   UNL     1       6.013   4.957  18.940  0.00  0.00    +0.000 C 
ATOM      3  N   UNL     1       6.958   5.463  19.608  0.00  0.00    +0.000 NA
ATOM      4  C   UNL     1       7.959   6.203  18.850  0.00  0.00    +0.000 C 
ATOM      5  N   UNL     1       7.679   6.688  17.496  0.00  0.00    +0.000 NA
ATOM      6  C   UNL     1       6.438   6.167  16.965  0.00  0.00    +0.000 C 
ATOM      7  N   UNL     1       5.823   5.056  17.614  0.00  0.00    +0.000 N 
ATOM      8  H   UNL     1       5.500   3.383  20.122  0.00  0.00    +0.000 HD
ATOM      9  H   UNL     1       4.891   4.834  17.276  0.00  0.00    +0.000 HD
ENDROOT
BRANCH   1  10
ATOM     10  S   UNL     1       3.482   3.915  19.167  0.00  0.00    +0.000 S 
ATOM     11  O   UNL     1       2.880   3.099  20.178  0.00  0.00    +0.000 OA
ATOM     12  O   UNL     1       3.478   3.514  17.764  0.00  0.00    +0.000 OA
BRANCH  10  17
ATOM     13  C   UNL     1       1.117   9.503  19.529  0.00  0.00    +0.000 C 
ATOM     14  C   UNL     1       1.689   8.119  19.427  0.00  0.00    +0.000 A 
ATOM     15  C   UNL     1       1.655   7.252  20.526  0.00  0.00    +0.000 A 
ATOM     16  C   UNL     1       2.185   5.966  20.424  0.00  0.00    +0.000 A 
ATOM     17  C   UNL     1       2.739   5.529  19.220  0.00  0.00    +0.000 A 
ATOM     18  C   UNL     1       2.789   6.386  18.114  0.00  0.00    +0.000 A 
ATOM     19  C   UNL     1       2.263   7.680  18.226  0.00  0.00    +0.000 A 
ENDBRANCH  10  17
ENDBRANCH   1  10
BRANCH   5  20
ATOM     20  C   UNL     1       7.744   8.151  17.389  0.00  0.00    +0.000 C 
BRANCH  20  21
ATOM     21  C   UNL     1       8.610   8.854  18.456  0.00  0.00    +0.000 C 
BRANCH  21  22
ATOM     22  O   UNL     1       8.391  10.285  18.396  0.00  0.00    +0.000 OA
BRANCH  22  23
ATOM     23  C   UNL     1       9.533  11.037  18.453  0.00  0.00    +0.000 C 
ATOM     24  O   UNL     1      10.441  10.976  17.655  0.00  0.00    +0.000 OA
BRANCH  23  25
ATOM     25  C   UNL     1       9.581  11.946  19.644  0.00  0.00    +0.000 A 
ATOM     26  C   UNL     1       9.796  13.316  19.403  0.00  0.00    +0.000 A 
ATOM     27  C   UNL     1       9.849  14.231  20.461  0.00  0.00    +0.000 A 
ATOM     28  C   UNL     1       9.655  13.790  21.768  0.00  0.00    +0.000 A 
ATOM     29  C   UNL     1       9.457  12.431  22.018  0.00  0.00    +0.000 A 
ATOM     30  C   UNL     1       9.443  11.509  20.965  0.00  0.00    +0.000 A 
ENDBRANCH  23  25
ENDBRANCH  22  23
ENDBRANCH  21  22
ENDBRANCH  20  21
ENDBRANCH   5  20
TORSDOF 7
ENDMDL
MODEL 5
REMARK VINA RESULT:      -7.7      1.748      2.520
REMARK  Name = 
REMARK  8 active torsions:
REMARK  status: ('A' for Active; 'I' for Inactive)
REMARK    1  A    between atoms: C_1  and  C_2
REMARK    2  A    between atoms: C_5  and  S_6
REMARK    3  A    between atoms: S_6  and  N_9
REMARK    4  A    between atoms: N_13  and  C_14
REMARK    5  A    between atoms: C_14  and  C_15
REMARK    6  A    between atoms: C_15  and  O_16
REMARK    7  A    between atoms: O_16  and  C_17
REMARK    8  A    between atoms: C_17  and  C_19
REMARK                            x       y       z     vdW  Elec       q    Type
REMARK                         _______ _______ _______ _____ _____    ______ ____
ROOT
ATOM      1  N   UNL     1       5.500   3.961  19.146  0.00  0.00    +0.000 N 
ATOM      2  C   UNL     1       6.338   4.969  18.672  0.00  0.00    +0.000 C 
ATOM      3  N   UNL     1       7.257   5.389  19.429  0.00  0.00    +0.000 NA
ATOM      4  C   UNL     1       8.164   6.376  18.856  0.00  0.00    +0.000 C 
ATOM      5  N   UNL     1       7.797   7.138  17.659  0.00  0.00    +0.000 NA
ATOM      6  C   UNL     1       6.589   6.644  17.035  0.00  0.00    +0.000 C 
ATOM      7  N   UNL     1       6.095   5.359  17.410  0.00  0.00    +0.000 N 
ATOM      8  H   UNL     1       6.003   3.121  19.454  0.00  0.00    +0.000 HD
ATOM      9  H   UNL     1       5.174   5.137  17.040  0.00  0.00    +0.000 HD
ENDROOT
BRANCH   1  10
ATOM     10  S   UNL     1       3.916   3.674  18.677  0.00  0.00    +0.000 S 
ATOM     11  O   UNL     1       3.430   2.574  19.455  0.00  0.00    +0.000 OA
ATOM     12  O   UNL     1       3.895   3.643  17.218  0.00  0.00    +0.000 OA
BRANCH  10  17
ATOM     13  C   UNL     1       1.054   8.719  20.498  0.00  0.00    +0.000 C 
ATOM     14  C   UNL     1       1.750   7.471  20.035  0.00  0.00    +0.000 A 
ATOM     15  C   UNL     1       1.768   6.326  20.839  0.00  0.00    +0.000 A 
ATOM     16  C   UNL     1       2.412   5.169  20.402  0.00  0.00    +0.000 A 
ATOM     17  C   UNL     1       3.031   5.141  19.151  0.00  0.00    +0.000 A 
ATOM     18  C   UNL     1       3.029   6.281  18.338  0.00  0.00    +0.000 A 
ATOM     19  C   UNL     1       2.389   7.443  18.787  0.00  0.00    +0.000 A 
ENDBRANCH  10  17
ENDBRANCH   1  10
BRANCH   5  20
ATOM     20  C   UNL     1       7.731   8.585  17.901  0.00  0.00    +0.000 C 
BRANCH  20  21
ATOM     21  C   UNL     1       8.912   9.175  18.700  0.00  0.00    +0.000 C 
BRANCH  21  22
ATOM     22  O   UNL     1       8.768  10.614  18.789  0.00  0.00    +0.000 OA
BRANCH  22  23
ATOM     23  C   UNL     1       9.848  11.260  19.327  0.00  0.00    +0.000 C 
ATOM     24  O   UNL     1      10.983  11.173  18.913  0.00  0.00    +0.000 OA
BRANCH  23  25
ATOM     25  C   UNL     1       9.503  12.085  20.530  0.00  0.00    +0.000 A 
ATOM     26  C   UNL     1       8.859  11.432  21.597  0.00  0.00    +0.000 A 
ATOM     27  C   UNL     1       8.507  12.130  22.758  0.00  0.00    +0.000 A 
ATOM     28  C   UNL     1       8.826  13.481  22.878  0.00  0.00    +0.000 A 
ATOM     29  C   UNL     1       9.450  14.141  21.818  0.00  0.00    +0.000 A 
ATOM     30  C   UNL     1       9.767  13.454  20.640  0.00  0.00    +0.000 A 
ENDBRANCH  23  25
ENDBRANCH  22  23
ENDBRANCH  21  22
ENDBRANCH  20  21
ENDBRANCH   5  20
TORSDOF 7
ENDMDL
MODEL 6
REMARK VINA RESULT:      -7.6      5.518      7.783
REMARK  Name = 
REMARK  8 active torsions:
REMARK  status: ('A' for Active; 'I' for Inactive)
REMARK    1  A    between atoms: C_1  and  C_2
REMARK    2  A    between atoms: C_5  and  S_6
REMARK    3  A    between atoms: S_6  and  N_9
REMARK    4  A    between atoms: N_13  and  C_14
REMARK    5  A    between atoms: C_14  and  C_15
REMARK    6  A    between atoms: C_15  and  O_16
REMARK    7  A    between atoms: O_16  and  C_17
REMARK    8  A    between atoms: C_17  and  C_19
REMARK                            x       y       z     vdW  Elec       q    Type
REMARK                         _______ _______ _______ _____ _____    ______ ____
ROOT
ATOM      1  N   UNL     1       1.180   9.868  19.138  0.00  0.00    +0.000 N 
ATOM      2  C   UNL     1       1.669   8.571  19.286  0.00  0.00    +0.000 C 
ATOM      3  N   UNL     1       2.008   7.937  18.247  0.00  0.00    +0.000 NA
ATOM      4  C   UNL     1       2.600   6.622  18.460  0.00  0.00    +0.000 C 
ATOM      5  N   UNL     1       2.428   5.909  19.729  0.00  0.00    +0.000 NA
ATOM      6  C   UNL     1       1.825   6.735  20.753  0.00  0.00    +0.000 C 
ATOM      7  N   UNL     1       1.770   8.147  20.556  0.00  0.00    +0.000 N 
ATOM      8  H   UNL     1       1.821  10.492  18.635  0.00  0.00    +0.000 HD
ATOM      9  H   UNL     1       1.213   8.647  21.243  0.00  0.00    +0.000 HD
ENDROOT
BRANCH   1  10
ATOM     10  S   UNL     1       0.122  10.662  20.168  0.00  0.00    +0.000 S 
ATOM     11  O   UNL     1       0.732  11.904  20.538  0.00  0.00    +0.000 OA
ATOM     12  O   UNL     1      -0.309   9.697  21.175  0.00  0.00    +0.000 OA
BRANCH  10  17
ATOM     13  C   UNL     1      -4.840  11.584  16.780  0.00  0.00    +0.000 C 
ATOM     14  C   UNL     1      -3.610  11.373  17.615  0.00  0.00    +0.000 A 
ATOM     15  C   UNL     1      -2.591  10.520  17.178  0.00  0.00    +0.000 A 
ATOM     16  C   UNL     1      -1.449  10.331  17.956  0.00  0.00    +0.000 A 
ATOM     17  C   UNL     1      -1.309  11.005  19.171  0.00  0.00    +0.000 A 
ATOM     18  C   UNL     1      -2.323  11.855  19.626  0.00  0.00    +0.000 A 
ATOM     19  C   UNL     1      -3.472  12.033  18.844  0.00  0.00    +0.000 A 
ENDBRANCH  10  17
ENDBRANCH   1  10
BRANCH   5  20
ATOM     20  C   UNL     1       1.721   4.632  19.575  0.00  0.00    +0.000 C 
BRANCH  20  21
ATOM     21  C   UNL     1       2.264   3.468  20.430  0.00  0.00    +0.000 C 
BRANCH  21  22
ATOM     22  O   UNL     1       2.919   2.499  19.575  0.00  0.00    +0.000 OA
BRANCH  22  23
ATOM     23  C   UNL     1       4.286   2.568  19.583  0.00  0.00    +0.000 C 
ATOM     24  O   UNL     1       5.008   1.904  20.293  0.00  0.00    +0.000 OA
BRANCH  23  25
ATOM     25  C   UNL     1       4.830   3.592  18.633  0.00  0.00    +0.000 A 
ATOM     26  C   UNL     1       4.461   3.479  17.280  0.00  0.00    +0.000 A 
ATOM     27  C   UNL     1       4.923   4.398  16.330  0.00  0.00    +0.000 A 
ATOM     28  C   UNL     1       5.732   5.459  16.730  0.00  0.00    +0.000 A 
ATOM     29  C   UNL     1       6.116   5.571  18.068  0.00  0.00    +0.000 A 
ATOM     30  C   UNL     1       5.687   4.630  19.012  0.00  0.00    +0.000 A 
ENDBRANCH  23  25
ENDBRANCH  22  23
ENDBRANCH  21  22
ENDBRANCH  20  21
ENDBRANCH   5  20
TORSDOF 7
ENDMDL
MODEL 7
REMARK VINA RESULT:      -7.5      5.357      7.606
REMARK  Name = 
REMARK  8 active torsions:
REMARK  status: ('A' for Active; 'I' for Inactive)
REMARK    1  A    between atoms: C_1  and  C_2
REMARK    2  A    between atoms: C_5  and  S_6
REMARK    3  A    between atoms: S_6  and  N_9
REMARK    4  A    between atoms: N_13  and  C_14
REMARK    5  A    between atoms: C_14  and  C_15
REMARK    6  A    between atoms: C_15  and  O_16
REMARK    7  A    between atoms: O_16  and  C_17
REMARK    8  A    between atoms: C_17  and  C_19
REMARK                            x       y       z     vdW  Elec       q    Type
REMARK                         _______ _______ _______ _____ _____    ______ ____
ROOT
ATOM      1  N   UNL     1       1.391   9.755  19.003  0.00  0.00    +0.000 N 
ATOM      2  C   UNL     1       1.839   8.443  19.145  0.00  0.00    +0.000 C 
ATOM      3  N   UNL     1       2.197   7.816  18.109  0.00  0.00    +0.000 NA
ATOM      4  C   UNL     1       2.746   6.482  18.320  0.00  0.00    +0.000 C 
ATOM      5  N   UNL     1       2.510   5.754  19.571  0.00  0.00    +0.000 NA
ATOM      6  C   UNL     1       1.894   6.580  20.586  0.00  0.00    +0.000 C 
ATOM      7  N   UNL     1       1.884   7.996  20.411  0.00  0.00    +0.000 N 
ATOM      8  H   UNL     1       2.066  10.369  18.532  0.00  0.00    +0.000 HD
ATOM      9  H   UNL     1       1.317   8.501  21.086  0.00  0.00    +0.000 HD
ENDROOT
BRANCH   1  10
ATOM     10  S   UNL     1       0.320  10.561  20.008  0.00  0.00    +0.000 S 
ATOM     11  O   UNL     1       0.870  11.857  20.272  0.00  0.00    +0.000 OA
ATOM     12  O   UNL     1      -0.029   9.648  21.092  0.00  0.00    +0.000 OA
BRANCH  10  17
ATOM     13  C   UNL     1      -4.661  11.481  16.646  0.00  0.00    +0.000 C 
ATOM     14  C   UNL     1      -3.435  11.237  17.478  0.00  0.00    +0.000 A 
ATOM     15  C   UNL     1      -3.266  11.890  18.705  0.00  0.00    +0.000 A 
ATOM     16  C   UNL     1      -2.127  11.656  19.475  0.00  0.00    +0.000 A 
ATOM     17  C   UNL     1      -1.155  10.756  19.035  0.00  0.00    +0.000 A 
ATOM     18  C   UNL     1      -1.305  10.102  17.807  0.00  0.00    +0.000 A 
ATOM     19  C   UNL     1      -2.446  10.348  17.033  0.00  0.00    +0.000 A 
ENDBRANCH  10  17
ENDBRANCH   1  10
BRANCH   5  20
ATOM     20  C   UNL     1       1.774   4.499  19.371  0.00  0.00    +0.000 C 
BRANCH  20  21
ATOM     21  C   UNL     1       2.417   3.248  20.005  0.00  0.00    +0.000 C 
BRANCH  21  22
ATOM     22  O   UNL     1       3.819   3.186  19.647  0.00  0.00    +0.000 OA
BRANCH  22  23
ATOM     23  C   UNL     1       4.056   2.882  18.333  0.00  0.00    +0.000 C 
ATOM     24  O   UNL     1       3.609   1.917  17.755  0.00  0.00    +0.000 OA
BRANCH  23  25
ATOM     25  C   UNL     1       4.974   3.857  17.659  0.00  0.00    +0.000 A 
ATOM     26  C   UNL     1       4.781   4.080  16.283  0.00  0.00    +0.000 A 
ATOM     27  C   UNL     1       5.593   4.979  15.582  0.00  0.00    +0.000 A 
ATOM     28  C   UNL     1       6.585   5.688  16.256  0.00  0.00    +0.000 A 
ATOM     29  C   UNL     1       6.795   5.460  17.617  0.00  0.00    +0.000 A 
ATOM     30  C   UNL     1       6.010   4.533  18.312  0.00  0.00    +0.000 A 
ENDBRANCH  23  25
ENDBRANCH  22  23
ENDBRANCH  21  22
ENDBRANCH  20  21
ENDBRANCH   5  20
TORSDOF 7
ENDMDL
MODEL 8
REMARK VINA RESULT:      -7.4      5.725      8.830
REMARK  Name = 
REMARK  8 active torsions:
REMARK  status: ('A' for Active; 'I' for Inactive)
REMARK    1  A    between atoms: C_1  and  C_2
REMARK    2  A    between atoms: C_5  and  S_6
REMARK    3  A    between atoms: S_6  and  N_9
REMARK    4  A    between atoms: N_13  and  C_14
REMARK    5  A    between atoms: C_14  and  C_15
REMARK    6  A    between atoms: C_15  and  O_16
REMARK    7  A    between atoms: O_16  and  C_17
REMARK    8  A    between atoms: C_17  and  C_19
REMARK                            x       y       z     vdW  Elec       q    Type
REMARK                         _______ _______ _______ _____ _____    ______ ____
ROOT
ATOM      1  N   UNL     1       0.231  10.397  20.397  0.00  0.00    +0.000 N 
ATOM      2  C   UNL     1       0.928   9.392  19.729  0.00  0.00    +0.000 C 
ATOM      3  N   UNL     1       1.514   8.510  20.417  0.00  0.00    +0.000 NA
ATOM      4  C   UNL     1       2.150   7.429  19.674  0.00  0.00    +0.000 C 
ATOM      5  N   UNL     1       2.460   7.569  18.248  0.00  0.00    +0.000 NA
ATOM      6  C   UNL     1       1.877   8.759  17.668  0.00  0.00    +0.000 C 
ATOM      7  N   UNL     1       0.858   9.450  18.389  0.00  0.00    +0.000 N 
ATOM      8  H   UNL     1      -0.481  10.039  21.045  0.00  0.00    +0.000 HD
ATOM      9  H   UNL     1       0.595  10.348  17.991  0.00  0.00    +0.000 HD
ENDROOT
BRANCH   1  10
ATOM     10  S   UNL     1      -0.073  11.947  19.836  0.00  0.00    +0.000 S 
ATOM     11  O   UNL     1       0.816  12.190  18.740  0.00  0.00    +0.000 OA
ATOM     12  O   UNL     1      -0.108  12.829  20.998  0.00  0.00    +0.000 OA
BRANCH  10  17
ATOM     13  C   UNL     1      -5.762  11.473  17.744  0.00  0.00    +0.000 C 
ATOM     14  C   UNL     1      -4.358  11.608  18.259  0.00  0.00    +0.000 A 
ATOM     15  C   UNL     1      -3.288  11.024  17.570  0.00  0.00    +0.000 A 
ATOM     16  C   UNL     1      -1.986  11.156  18.050  0.00  0.00    +0.000 A 
ATOM     17  C   UNL     1      -1.738  11.884  19.215  0.00  0.00    +0.000 A 
ATOM     18  C   UNL     1      -2.797  12.467  19.920  0.00  0.00    +0.000 A 
ATOM     19  C   UNL     1      -4.104  12.323  19.438  0.00  0.00    +0.000 A 
ENDBRANCH  10  17
ENDBRANCH   1  10
BRANCH   5  20
ATOM     20  C   UNL     1       3.897   7.474  17.964  0.00  0.00    +0.000 C 
BRANCH  20  21
ATOM     21  C   UNL     1       4.320   6.274  17.090  0.00  0.00    +0.000 C 
BRANCH  21  22
ATOM     22  O   UNL     1       3.448   5.149  17.353  0.00  0.00    +0.000 OA
BRANCH  22  23
ATOM     23  C   UNL     1       3.964   4.220  18.216  0.00  0.00    +0.000 C 
ATOM     24  O   UNL     1       5.088   3.773  18.160  0.00  0.00    +0.000 OA
BRANCH  23  25
ATOM     25  C   UNL     1       2.978   3.762  19.248  0.00  0.00    +0.000 A 
ATOM     26  C   UNL     1       3.487   3.093  20.377  0.00  0.00    +0.000 A 
ATOM     27  C   UNL     1       2.633   2.638  21.387  0.00  0.00    +0.000 A 
ATOM     28  C   UNL     1       1.263   2.876  21.296  0.00  0.00    +0.000 A 
ATOM     29  C   UNL     1       0.747   3.524  20.172  0.00  0.00    +0.000 A 
ATOM     30  C   UNL     1       1.596   3.944  19.141  0.00  0.00    +0.000 A 
ENDBRANCH  23  25
ENDBRANCH  22  23
ENDBRANCH  21  22
ENDBRANCH  20  21
ENDBRANCH   5  20
TORSDOF 7
ENDMDL
MODEL 9
REMARK VINA RESULT:      -7.3      4.529      7.180
REMARK  Name = 
REMARK  8 active torsions:
REMARK  status: ('A' for Active; 'I' for Inactive)
REMARK    1  A    between atoms: C_1  and  C_2
REMARK    2  A    between atoms: C_5  and  S_6
REMARK    3  A    between atoms: S_6  and  N_9
REMARK    4  A    between atoms: N_13  and  C_14
REMARK    5  A    between atoms: C_14  and  C_15
REMARK    6  A    between atoms: C_15  and  O_16
REMARK    7  A    between atoms: O_16  and  C_17
REMARK    8  A    between atoms: C_17  and  C_19
REMARK                            x       y       z     vdW  Elec       q    Type
REMARK                         _______ _______ _______ _____ _____    ______ ____
ROOT
ATOM      1  N   UNL     1       0.647  10.442  17.909  0.00  0.00    +0.000 N 
ATOM      2  C   UNL     1       1.403   9.355  18.343  0.00  0.00    +0.000 C 
ATOM      3  N   UNL     1       2.044   8.689  17.482  0.00  0.00    +0.000 NA
ATOM      4  C   UNL     1       2.893   7.620  17.994  0.00  0.00    +0.000 C 
ATOM      5  N   UNL     1       2.699   7.078  19.342  0.00  0.00    +0.000 NA
ATOM      6  C   UNL     1       1.762   7.855  20.124  0.00  0.00    +0.000 C 
ATOM      7  N   UNL     1       1.402   9.159  19.672  0.00  0.00    +0.000 N 
ATOM      8  H   UNL     1       1.191  11.133  17.380  0.00  0.00    +0.000 HD
ATOM      9  H   UNL     1       0.639   9.589  20.188  0.00  0.00    +0.000 HD
ENDROOT
BRANCH   1  10
ATOM     10  S   UNL     1      -0.719  11.070  18.650  0.00  0.00    +0.000 S 
ATOM     11  O   UNL     1      -1.111  10.153  19.679  0.00  0.00    +0.000 OA
ATOM     12  O   UNL     1      -1.642  11.467  17.592  0.00  0.00    +0.000 OA
BRANCH  10  17
ATOM     13  C   UNL     1       1.390  16.104  21.328  0.00  0.00    +0.000 C 
ATOM     14  C   UNL     1       0.854  14.869  20.662  0.00  0.00    +0.000 A 
ATOM     15  C   UNL     1       0.579  13.719  21.410  0.00  0.00    +0.000 A 
ATOM     16  C   UNL     1       0.078  12.577  20.787  0.00  0.00    +0.000 A 
ATOM     17  C   UNL     1      -0.167  12.578  19.413  0.00  0.00    +0.000 A 
ATOM     18  C   UNL     1       0.111  13.717  18.649  0.00  0.00    +0.000 A 
ATOM     19  C   UNL     1       0.622  14.859  19.279  0.00  0.00    +0.000 A 
ENDBRANCH  10  17
ENDBRANCH   1  10
BRANCH   5  20
ATOM     20  C   UNL     1       2.353   5.651  19.339  0.00  0.00    +0.000 C 
BRANCH  20  21
ATOM     21  C   UNL     1       2.652   4.901  18.024  0.00  0.00    +0.000 C 
BRANCH  21  22
ATOM     22  O   UNL     1       3.933   4.233  18.126  0.00  0.00    +0.000 OA
BRANCH  22  23
ATOM     23  C   UNL     1       4.816   4.542  17.126  0.00  0.00    +0.000 C 
ATOM     24  O   UNL     1       4.741   4.136  15.988  0.00  0.00    +0.000 OA
BRANCH  23  25
ATOM     25  C   UNL     1       5.937   5.425  17.582  0.00  0.00    +0.000 A 
ATOM     26  C   UNL     1       6.655   5.021  18.723  0.00  0.00    +0.000 A 
ATOM     27  C   UNL     1       7.720   5.789  19.210  0.00  0.00    +0.000 A 
ATOM     28  C   UNL     1       8.099   6.951  18.542  0.00  0.00    +0.000 A 
ATOM     29  C   UNL     1       7.382   7.368  17.419  0.00  0.00    +0.000 A 
ATOM     30  C   UNL     1       6.292   6.623  16.954  0.00  0.00    +0.000 A 
ENDBRANCH  23  25
ENDBRANCH  22  23
ENDBRANCH  21  22
ENDBRANCH  20  21
ENDBRANCH   5  20
TORSDOF 7
ENDMDL
