MODEL 1
REMARK VINA RESULT:      -8.1      0.000      0.000
REMARK  Name = 
REMARK  6 active torsions:
REMARK  status: ('A' for Active; 'I' for Inactive)
REMARK    1  A    between atoms: C_2  and  C_3
REMARK    2  A    between atoms: C_3  and  N_4
REMARK    3  A    between atoms: C_5  and  C_7
REMARK    4  A    between atoms: N_14  and  N_15
REMARK    5  A    between atoms: C_16  and  C_18
REMARK    6  A    between atoms: C_23  and  O_24
REMARK                            x       y       z     vdW  Elec       q    Type
REMARK                         _______ _______ _______ _____ _____    ______ ____
ROOT
ATOM      1  O   UNL     1       2.731   2.440  17.441  0.00  0.00    +0.000 OA
ATOM      2  C   UNL     1       3.447   3.089  18.218  0.00  0.00    +0.000 C 
ATOM      3  N   UNL     1       4.707   3.536  17.885  0.00  0.00    +0.000 N 
ATOM      4  H   UNL     1       5.302   4.005  18.562  0.00  0.00    +0.000 HD
ENDROOT
BRANCH   3   5
ATOM      5  N   UNL     1       5.234   3.385  16.590  0.00  0.00    +0.000 N 
ATOM      6  C   UNL     1       5.277   4.495  15.764  0.00  0.00    +0.000 C 
ATOM      7  O   UNL     1       4.844   5.596  16.099  0.00  0.00    +0.000 OA
ATOM      8  H   UNL     1       5.356   2.446  16.200  0.00  0.00    +0.000 HD
BRANCH   6   9
ATOM      9  C   UNL     1       5.937   4.320  14.439  0.00  0.00    +0.000 A 
ATOM     10  C   UNL     1       5.301   3.493  13.496  0.00  0.00    +0.000 A 
ATOM     11  C   UNL     1       5.851   3.315  12.224  0.00  0.00    +0.000 A 
ATOM     12  C   UNL     1       7.047   3.947  11.888  0.00  0.00    +0.000 A 
ATOM     13  C   UNL     1       7.698   4.755  12.821  0.00  0.00    +0.000 A 
ATOM     14  C   UNL     1       7.140   4.944  14.089  0.00  0.00    +0.000 A 
BRANCH  14  15
ATOM     15  O   UNL     1       7.787   5.743  14.992  0.00  0.00    +0.000 OA
ATOM     16  H   UNL     1       7.167   6.418  15.318  0.00  0.00    +0.000 HD
ENDBRANCH  14  15
ENDBRANCH   6   9
ENDBRANCH   3   5
BRANCH   2  17
ATOM     17  C   UNL     1       3.009   3.388  19.661  0.00  0.00    +0.000 C 
BRANCH  17  18
ATOM     18  N   UNL     1       2.328   4.657  19.795  0.00  0.00    +0.000 N 
ATOM     19  C   UNL     1       3.006   5.844  19.637  0.00  0.00    +0.000 C 
ATOM     20  O   UNL     1       4.213   5.875  19.409  0.00  0.00    +0.000 OA
ATOM     21  H   UNL     1       1.328   4.659  19.978  0.00  0.00    +0.000 HD
BRANCH  19  22
ATOM     22  C   UNL     1       2.236   7.109  19.749  0.00  0.00    +0.000 A 
ATOM     23  C   UNL     1       1.540   7.367  20.940  0.00  0.00    +0.000 A 
ATOM     24  C   UNL     1       0.812   8.549  21.092  0.00  0.00    +0.000 A 
ATOM     25  C   UNL     1       0.766   9.477  20.052  0.00  0.00    +0.000 A 
ATOM     26  C   UNL     1       1.444   9.222  18.860  0.00  0.00    +0.000 A 
ATOM     27  C   UNL     1       2.174   8.045  18.716  0.00  0.00    +0.000 A 
ATOM     28  F   UNL     1       2.804   7.834  17.550  0.00  0.00    +0.000 F 
ENDBRANCH  19  22
ENDBRANCH  17  18
ENDBRANCH   2  17
TORSDOF 6
ENDMDL
MODEL 2
REMARK VINA RESULT:      -8.1      5.375      6.924
REMARK  Name = 
REMARK  6 active torsions:
REMARK  status: ('A' for Active; 'I' for Inactive)
REMARK    1  A    between atoms: C_2  and  C_3
REMARK    2  A    between atoms: C_3  and  N_4
REMARK    3  A    between atoms: C_5  and  C_7
REMARK    4  A    between atoms: N_14  and  N_15
REMARK    5  A    between atoms: C_16  and  C_18
REMARK    6  A    between atoms: C_23  and  O_24
REMARK                            x       y       z     vdW  Elec       q    Type
REMARK                         _______ _______ _______ _____ _____    ______ ____
ROOT
ATOM      1  O   UNL     1       7.980   5.648  20.193  0.00  0.00    +0.000 OA
ATOM      2  C   UNL     1       7.699   5.871  19.006  0.00  0.00    +0.000 C 
ATOM      3  N   UNL     1       7.986   7.062  18.375  0.00  0.00    +0.000 N 
ATOM      4  H   UNL     1       7.684   7.248  17.423  0.00  0.00    +0.000 HD
ENDROOT
BRANCH   3   5
ATOM      5  N   UNL     1       8.726   8.079  19.005  0.00  0.00    +0.000 N 
ATOM      6  C   UNL     1       8.639   9.364  18.499  0.00  0.00    +0.000 C 
ATOM      7  O   UNL     1       7.974   9.650  17.505  0.00  0.00    +0.000 OA
ATOM      8  H   UNL     1       9.475   7.830  19.656  0.00  0.00    +0.000 HD
BRANCH   6   9
ATOM      9  C   UNL     1       9.353  10.432  19.254  0.00  0.00    +0.000 A 
ATOM     10  C   UNL     1       9.008  10.621  20.605  0.00  0.00    +0.000 A 
ATOM     11  C   UNL     1       9.664  11.583  21.377  0.00  0.00    +0.000 A 
ATOM     12  C   UNL     1      10.657  12.376  20.805  0.00  0.00    +0.000 A 
ATOM     13  C   UNL     1      10.996  12.213  19.462  0.00  0.00    +0.000 A 
ATOM     14  C   UNL     1      10.349  11.240  18.693  0.00  0.00    +0.000 A 
BRANCH  14  15
ATOM     15  O   UNL     1      10.696  11.088  17.378  0.00  0.00    +0.000 OA
ATOM     16  H   UNL     1      11.618  11.375  17.259  0.00  0.00    +0.000 HD
ENDBRANCH  14  15
ENDBRANCH   6   9
ENDBRANCH   3   5
BRANCH   2  17
ATOM     17  C   UNL     1       6.931   4.850  18.152  0.00  0.00    +0.000 C 
BRANCH  17  18
ATOM     18  N   UNL     1       5.728   4.365  18.792  0.00  0.00    +0.000 N 
ATOM     19  C   UNL     1       4.493   4.863  18.449  0.00  0.00    +0.000 C 
ATOM     20  O   UNL     1       4.364   5.755  17.615  0.00  0.00    +0.000 OA
ATOM     21  H   UNL     1       5.807   3.623  19.483  0.00  0.00    +0.000 HD
BRANCH  19  22
ATOM     22  C   UNL     1       3.297   4.291  19.119  0.00  0.00    +0.000 A 
ATOM     23  C   UNL     1       3.013   2.929  18.935  0.00  0.00    +0.000 A 
ATOM     24  C   UNL     1       1.904   2.347  19.554  0.00  0.00    +0.000 A 
ATOM     25  C   UNL     1       1.066   3.125  20.354  0.00  0.00    +0.000 A 
ATOM     26  C   UNL     1       1.334   4.482  20.530  0.00  0.00    +0.000 A 
ATOM     27  C   UNL     1       2.443   5.056  19.916  0.00  0.00    +0.000 A 
ATOM     28  F   UNL     1       2.661   6.367  20.104  0.00  0.00    +0.000 F 
ENDBRANCH  19  22
ENDBRANCH  17  18
ENDBRANCH   2  17
TORSDOF 6
ENDMDL
MODEL 3
REMARK VINA RESULT:      -7.9      5.640      6.973
REMARK  Name = 
REMARK  6 active torsions:
REMARK  status: ('A' for Active; 'I' for Inactive)
REMARK    1  A    between atoms: C_2  and  C_3
REMARK    2  A    between atoms: C_3  and  N_4
REMARK    3  A    between atoms: C_5  and  C_7
REMARK    4  A    between atoms: N_14  and  N_15
REMARK    5  A    between atoms: C_16  and  C_18
REMARK    6  A    between atoms: C_23  and  O_24
REMARK                            x       y       z     vdW  Elec       q    Type
REMARK                         _______ _______ _______ _____ _____    ______ ____
ROOT
ATOM      1  O   UNL     1       7.640   6.256  18.905  0.00  0.00    +0.000 OA
ATOM      2  C   UNL     1       7.225   6.819  17.881  0.00  0.00    +0.000 C 
ATOM      3  N   UNL     1       7.598   8.095  17.520  0.00  0.00    +0.000 N 
ATOM      4  H   UNL     1       7.191   8.561  16.714  0.00  0.00    +0.000 HD
ENDROOT
BRANCH   3   5
ATOM      5  N   UNL     1       8.572   8.817  18.232  0.00  0.00    +0.000 N 
ATOM      6  C   UNL     1       8.617  10.192  18.076  0.00  0.00    +0.000 C 
ATOM      7  O   UNL     1       7.869  10.804  17.316  0.00  0.00    +0.000 OA
ATOM      8  H   UNL     1       9.358   8.320  18.658  0.00  0.00    +0.000 HD
BRANCH   6   9
ATOM      9  C   UNL     1       9.591  10.932  18.926  0.00  0.00    +0.000 A 
ATOM     10  C   UNL     1       9.290  11.077  20.292  0.00  0.00    +0.000 A 
ATOM     11  C   UNL     1      10.179  11.731  21.149  0.00  0.00    +0.000 A 
ATOM     12  C   UNL     1      11.367  12.262  20.648  0.00  0.00    +0.000 A 
ATOM     13  C   UNL     1      11.669  12.143  19.291  0.00  0.00    +0.000 A 
ATOM     14  C   UNL     1      10.785  11.475  18.436  0.00  0.00    +0.000 A 
BRANCH  14  15
ATOM     15  O   UNL     1      11.098  11.361  17.109  0.00  0.00    +0.000 OA
ATOM     16  H   UNL     1      10.722  12.120  16.630  0.00  0.00    +0.000 HD
ENDBRANCH  14  15
ENDBRANCH   6   9
ENDBRANCH   3   5
BRANCH   2  17
ATOM     17  C   UNL     1       6.191   6.155  16.958  0.00  0.00    +0.000 C 
BRANCH  17  18
ATOM     18  N   UNL     1       5.158   5.446  17.681  0.00  0.00    +0.000 N 
ATOM     19  C   UNL     1       3.920   6.011  17.884  0.00  0.00    +0.000 C 
ATOM     20  O   UNL     1       3.653   7.144  17.490  0.00  0.00    +0.000 OA
ATOM     21  H   UNL     1       5.352   4.505  18.014  0.00  0.00    +0.000 HD
BRANCH  19  22
ATOM     22  C   UNL     1       2.894   5.211  18.601  0.00  0.00    +0.000 A 
ATOM     23  C   UNL     1       2.499   5.623  19.882  0.00  0.00    +0.000 A 
ATOM     24  C   UNL     1       1.529   4.905  20.588  0.00  0.00    +0.000 A 
ATOM     25  C   UNL     1       0.956   3.766  20.022  0.00  0.00    +0.000 A 
ATOM     26  C   UNL     1       1.355   3.344  18.754  0.00  0.00    +0.000 A 
ATOM     27  C   UNL     1       2.316   4.065  18.052  0.00  0.00    +0.000 A 
ATOM     28  F   UNL     1       2.678   3.619  16.839  0.00  0.00    +0.000 F 
ENDBRANCH  19  22
ENDBRANCH  17  18
ENDBRANCH   2  17
TORSDOF 6
ENDMDL
MODEL 4
REMARK VINA RESULT:      -7.9      6.010      7.545
REMARK  Name = 
REMARK  6 active torsions:
REMARK  status: ('A' for Active; 'I' for Inactive)
REMARK    1  A    between atoms: C_2  and  C_3
REMARK    2  A    between atoms: C_3  and  N_4
REMARK    3  A    between atoms: C_5  and  C_7
REMARK    4  A    between atoms: N_14  and  N_15
REMARK    5  A    between atoms: C_16  and  C_18
REMARK    6  A    between atoms: C_23  and  O_24
REMARK                            x       y       z     vdW  Elec       q    Type
REMARK                         _______ _______ _______ _____ _____    ______ ____
ROOT
ATOM      1  O   UNL     1       7.686   7.583  16.869  0.00  0.00    +0.000 OA
ATOM      2  C   UNL     1       7.960   7.390  18.063  0.00  0.00    +0.000 C 
ATOM      3  N   UNL     1       8.591   8.328  18.851  0.00  0.00    +0.000 N 
ATOM      4  H   UNL     1       8.867   8.121  19.807  0.00  0.00    +0.000 HD
ENDROOT
BRANCH   3   5
ATOM      5  N   UNL     1       8.873   9.625  18.387  0.00  0.00    +0.000 N 
ATOM      6  C   UNL     1       9.339  10.561  19.293  0.00  0.00    +0.000 C 
ATOM      7  O   UNL     1       9.484  10.320  20.490  0.00  0.00    +0.000 OA
ATOM      8  H   UNL     1       8.522   9.921  17.473  0.00  0.00    +0.000 HD
BRANCH   6   9
ATOM      9  C   UNL     1       9.726  11.891  18.744  0.00  0.00    +0.000 A 
ATOM     10  C   UNL     1      10.526  11.914  17.588  0.00  0.00    +0.000 A 
ATOM     11  C   UNL     1      10.895  13.129  17.004  0.00  0.00    +0.000 A 
ATOM     12  C   UNL     1      10.484  14.331  17.579  0.00  0.00    +0.000 A 
ATOM     13  C   UNL     1       9.707  14.323  18.737  0.00  0.00    +0.000 A 
ATOM     14  C   UNL     1       9.326  13.106  19.313  0.00  0.00    +0.000 A 
BRANCH  14  15
ATOM     15  O   UNL     1       8.559  13.114  20.446  0.00  0.00    +0.000 OA
ATOM     16  H   UNL     1       8.432  12.198  20.748  0.00  0.00    +0.000 HD
ENDBRANCH  14  15
ENDBRANCH   6   9
ENDBRANCH   3   5
BRANCH   2  17
ATOM     17  C   UNL     1       7.678   6.044  18.749  0.00  0.00    +0.000 C 
BRANCH  17  18
ATOM     18  N   UNL     1       6.279   5.677  18.724  0.00  0.00    +0.000 N 
ATOM     19  C   UNL     1       5.773   4.881  17.722  0.00  0.00    +0.000 C 
ATOM     20  O   UNL     1       6.476   4.479  16.798  0.00  0.00    +0.000 OA
ATOM     21  H   UNL     1       5.676   5.994  19.480  0.00  0.00    +0.000 HD
BRANCH  19  22
ATOM     22  C   UNL     1       4.336   4.511  17.780  0.00  0.00    +0.000 A 
ATOM     23  C   UNL     1       3.996   3.150  17.817  0.00  0.00    +0.000 A 
ATOM     24  C   UNL     1       2.657   2.757  17.882  0.00  0.00    +0.000 A 
ATOM     25  C   UNL     1       1.648   3.721  17.902  0.00  0.00    +0.000 A 
ATOM     26  C   UNL     1       1.978   5.075  17.852  0.00  0.00    +0.000 A 
ATOM     27  C   UNL     1       3.314   5.462  17.793  0.00  0.00    +0.000 A 
ATOM     28  F   UNL     1       3.588   6.774  17.738  0.00  0.00    +0.000 F 
ENDBRANCH  19  22
ENDBRANCH  17  18
ENDBRANCH   2  17
TORSDOF 6
ENDMDL
MODEL 5
REMARK VINA RESULT:      -7.8      5.864      7.215
REMARK  Name = 
REMARK  6 active torsions:
REMARK  status: ('A' for Active; 'I' for Inactive)
REMARK    1  A    between atoms: C_2  and  C_3
REMARK    2  A    between atoms: C_3  and  N_4
REMARK    3  A    between atoms: C_5  and  C_7
REMARK    4  A    between atoms: N_14  and  N_15
REMARK    5  A    between atoms: C_16  and  C_18
REMARK    6  A    between atoms: C_23  and  O_24
REMARK                            x       y       z     vdW  Elec       q    Type
REMARK                         _______ _______ _______ _____ _____    ______ ____
ROOT
ATOM      1  O   UNL     1       8.198   6.199  18.978  0.00  0.00    +0.000 OA
ATOM      2  C   UNL     1       7.454   6.815  18.202  0.00  0.00    +0.000 C 
ATOM      3  N   UNL     1       7.624   8.148  17.893  0.00  0.00    +0.000 N 
ATOM      4  H   UNL     1       6.961   8.649  17.310  0.00  0.00    +0.000 HD
ENDROOT
BRANCH   3   5
ATOM      5  N   UNL     1       8.731   8.884  18.353  0.00  0.00    +0.000 N 
ATOM      6  C   UNL     1       8.759  10.247  18.116  0.00  0.00    +0.000 C 
ATOM      7  O   UNL     1       7.878  10.837  17.492  0.00  0.00    +0.000 OA
ATOM      8  H   UNL     1       9.582   8.391  18.636  0.00  0.00    +0.000 HD
BRANCH   6   9
ATOM      9  C   UNL     1       9.895  11.008  18.708  0.00  0.00    +0.000 A 
ATOM     10  C   UNL     1      10.797  11.629  17.825  0.00  0.00    +0.000 A 
ATOM     11  C   UNL     1      11.864  12.386  18.317  0.00  0.00    +0.000 A 
ATOM     12  C   UNL     1      12.050  12.515  19.693  0.00  0.00    +0.000 A 
ATOM     13  C   UNL     1      11.174  11.888  20.580  0.00  0.00    +0.000 A 
ATOM     14  C   UNL     1      10.098  11.143  20.086  0.00  0.00    +0.000 A 
BRANCH  14  15
ATOM     15  O   UNL     1       9.244  10.538  20.968  0.00  0.00    +0.000 OA
ATOM     16  H   UNL     1       9.625  10.587  21.862  0.00  0.00    +0.000 HD
ENDBRANCH  14  15
ENDBRANCH   6   9
ENDBRANCH   3   5
BRANCH   2  17
ATOM     17  C   UNL     1       6.220   6.152  17.569  0.00  0.00    +0.000 C 
BRANCH  17  18
ATOM     18  N   UNL     1       5.301   5.615  18.548  0.00  0.00    +0.000 N 
ATOM     19  C   UNL     1       4.202   4.883  18.161  0.00  0.00    +0.000 C 
ATOM     20  O   UNL     1       3.941   4.684  16.977  0.00  0.00    +0.000 OA
ATOM     21  H   UNL     1       5.497   5.761  19.535  0.00  0.00    +0.000 HD
BRANCH  19  22
ATOM     22  C   UNL     1       3.322   4.328  19.221  0.00  0.00    +0.000 A 
ATOM     23  C   UNL     1       2.114   4.984  19.501  0.00  0.00    +0.000 A 
ATOM     24  C   UNL     1       1.251   4.490  20.483  0.00  0.00    +0.000 A 
ATOM     25  C   UNL     1       1.595   3.344  21.199  0.00  0.00    +0.000 A 
ATOM     26  C   UNL     1       2.801   2.694  20.936  0.00  0.00    +0.000 A 
ATOM     27  C   UNL     1       3.654   3.186  19.952  0.00  0.00    +0.000 A 
ATOM     28  F   UNL     1       4.809   2.537  19.737  0.00  0.00    +0.000 F 
ENDBRANCH  19  22
ENDBRANCH  17  18
ENDBRANCH   2  17
TORSDOF 6
ENDMDL
MODEL 6
REMARK VINA RESULT:      -7.8      5.829      7.062
REMARK  Name = 
REMARK  6 active torsions:
REMARK  status: ('A' for Active; 'I' for Inactive)
REMARK    1  A    between atoms: C_2  and  C_3
REMARK    2  A    between atoms: C_3  and  N_4
REMARK    3  A    between atoms: C_5  and  C_7
REMARK    4  A    between atoms: N_14  and  N_15
REMARK    5  A    between atoms: C_16  and  C_18
REMARK    6  A    between atoms: C_23  and  O_24
REMARK                            x       y       z     vdW  Elec       q    Type
REMARK                         _______ _______ _______ _____ _____    ______ ____
ROOT
ATOM      1  O   UNL     1       7.847   6.485  18.301  0.00  0.00    +0.000 OA
ATOM      2  C   UNL     1       7.178   7.242  17.582  0.00  0.00    +0.000 C 
ATOM      3  N   UNL     1       7.442   8.588  17.455  0.00  0.00    +0.000 N 
ATOM      4  H   UNL     1       6.838   9.202  16.915  0.00  0.00    +0.000 HD
ENDROOT
BRANCH   3   5
ATOM      5  N   UNL     1       8.570   9.186  18.046  0.00  0.00    +0.000 N 
ATOM      6  C   UNL     1       8.717  10.558  17.943  0.00  0.00    +0.000 C 
ATOM      7  O   UNL     1       7.927  11.272  17.328  0.00  0.00    +0.000 OA
ATOM      8  H   UNL     1       9.360   8.601  18.331  0.00  0.00    +0.000 HD
BRANCH   6   9
ATOM      9  C   UNL     1       9.866  11.166  18.671  0.00  0.00    +0.000 A 
ATOM     10  C   UNL     1      10.949  11.638  17.908  0.00  0.00    +0.000 A 
ATOM     11  C   UNL     1      12.042  12.249  18.528  0.00  0.00    +0.000 A 
ATOM     12  C   UNL     1      12.072  12.379  19.915  0.00  0.00    +0.000 A 
ATOM     13  C   UNL     1      11.014  11.897  20.687  0.00  0.00    +0.000 A 
ATOM     14  C   UNL     1       9.914  11.299  20.064  0.00  0.00    +0.000 A 
BRANCH  14  15
ATOM     15  O   UNL     1       8.881  10.836  20.833  0.00  0.00    +0.000 OA
ATOM     16  H   UNL     1       8.056  11.264  20.546  0.00  0.00    +0.000 HD
ENDBRANCH  14  15
ENDBRANCH   6   9
ENDBRANCH   3   5
BRANCH   2  17
ATOM     17  C   UNL     1       5.936   6.747  16.823  0.00  0.00    +0.000 C 
BRANCH  17  18
ATOM     18  N   UNL     1       5.014   6.013  17.662  0.00  0.00    +0.000 N 
ATOM     19  C   UNL     1       3.726   6.455  17.854  0.00  0.00    +0.000 C 
ATOM     20  O   UNL     1       3.318   7.499  17.351  0.00  0.00    +0.000 OA
ATOM     21  H   UNL     1       5.325   5.142  18.085  0.00  0.00    +0.000 HD
BRANCH  19  22
ATOM     22  C   UNL     1       2.821   5.630  18.695  0.00  0.00    +0.000 A 
ATOM     23  C   UNL     1       2.496   6.092  19.980  0.00  0.00    +0.000 A 
ATOM     24  C   UNL     1       1.641   5.353  20.802  0.00  0.00    +0.000 A 
ATOM     25  C   UNL     1       1.112   4.145  20.349  0.00  0.00    +0.000 A 
ATOM     26  C   UNL     1       1.442   3.673  19.078  0.00  0.00    +0.000 A 
ATOM     27  C   UNL     1       2.289   4.415  18.261  0.00  0.00    +0.000 A 
ATOM     28  F   UNL     1       2.589   3.922  17.049  0.00  0.00    +0.000 F 
ENDBRANCH  19  22
ENDBRANCH  17  18
ENDBRANCH   2  17
TORSDOF 6
ENDMDL
MODEL 7
REMARK VINA RESULT:      -7.8      6.140      7.596
REMARK  Name = 
REMARK  6 active torsions:
REMARK  status: ('A' for Active; 'I' for Inactive)
REMARK    1  A    between atoms: C_2  and  C_3
REMARK    2  A    between atoms: C_3  and  N_4
REMARK    3  A    between atoms: C_5  and  C_7
REMARK    4  A    between atoms: N_14  and  N_15
REMARK    5  A    between atoms: C_16  and  C_18
REMARK    6  A    between atoms: C_23  and  O_24
REMARK                            x       y       z     vdW  Elec       q    Type
REMARK                         _______ _______ _______ _____ _____    ______ ____
ROOT
ATOM      1  O   UNL     1       7.388   7.847  16.862  0.00  0.00    +0.000 OA
ATOM      2  C   UNL     1       7.870   7.612  17.979  0.00  0.00    +0.000 C 
ATOM      3  N   UNL     1       8.624   8.526  18.682  0.00  0.00    +0.000 N 
ATOM      4  H   UNL     1       9.067   8.286  19.565  0.00  0.00    +0.000 HD
ENDROOT
BRANCH   3   5
ATOM      5  N   UNL     1       8.809   9.845  18.230  0.00  0.00    +0.000 N 
ATOM      6  C   UNL     1       9.470  10.737  19.056  0.00  0.00    +0.000 C 
ATOM      7  O   UNL     1       9.871  10.439  20.179  0.00  0.00    +0.000 OA
ATOM      8  H   UNL     1       8.268  10.185  17.430  0.00  0.00    +0.000 HD
BRANCH   6   9
ATOM      9  C   UNL     1       9.739  12.093  18.500  0.00  0.00    +0.000 A 
ATOM     10  C   UNL     1       8.779  13.096  18.727  0.00  0.00    +0.000 A 
ATOM     11  C   UNL     1       8.987  14.396  18.261  0.00  0.00    +0.000 A 
ATOM     12  C   UNL     1      10.146  14.704  17.551  0.00  0.00    +0.000 A 
ATOM     13  C   UNL     1      11.098  13.715  17.302  0.00  0.00    +0.000 A 
ATOM     14  C   UNL     1      10.895  12.417  17.781  0.00  0.00    +0.000 A 
BRANCH  14  15
ATOM     15  O   UNL     1      11.841  11.458  17.534  0.00  0.00    +0.000 OA
ATOM     16  H   UNL     1      12.516  11.492  18.233  0.00  0.00    +0.000 HD
ENDBRANCH  14  15
ENDBRANCH   6   9
ENDBRANCH   3   5
BRANCH   2  17
ATOM     17  C   UNL     1       7.725   6.235  18.647  0.00  0.00    +0.000 C 
BRANCH  17  18
ATOM     18  N   UNL     1       6.347   5.838  18.835  0.00  0.00    +0.000 N 
ATOM     19  C   UNL     1       5.752   4.925  17.995  0.00  0.00    +0.000 C 
ATOM     20  O   UNL     1       6.353   4.436  17.041  0.00  0.00    +0.000 OA
ATOM     21  H   UNL     1       5.829   6.224  19.620  0.00  0.00    +0.000 HD
BRANCH  19  22
ATOM     22  C   UNL     1       4.346   4.533  18.270  0.00  0.00    +0.000 A 
ATOM     23  C   UNL     1       3.315   5.302  17.709  0.00  0.00    +0.000 A 
ATOM     24  C   UNL     1       1.978   4.964  17.933  0.00  0.00    +0.000 A 
ATOM     25  C   UNL     1       1.663   3.861  18.727  0.00  0.00    +0.000 A 
ATOM     26  C   UNL     1       2.682   3.101  19.299  0.00  0.00    +0.000 A 
ATOM     27  C   UNL     1       4.013   3.438  19.068  0.00  0.00    +0.000 A 
ATOM     28  F   UNL     1       4.963   2.686  19.644  0.00  0.00    +0.000 F 
ENDBRANCH  19  22
ENDBRANCH  17  18
ENDBRANCH   2  17
TORSDOF 6
ENDMDL
MODEL 8
REMARK VINA RESULT:      -7.8      6.128      7.650
REMARK  Name = 
REMARK  6 active torsions:
REMARK  status: ('A' for Active; 'I' for Inactive)
REMARK    1  A    between atoms: C_2  and  C_3
REMARK    2  A    between atoms: C_3  and  N_4
REMARK    3  A    between atoms: C_5  and  C_7
REMARK    4  A    between atoms: N_14  and  N_15
REMARK    5  A    between atoms: C_16  and  C_18
REMARK    6  A    between atoms: C_23  and  O_24
REMARK                            x       y       z     vdW  Elec       q    Type
REMARK                         _______ _______ _______ _____ _____    ______ ____
ROOT
ATOM      1  O   UNL     1       7.420   7.686  17.023  0.00  0.00    +0.000 OA
ATOM      2  C   UNL     1       7.887   7.422  18.141  0.00  0.00    +0.000 C 
ATOM      3  N   UNL     1       8.665   8.303  18.859  0.00  0.00    +0.000 N 
ATOM      4  H   UNL     1       9.094   8.038  19.742  0.00  0.00    +0.000 HD
ENDROOT
BRANCH   3   5
ATOM      5  N   UNL     1       8.897   9.620  18.423  0.00  0.00    +0.000 N 
ATOM      6  C   UNL     1       9.305  10.558  19.355  0.00  0.00    +0.000 C 
ATOM      7  O   UNL     1       9.439  10.302  20.550  0.00  0.00    +0.000 OA
ATOM      8  H   UNL     1       8.548   9.917  17.509  0.00  0.00    +0.000 HD
BRANCH   6   9
ATOM      9  C   UNL     1       9.641  11.915  18.837  0.00  0.00    +0.000 A 
ATOM     10  C   UNL     1      10.348  11.996  17.624  0.00  0.00    +0.000 A 
ATOM     11  C   UNL     1      10.664  13.238  17.068  0.00  0.00    +0.000 A 
ATOM     12  C   UNL     1      10.293  14.410  17.726  0.00  0.00    +0.000 A 
ATOM     13  C   UNL     1       9.608  14.345  18.939  0.00  0.00    +0.000 A 
ATOM     14  C   UNL     1       9.279  13.100  19.488  0.00  0.00    +0.000 A 
BRANCH  14  15
ATOM     15  O   UNL     1       8.603  13.052  20.677  0.00  0.00    +0.000 OA
ATOM     16  H   UNL     1       8.022  12.272  20.679  0.00  0.00    +0.000 HD
ENDBRANCH  14  15
ENDBRANCH   6   9
ENDBRANCH   3   5
BRANCH   2  17
ATOM     17  C   UNL     1       7.692   6.043  18.792  0.00  0.00    +0.000 C 
BRANCH  17  18
ATOM     18  N   UNL     1       6.300   5.668  18.920  0.00  0.00    +0.000 N 
ATOM     19  C   UNL     1       5.737   4.739  18.076  0.00  0.00    +0.000 C 
ATOM     20  O   UNL     1       6.379   4.216  17.168  0.00  0.00    +0.000 OA
ATOM     21  H   UNL     1       5.748   6.082  19.667  0.00  0.00    +0.000 HD
BRANCH  19  22
ATOM     22  C   UNL     1       4.314   4.372  18.289  0.00  0.00    +0.000 A 
ATOM     23  C   UNL     1       3.323   5.140  17.660  0.00  0.00    +0.000 A 
ATOM     24  C   UNL     1       1.972   4.824  17.824  0.00  0.00    +0.000 A 
ATOM     25  C   UNL     1       1.602   3.745  18.627  0.00  0.00    +0.000 A 
ATOM     26  C   UNL     1       2.581   2.986  19.267  0.00  0.00    +0.000 A 
ATOM     27  C   UNL     1       3.926   3.300  19.095  0.00  0.00    +0.000 A 
ATOM     28  F   UNL     1       4.836   2.551  19.736  0.00  0.00    +0.000 F 
ENDBRANCH  19  22
ENDBRANCH  17  18
ENDBRANCH   2  17
TORSDOF 6
ENDMDL
MODEL 9
REMARK VINA RESULT:      -7.7      3.234      7.685
REMARK  Name = 
REMARK  6 active torsions:
REMARK  status: ('A' for Active; 'I' for Inactive)
REMARK    1  A    between atoms: C_2  and  C_3
REMARK    2  A    between atoms: C_3  and  N_4
REMARK    3  A    between atoms: C_5  and  C_7
REMARK    4  A    between atoms: N_14  and  N_15
REMARK    5  A    between atoms: C_16  and  C_18
REMARK    6  A    between atoms: C_23  and  O_24
REMARK                            x       y       z     vdW  Elec       q    Type
REMARK                         _______ _______ _______ _____ _____    ______ ____
ROOT
ATOM      1  O   UNL     1       7.080   5.470  19.425  0.00  0.00    +0.000 OA
ATOM      2  C   UNL     1       6.624   6.027  18.416  0.00  0.00    +0.000 C 
ATOM      3  N   UNL     1       5.284   6.021  18.093  0.00  0.00    +0.000 N 
ATOM      4  H   UNL     1       4.943   6.424  17.225  0.00  0.00    +0.000 HD
ENDROOT
BRANCH   3   5
ATOM      5  N   UNL     1       4.313   5.473  18.951  0.00  0.00    +0.000 N 
ATOM      6  C   UNL     1       3.630   4.344  18.534  0.00  0.00    +0.000 C 
ATOM      7  O   UNL     1       3.808   3.820  17.437  0.00  0.00    +0.000 OA
ATOM      8  H   UNL     1       3.965   6.027  19.738  0.00  0.00    +0.000 HD
BRANCH   6   9
ATOM      9  C   UNL     1       2.686   3.733  19.512  0.00  0.00    +0.000 A 
ATOM     10  C   UNL     1       3.127   3.578  20.839  0.00  0.00    +0.000 A 
ATOM     11  C   UNL     1       2.278   3.043  21.811  0.00  0.00    +0.000 A 
ATOM     12  C   UNL     1       0.989   2.642  21.465  0.00  0.00    +0.000 A 
ATOM     13  C   UNL     1       0.545   2.772  20.149  0.00  0.00    +0.000 A 
ATOM     14  C   UNL     1       1.390   3.321  19.179  0.00  0.00    +0.000 A 
BRANCH  14  15
ATOM     15  O   UNL     1       0.939   3.447  17.893  0.00  0.00    +0.000 OA
ATOM     16  H   UNL     1       1.624   3.122  17.284  0.00  0.00    +0.000 HD
ENDBRANCH  14  15
ENDBRANCH   6   9
ENDBRANCH   3   5
BRANCH   2  17
ATOM     17  C   UNL     1       7.538   6.717  17.391  0.00  0.00    +0.000 C 
BRANCH  17  18
ATOM     18  N   UNL     1       7.274   6.307  16.029  0.00  0.00    +0.000 N 
ATOM     19  C   UNL     1       7.438   4.997  15.640  0.00  0.00    +0.000 C 
ATOM     20  O   UNL     1       7.842   4.137  16.418  0.00  0.00    +0.000 OA
ATOM     21  H   UNL     1       6.934   6.999  15.367  0.00  0.00    +0.000 HD
BRANCH  19  22
ATOM     22  C   UNL     1       7.110   4.638  14.237  0.00  0.00    +0.000 A 
ATOM     23  C   UNL     1       6.017   3.791  14.000  0.00  0.00    +0.000 A 
ATOM     24  C   UNL     1       5.667   3.435  12.695  0.00  0.00    +0.000 A 
ATOM     25  C   UNL     1       6.413   3.916  11.618  0.00  0.00    +0.000 A 
ATOM     26  C   UNL     1       7.509   4.748  11.847  0.00  0.00    +0.000 A 
ATOM     27  C   UNL     1       7.850   5.104  13.149  0.00  0.00    +0.000 A 
ATOM     28  F   UNL     1       8.917   5.899  13.326  0.00  0.00    +0.000 F 
ENDBRANCH  19  22
ENDBRANCH  17  18
ENDBRANCH   2  17
TORSDOF 6
ENDMDL
