MODEL 1
REMARK VINA RESULT:      -7.8      0.000      0.000
REMARK  Name = 
REMARK  11 active torsions:
REMARK  status: ('A' for Active; 'I' for Inactive)
REMARK    1  A    between atoms: C_1  and  O_2
REMARK    2  A    between atoms: O_2  and  C_3
REMARK    3  A    between atoms: C_5  and  C_6
REMARK    4  A    between atoms: C_6  and  C_8
REMARK    5  A    between atoms: C_10  and  C_11
REMARK    6  A    between atoms: C_13  and  C_14
REMARK    7  A    between atoms: C_17  and  C_18
REMARK    8  A    between atoms: C_23  and  O_24
REMARK    9  A    between atoms: O_24  and  C_25
REMARK   10  A    between atoms: C_26  and  O_27
REMARK   11  A    between atoms: O_27  and  C_28
REMARK                            x       y       z     vdW  Elec       q    Type
REMARK                         _______ _______ _______ _____ _____    ______ ____
ROOT
ATOM      1  C   UNL     1      -0.666  11.671  18.901  0.00  0.00    +0.000 C 
ATOM      2  O   UNL     1       0.060  12.563  18.465  0.00  0.00    +0.000 OA
ENDROOT
BRANCH   1   3
ATOM      3  C   UNL     1      -0.092  10.568  19.737  0.00  0.00    +0.000 A 
ATOM      4  C   UNL     1      -0.385  10.538  21.094  0.00  0.00    +0.000 A 
ATOM      5  C   UNL     1       0.206   9.549  21.875  0.00  0.00    +0.000 A 
ATOM      6  C   UNL     1      -0.005   9.476  23.356  0.00  0.00    +0.000 C 
ATOM      7  C   UNL     1       1.042   8.617  21.252  0.00  0.00    +0.000 A 
ATOM      8  C   UNL     1       1.294   8.698  19.882  0.00  0.00    +0.000 A 
ATOM      9  N   UNL     1       0.728   9.671  19.121  0.00  0.00    +0.000 NA
BRANCH   8  10
ATOM     10  C   UNL     1       2.193   7.741  19.191  0.00  0.00    +0.000 A 
ATOM     11  C   UNL     1       2.840   8.074  17.990  0.00  0.00    +0.000 A 
ATOM     12  C   UNL     1       3.646   7.148  17.308  0.00  0.00    +0.000 A 
ATOM     13  C   UNL     1       3.831   5.858  17.813  0.00  0.00    +0.000 A 
ATOM     14  C   UNL     1       4.668   4.845  17.092  0.00  0.00    +0.000 C 
ATOM     15  C   UNL     1       3.219   5.518  19.021  0.00  0.00    +0.000 A 
ATOM     16  C   UNL     1       2.422   6.447  19.699  0.00  0.00    +0.000 A 
ENDBRANCH   8  10
ENDBRANCH   1   3
BRANCH   1  19
ATOM     17  C   UNL     1      -4.385  12.330  19.142  0.00  0.00    +0.000 A 
ATOM     18  C   UNL     1      -3.039  12.175  19.492  0.00  0.00    +0.000 A 
ATOM     19  C   UNL     1      -2.119  11.678  18.577  0.00  0.00    +0.000 A 
ATOM     20  C   UNL     1      -2.569  11.180  17.360  0.00  0.00    +0.000 A 
ATOM     21  C   UNL     1      -3.934  11.234  17.023  0.00  0.00    +0.000 A 
ATOM     22  C   UNL     1      -4.864  11.819  17.917  0.00  0.00    +0.000 A 
BRANCH  17  24
ATOM     23  C   UNL     1      -5.960  12.089  20.891  0.00  0.00    +0.000 C 
ATOM     24  O   UNL     1      -5.234  12.962  20.018  0.00  0.00    +0.000 OA
ENDBRANCH  17  24
BRANCH  21  25
ATOM     25  O   UNL     1      -4.164  10.693  15.782  0.00  0.00    +0.000 OA
ATOM     26  C   UNL     1      -3.068  10.309  14.968  0.00  0.00    +0.000 C 
ENDBRANCH  21  25
BRANCH  22  27
ATOM     27  O   UNL     1      -6.172  11.817  17.513  0.00  0.00    +0.000 OA
ATOM     28  C   UNL     1      -6.778  12.996  17.008  0.00  0.00    +0.000 C 
ENDBRANCH  22  27
ENDBRANCH   1  19
TORSDOF 6
ENDMDL
MODEL 2
REMARK VINA RESULT:      -7.8      5.476     10.055
REMARK  Name = 
REMARK  11 active torsions:
REMARK  status: ('A' for Active; 'I' for Inactive)
REMARK    1  A    between atoms: C_1  and  O_2
REMARK    2  A    between atoms: O_2  and  C_3
REMARK    3  A    between atoms: C_5  and  C_6
REMARK    4  A    between atoms: C_6  and  C_8
REMARK    5  A    between atoms: C_10  and  C_11
REMARK    6  A    between atoms: C_13  and  C_14
REMARK    7  A    between atoms: C_17  and  C_18
REMARK    8  A    between atoms: C_23  and  O_24
REMARK    9  A    between atoms: O_24  and  C_25
REMARK   10  A    between atoms: C_26  and  O_27
REMARK   11  A    between atoms: O_27  and  C_28
REMARK                            x       y       z     vdW  Elec       q    Type
REMARK                         _______ _______ _______ _____ _____    ______ ____
ROOT
ATOM      1  C   UNL     1       3.345   3.823  17.036  0.00  0.00    +0.000 C 
ATOM      2  O   UNL     1       2.651   2.940  16.535  0.00  0.00    +0.000 OA
ENDROOT
BRANCH   1   3
ATOM      3  C   UNL     1       2.929   4.480  18.316  0.00  0.00    +0.000 A 
ATOM      4  C   UNL     1       2.826   3.704  19.462  0.00  0.00    +0.000 A 
ATOM      5  C   UNL     1       2.373   4.310  20.631  0.00  0.00    +0.000 A 
ATOM      6  C   UNL     1       2.176   3.537  21.898  0.00  0.00    +0.000 C 
ATOM      7  C   UNL     1       2.072   5.675  20.603  0.00  0.00    +0.000 A 
ATOM      8  C   UNL     1       2.199   6.403  19.418  0.00  0.00    +0.000 A 
ATOM      9  N   UNL     1       2.628   5.810  18.274  0.00  0.00    +0.000 NA
BRANCH   8  10
ATOM     10  C   UNL     1       1.867   7.847  19.345  0.00  0.00    +0.000 A 
ATOM     11  C   UNL     1       1.264   8.518  20.421  0.00  0.00    +0.000 A 
ATOM     12  C   UNL     1       0.899   9.872  20.331  0.00  0.00    +0.000 A 
ATOM     13  C   UNL     1       1.132  10.594  19.158  0.00  0.00    +0.000 A 
ATOM     14  C   UNL     1       0.731  12.033  19.029  0.00  0.00    +0.000 C 
ATOM     15  C   UNL     1       1.757   9.951  18.088  0.00  0.00    +0.000 A 
ATOM     16  C   UNL     1       2.123   8.604  18.186  0.00  0.00    +0.000 A 
ENDBRANCH   8  10
ENDBRANCH   1   3
BRANCH   1  19
ATOM     17  C   UNL     1       6.152   4.038  14.505  0.00  0.00    +0.000 A 
ATOM     18  C   UNL     1       5.069   3.556  15.250  0.00  0.00    +0.000 A 
ATOM     19  C   UNL     1       4.595   4.256  16.352  0.00  0.00    +0.000 A 
ATOM     20  C   UNL     1       5.302   5.359  16.815  0.00  0.00    +0.000 A 
ATOM     21  C   UNL     1       6.453   5.808  16.140  0.00  0.00    +0.000 A 
ATOM     22  C   UNL     1       6.891   5.148  14.965  0.00  0.00    +0.000 A 
BRANCH  17  24
ATOM     23  C   UNL     1       5.465   3.350  12.349  0.00  0.00    +0.000 C 
ATOM     24  O   UNL     1       6.498   3.400  13.339  0.00  0.00    +0.000 OA
ENDBRANCH  17  24
BRANCH  21  25
ATOM     25  O   UNL     1       6.997   6.908  16.757  0.00  0.00    +0.000 OA
ATOM     26  C   UNL     1       7.682   6.757  17.990  0.00  0.00    +0.000 C 
ENDBRANCH  21  25
BRANCH  22  27
ATOM     27  O   UNL     1       8.026   5.645  14.383  0.00  0.00    +0.000 OA
ATOM     28  C   UNL     1       8.148   5.713  12.972  0.00  0.00    +0.000 C 
ENDBRANCH  22  27
ENDBRANCH   1  19
TORSDOF 6
ENDMDL
MODEL 3
REMARK VINA RESULT:      -7.7      0.639      2.516
REMARK  Name = 
REMARK  11 active torsions:
REMARK  status: ('A' for Active; 'I' for Inactive)
REMARK    1  A    between atoms: C_1  and  O_2
REMARK    2  A    between atoms: O_2  and  C_3
REMARK    3  A    between atoms: C_5  and  C_6
REMARK    4  A    between atoms: C_6  and  C_8
REMARK    5  A    between atoms: C_10  and  C_11
REMARK    6  A    between atoms: C_13  and  C_14
REMARK    7  A    between atoms: C_17  and  C_18
REMARK    8  A    between atoms: C_23  and  O_24
REMARK    9  A    between atoms: O_24  and  C_25
REMARK   10  A    between atoms: C_26  and  O_27
REMARK   11  A    between atoms: O_27  and  C_28
REMARK                            x       y       z     vdW  Elec       q    Type
REMARK                         _______ _______ _______ _____ _____    ______ ____
ROOT
ATOM      1  C   UNL     1      -0.332  11.679  18.965  0.00  0.00    +0.000 C 
ATOM      2  O   UNL     1       0.455  12.523  18.540  0.00  0.00    +0.000 OA
ENDROOT
BRANCH   1   3
ATOM      3  C   UNL     1       0.160  10.531  19.791  0.00  0.00    +0.000 A 
ATOM      4  C   UNL     1      -0.152  10.500  21.144  0.00  0.00    +0.000 A 
ATOM      5  C   UNL     1       0.366   9.464  21.917  0.00  0.00    +0.000 A 
ATOM      6  C   UNL     1       0.131   9.385  23.394  0.00  0.00    +0.000 C 
ATOM      7  C   UNL     1       1.149   8.491  21.291  0.00  0.00    +0.000 A 
ATOM      8  C   UNL     1       1.424   8.575  19.925  0.00  0.00    +0.000 A 
ATOM      9  N   UNL     1       0.930   9.592  19.171  0.00  0.00    +0.000 NA
BRANCH   8  10
ATOM     10  C   UNL     1       2.270   7.573  19.231  0.00  0.00    +0.000 A 
ATOM     11  C   UNL     1       2.953   7.882  18.044  0.00  0.00    +0.000 A 
ATOM     12  C   UNL     1       3.709   6.917  17.358  0.00  0.00    +0.000 A 
ATOM     13  C   UNL     1       3.804   5.611  17.845  0.00  0.00    +0.000 A 
ATOM     14  C   UNL     1       4.585   4.556  17.119  0.00  0.00    +0.000 C 
ATOM     15  C   UNL     1       3.155   5.293  19.039  0.00  0.00    +0.000 A 
ATOM     16  C   UNL     1       2.409   6.260  19.722  0.00  0.00    +0.000 A 
ENDBRANCH   8  10
ENDBRANCH   1   3
BRANCH   1  19
ATOM     17  C   UNL     1      -3.628  11.303  17.143  0.00  0.00    +0.000 A 
ATOM     18  C   UNL     1      -2.255  11.349  17.407  0.00  0.00    +0.000 A 
ATOM     19  C   UNL     1      -1.780  11.790  18.636  0.00  0.00    +0.000 A 
ATOM     20  C   UNL     1      -2.669  12.341  19.551  0.00  0.00    +0.000 A 
ATOM     21  C   UNL     1      -4.047  12.398  19.270  0.00  0.00    +0.000 A 
ATOM     22  C   UNL     1      -4.545  11.870  18.053  0.00  0.00    +0.000 A 
BRANCH  17  24
ATOM     23  C   UNL     1      -3.031  10.366  15.054  0.00  0.00    +0.000 C 
ATOM     24  O   UNL     1      -4.066  10.724  15.977  0.00  0.00    +0.000 OA
ENDBRANCH  17  24
BRANCH  21  25
ATOM     25  O   UNL     1      -4.744  12.975  20.302  0.00  0.00    +0.000 OA
ATOM     26  C   UNL     1      -4.423  12.639  21.643  0.00  0.00    +0.000 C 
ENDBRANCH  21  25
BRANCH  22  27
ATOM     27  O   UNL     1      -5.896  11.979  17.858  0.00  0.00    +0.000 OA
ATOM     28  C   UNL     1      -6.780  10.970  18.319  0.00  0.00    +0.000 C 
ENDBRANCH  22  27
ENDBRANCH   1  19
TORSDOF 6
ENDMDL
MODEL 4
REMARK VINA RESULT:      -7.7      5.574      9.861
REMARK  Name = 
REMARK  11 active torsions:
REMARK  status: ('A' for Active; 'I' for Inactive)
REMARK    1  A    between atoms: C_1  and  O_2
REMARK    2  A    between atoms: O_2  and  C_3
REMARK    3  A    between atoms: C_5  and  C_6
REMARK    4  A    between atoms: C_6  and  C_8
REMARK    5  A    between atoms: C_10  and  C_11
REMARK    6  A    between atoms: C_13  and  C_14
REMARK    7  A    between atoms: C_17  and  C_18
REMARK    8  A    between atoms: C_23  and  O_24
REMARK    9  A    between atoms: O_24  and  C_25
REMARK   10  A    between atoms: C_26  and  O_27
REMARK   11  A    between atoms: O_27  and  C_28
REMARK                            x       y       z     vdW  Elec       q    Type
REMARK                         _______ _______ _______ _____ _____    ______ ____
ROOT
ATOM      1  C   UNL     1       3.461   3.827  16.888  0.00  0.00    +0.000 C 
ATOM      2  O   UNL     1       2.779   2.915  16.426  0.00  0.00    +0.000 OA
ENDROOT
BRANCH   1   3
ATOM      3  C   UNL     1       3.059   4.504  18.163  0.00  0.00    +0.000 A 
ATOM      4  C   UNL     1       2.978   3.746  19.323  0.00  0.00    +0.000 A 
ATOM      5  C   UNL     1       2.539   4.368  20.488  0.00  0.00    +0.000 A 
ATOM      6  C   UNL     1       2.363   3.615  21.771  0.00  0.00    +0.000 C 
ATOM      7  C   UNL     1       2.229   5.730  20.442  0.00  0.00    +0.000 A 
ATOM      8  C   UNL     1       2.335   6.440  19.244  0.00  0.00    +0.000 A 
ATOM      9  N   UNL     1       2.751   5.831  18.103  0.00  0.00    +0.000 NA
BRANCH   8  10
ATOM     10  C   UNL     1       1.993   7.880  19.152  0.00  0.00    +0.000 A 
ATOM     11  C   UNL     1       1.363   8.556  20.210  0.00  0.00    +0.000 A 
ATOM     12  C   UNL     1       0.990   9.906  20.102  0.00  0.00    +0.000 A 
ATOM     13  C   UNL     1       1.242  10.621  18.928  0.00  0.00    +0.000 A 
ATOM     14  C   UNL     1       0.833  12.056  18.779  0.00  0.00    +0.000 C 
ATOM     15  C   UNL     1       1.893   9.973  17.876  0.00  0.00    +0.000 A 
ATOM     16  C   UNL     1       2.268   8.631  17.992  0.00  0.00    +0.000 A 
ENDBRANCH   8  10
ENDBRANCH   1   3
BRANCH   1  19
ATOM     17  C   UNL     1       6.710   5.605  16.104  0.00  0.00    +0.000 A 
ATOM     18  C   UNL     1       5.482   5.280  16.694  0.00  0.00    +0.000 A 
ATOM     19  C   UNL     1       4.681   4.277  16.162  0.00  0.00    +0.000 A 
ATOM     20  C   UNL     1       5.025   3.704  14.944  0.00  0.00    +0.000 A 
ATOM     21  C   UNL     1       6.206   4.084  14.279  0.00  0.00    +0.000 A 
ATOM     22  C   UNL     1       7.070   5.044  14.861  0.00  0.00    +0.000 A 
BRANCH  17  24
ATOM     23  C   UNL     1       6.876   7.484  17.531  0.00  0.00    +0.000 C 
ATOM     24  O   UNL     1       7.542   6.494  16.740  0.00  0.00    +0.000 OA
ENDBRANCH  17  24
BRANCH  21  25
ATOM     25  O   UNL     1       6.358   3.398  13.099  0.00  0.00    +0.000 OA
ATOM     26  C   UNL     1       5.274   3.318  12.188  0.00  0.00    +0.000 C 
ENDBRANCH  21  25
BRANCH  22  27
ATOM     27  O   UNL     1       8.190   5.362  14.139  0.00  0.00    +0.000 OA
ATOM     28  C   UNL     1       8.088   5.781  12.788  0.00  0.00    +0.000 C 
ENDBRANCH  22  27
ENDBRANCH   1  19
TORSDOF 6
ENDMDL
MODEL 5
REMARK VINA RESULT:      -7.5      3.574      8.795
REMARK  Name = 
REMARK  11 active torsions:
REMARK  status: ('A' for Active; 'I' for Inactive)
REMARK    1  A    between atoms: C_1  and  O_2
REMARK    2  A    between atoms: O_2  and  C_3
REMARK    3  A    between atoms: C_5  and  C_6
REMARK    4  A    between atoms: C_6  and  C_8
REMARK    5  A    between atoms: C_10  and  C_11
REMARK    6  A    between atoms: C_13  and  C_14
REMARK    7  A    between atoms: C_17  and  C_18
REMARK    8  A    between atoms: C_23  and  O_24
REMARK    9  A    between atoms: O_24  and  C_25
REMARK   10  A    between atoms: C_26  and  O_27
REMARK   11  A    between atoms: O_27  and  C_28
REMARK                            x       y       z     vdW  Elec       q    Type
REMARK                         _______ _______ _______ _____ _____    ______ ____
ROOT
ATOM      1  C   UNL     1       2.492   8.249  17.861  0.00  0.00    +0.000 C 
ATOM      2  O   UNL     1       2.952   8.929  16.946  0.00  0.00    +0.000 OA
ENDROOT
BRANCH   1   3
ATOM      3  C   UNL     1       1.513   8.841  18.828  0.00  0.00    +0.000 A 
ATOM      4  C   UNL     1       1.779   8.749  20.187  0.00  0.00    +0.000 A 
ATOM      5  C   UNL     1       0.831   9.242  21.080  0.00  0.00    +0.000 A 
ATOM      6  C   UNL     1       1.007   9.131  22.563  0.00  0.00    +0.000 C 
ATOM      7  C   UNL     1      -0.327   9.832  20.567  0.00  0.00    +0.000 A 
ATOM      8  C   UNL     1      -0.535   9.898  19.188  0.00  0.00    +0.000 A 
ATOM      9  N   UNL     1       0.382   9.406  18.315  0.00  0.00    +0.000 NA
BRANCH   8  10
ATOM     10  C   UNL     1      -1.762  10.497  18.607  0.00  0.00    +0.000 A 
ATOM     11  C   UNL     1      -2.401  11.594  19.208  0.00  0.00    +0.000 A 
ATOM     12  C   UNL     1      -3.594  12.125  18.689  0.00  0.00    +0.000 A 
ATOM     13  C   UNL     1      -4.180  11.572  17.548  0.00  0.00    +0.000 A 
ATOM     14  C   UNL     1      -5.465  12.106  16.988  0.00  0.00    +0.000 C 
ATOM     15  C   UNL     1      -3.544  10.500  16.920  0.00  0.00    +0.000 A 
ATOM     16  C   UNL     1      -2.353   9.979  17.438  0.00  0.00    +0.000 A 
ENDBRANCH   8  10
ENDBRANCH   1   3
BRANCH   1  19
ATOM     17  C   UNL     1       4.717   5.202  18.164  0.00  0.00    +0.000 A 
ATOM     18  C   UNL     1       4.267   6.494  17.867  0.00  0.00    +0.000 A 
ATOM     19  C   UNL     1       2.929   6.835  18.021  0.00  0.00    +0.000 A 
ATOM     20  C   UNL     1       2.003   5.842  18.318  0.00  0.00    +0.000 A 
ATOM     21  C   UNL     1       2.416   4.513  18.526  0.00  0.00    +0.000 A 
ATOM     22  C   UNL     1       3.791   4.178  18.455  0.00  0.00    +0.000 A 
BRANCH  17  24
ATOM     23  C   UNL     1       6.587   4.560  16.866  0.00  0.00    +0.000 C 
ATOM     24  O   UNL     1       6.065   4.942  18.144  0.00  0.00    +0.000 OA
ENDBRANCH  17  24
BRANCH  21  25
ATOM     25  O   UNL     1       1.349   3.697  18.809  0.00  0.00    +0.000 OA
ATOM     26  C   UNL     1       0.870   3.600  20.140  0.00  0.00    +0.000 C 
ENDBRANCH  21  25
BRANCH  22  27
ATOM     27  O   UNL     1       4.100   2.859  18.658  0.00  0.00    +0.000 OA
ATOM     28  C   UNL     1       4.440   2.384  19.950  0.00  0.00    +0.000 C 
ENDBRANCH  22  27
ENDBRANCH   1  19
TORSDOF 6
ENDMDL
MODEL 6
REMARK VINA RESULT:      -7.3      3.480      8.671
REMARK  Name = 
REMARK  11 active torsions:
REMARK  status: ('A' for Active; 'I' for Inactive)
REMARK    1  A    between atoms: C_1  and  O_2
REMARK    2  A    between atoms: O_2  and  C_3
REMARK    3  A    between atoms: C_5  and  C_6
REMARK    4  A    between atoms: C_6  and  C_8
REMARK    5  A    between atoms: C_10  and  C_11
REMARK    6  A    between atoms: C_13  and  C_14
REMARK    7  A    between atoms: C_17  and  C_18
REMARK    8  A    between atoms: C_23  and  O_24
REMARK    9  A    between atoms: O_24  and  C_25
REMARK   10  A    between atoms: C_26  and  O_27
REMARK   11  A    between atoms: O_27  and  C_28
REMARK                            x       y       z     vdW  Elec       q    Type
REMARK                         _______ _______ _______ _____ _____    ______ ____
ROOT
ATOM      1  C   UNL     1       2.363   8.519  17.940  0.00  0.00    +0.000 C 
ATOM      2  O   UNL     1       2.828   9.252  17.069  0.00  0.00    +0.000 OA
ENDROOT
BRANCH   1   3
ATOM      3  C   UNL     1       1.363   9.047  18.922  0.00  0.00    +0.000 A 
ATOM      4  C   UNL     1       1.645   8.951  20.278  0.00  0.00    +0.000 A 
ATOM      5  C   UNL     1       0.680   9.383  21.184  0.00  0.00    +0.000 A 
ATOM      6  C   UNL     1       0.873   9.263  22.664  0.00  0.00    +0.000 C 
ATOM      7  C   UNL     1      -0.512   9.918  20.687  0.00  0.00    +0.000 A 
ATOM      8  C   UNL     1      -0.734   9.991  19.311  0.00  0.00    +0.000 A 
ATOM      9  N   UNL     1       0.201   9.558  18.425  0.00  0.00    +0.000 NA
BRANCH   8  10
ATOM     10  C   UNL     1      -1.995  10.533  18.748  0.00  0.00    +0.000 A 
ATOM     11  C   UNL     1      -2.574   9.993  17.587  0.00  0.00    +0.000 A 
ATOM     12  C   UNL     1      -3.738  10.541  17.023  0.00  0.00    +0.000 A 
ATOM     13  C   UNL     1      -4.359  11.647  17.609  0.00  0.00    +0.000 A 
ATOM     14  C   UNL     1      -5.589  12.264  17.013  0.00  0.00    +0.000 C 
ATOM     15  C   UNL     1      -3.814  12.179  18.779  0.00  0.00    +0.000 A 
ATOM     16  C   UNL     1      -2.659  11.625  19.340  0.00  0.00    +0.000 A 
ENDBRANCH   8  10
ENDBRANCH   1   3
BRANCH   1  19
ATOM     17  C   UNL     1       4.615   5.477  17.999  0.00  0.00    +0.000 A 
ATOM     18  C   UNL     1       4.140   6.773  17.768  0.00  0.00    +0.000 A 
ATOM     19  C   UNL     1       2.817   7.103  18.031  0.00  0.00    +0.000 A 
ATOM     20  C   UNL     1       1.919   6.099  18.374  0.00  0.00    +0.000 A 
ATOM     21  C   UNL     1       2.351   4.767  18.517  0.00  0.00    +0.000 A 
ATOM     22  C   UNL     1       3.718   4.441  18.334  0.00  0.00    +0.000 A 
BRANCH  17  24
ATOM     23  C   UNL     1       6.735   5.465  19.049  0.00  0.00    +0.000 C 
ATOM     24  O   UNL     1       5.960   5.225  17.870  0.00  0.00    +0.000 OA
ENDBRANCH  17  24
BRANCH  21  25
ATOM     25  O   UNL     1       1.312   3.939  18.860  0.00  0.00    +0.000 OA
ATOM     26  C   UNL     1       0.899   3.850  20.215  0.00  0.00    +0.000 C 
ENDBRANCH  21  25
BRANCH  22  27
ATOM     27  O   UNL     1       4.047   3.120  18.481  0.00  0.00    +0.000 OA
ATOM     28  C   UNL     1       4.363   2.588  19.757  0.00  0.00    +0.000 C 
ENDBRANCH  22  27
ENDBRANCH   1  19
TORSDOF 6
ENDMDL
MODEL 7
REMARK VINA RESULT:      -7.3      6.151     10.174
REMARK  Name = 
REMARK  11 active torsions:
REMARK  status: ('A' for Active; 'I' for Inactive)
REMARK    1  A    between atoms: C_1  and  O_2
REMARK    2  A    between atoms: O_2  and  C_3
REMARK    3  A    between atoms: C_5  and  C_6
REMARK    4  A    between atoms: C_6  and  C_8
REMARK    5  A    between atoms: C_10  and  C_11
REMARK    6  A    between atoms: C_13  and  C_14
REMARK    7  A    between atoms: C_17  and  C_18
REMARK    8  A    between atoms: C_23  and  O_24
REMARK    9  A    between atoms: O_24  and  C_25
REMARK   10  A    between atoms: C_26  and  O_27
REMARK   11  A    between atoms: O_27  and  C_28
REMARK                            x       y       z     vdW  Elec       q    Type
REMARK                         _______ _______ _______ _____ _____    ______ ____
ROOT
ATOM      1  C   UNL     1       3.996   2.855  17.721  0.00  0.00    +0.000 C 
ATOM      2  O   UNL     1       3.787   1.658  17.532  0.00  0.00    +0.000 OA
ENDROOT
BRANCH   1   3
ATOM      3  C   UNL     1       3.274   3.590  18.808  0.00  0.00    +0.000 A 
ATOM      4  C   UNL     1       2.868   2.885  19.933  0.00  0.00    +0.000 A 
ATOM      5  C   UNL     1       2.139   3.561  20.908  0.00  0.00    +0.000 A 
ATOM      6  C   UNL     1       1.609   2.868  22.124  0.00  0.00    +0.000 C 
ATOM      7  C   UNL     1       1.876   4.922  20.721  0.00  0.00    +0.000 A 
ATOM      8  C   UNL     1       2.315   5.576  19.569  0.00  0.00    +0.000 A 
ATOM      9  N   UNL     1       3.016   4.914  18.611  0.00  0.00    +0.000 NA
BRANCH   8  10
ATOM     10  C   UNL     1       2.036   7.012  19.327  0.00  0.00    +0.000 A 
ATOM     11  C   UNL     1       2.323   7.620  18.094  0.00  0.00    +0.000 A 
ATOM     12  C   UNL     1       2.110   8.992  17.883  0.00  0.00    +0.000 A 
ATOM     13  C   UNL     1       1.598   9.797  18.904  0.00  0.00    +0.000 A 
ATOM     14  C   UNL     1       1.382  11.268  18.712  0.00  0.00    +0.000 C 
ATOM     15  C   UNL     1       1.278   9.204  20.128  0.00  0.00    +0.000 A 
ATOM     16  C   UNL     1       1.487   7.836  20.329  0.00  0.00    +0.000 A 
ENDBRANCH   8  10
ENDBRANCH   1   3
BRANCH   1  19
ATOM     17  C   UNL     1       5.617   4.337  14.638  0.00  0.00    +0.000 A 
ATOM     18  C   UNL     1       4.819   3.537  15.465  0.00  0.00    +0.000 A 
ATOM     19  C   UNL     1       4.958   3.582  16.846  0.00  0.00    +0.000 A 
ATOM     20  C   UNL     1       6.005   4.305  17.403  0.00  0.00    +0.000 A 
ATOM     21  C   UNL     1       6.884   5.041  16.586  0.00  0.00    +0.000 A 
ATOM     22  C   UNL     1       6.694   5.067  15.183  0.00  0.00    +0.000 A 
BRANCH  17  24
ATOM     23  C   UNL     1       5.627   3.163  12.584  0.00  0.00    +0.000 C 
ATOM     24  O   UNL     1       5.353   4.378  13.291  0.00  0.00    +0.000 OA
ENDBRANCH  17  24
BRANCH  21  25
ATOM     25  O   UNL     1       7.842   5.682  17.333  0.00  0.00    +0.000 OA
ATOM     26  C   UNL     1       7.674   5.805  18.736  0.00  0.00    +0.000 C 
ENDBRANCH  21  25
BRANCH  22  27
ATOM     27  O   UNL     1       7.604   5.798  14.465  0.00  0.00    +0.000 OA
ATOM     28  C   UNL     1       8.145   5.297  13.254  0.00  0.00    +0.000 C 
ENDBRANCH  22  27
ENDBRANCH   1  19
TORSDOF 6
ENDMDL
MODEL 8
REMARK VINA RESULT:      -7.3      3.705      8.691
REMARK  Name = 
REMARK  11 active torsions:
REMARK  status: ('A' for Active; 'I' for Inactive)
REMARK    1  A    between atoms: C_1  and  O_2
REMARK    2  A    between atoms: O_2  and  C_3
REMARK    3  A    between atoms: C_5  and  C_6
REMARK    4  A    between atoms: C_6  and  C_8
REMARK    5  A    between atoms: C_10  and  C_11
REMARK    6  A    between atoms: C_13  and  C_14
REMARK    7  A    between atoms: C_17  and  C_18
REMARK    8  A    between atoms: C_23  and  O_24
REMARK    9  A    between atoms: O_24  and  C_25
REMARK   10  A    between atoms: C_26  and  O_27
REMARK   11  A    between atoms: O_27  and  C_28
REMARK                            x       y       z     vdW  Elec       q    Type
REMARK                         _______ _______ _______ _____ _____    ______ ____
ROOT
ATOM      1  C   UNL     1       2.553   7.917  18.078  0.00  0.00    +0.000 C 
ATOM      2  O   UNL     1       3.005   8.470  17.078  0.00  0.00    +0.000 OA
ENDROOT
BRANCH   1   3
ATOM      3  C   UNL     1       1.600   8.640  18.980  0.00  0.00    +0.000 A 
ATOM      4  C   UNL     1       1.857   8.660  20.344  0.00  0.00    +0.000 A 
ATOM      5  C   UNL     1       0.931   9.277  21.181  0.00  0.00    +0.000 A 
ATOM      6  C   UNL     1       1.097   9.294  22.669  0.00  0.00    +0.000 C 
ATOM      7  C   UNL     1      -0.196   9.872  20.607  0.00  0.00    +0.000 A 
ATOM      8  C   UNL     1      -0.396   9.822  19.226  0.00  0.00    +0.000 A 
ATOM      9  N   UNL     1       0.500   9.209  18.410  0.00  0.00    +0.000 NA
BRANCH   8  10
ATOM     10  C   UNL     1      -1.591  10.422  18.585  0.00  0.00    +0.000 A 
ATOM     11  C   UNL     1      -2.344  11.422  19.222  0.00  0.00    +0.000 A 
ATOM     12  C   UNL     1      -3.507  11.951  18.638  0.00  0.00    +0.000 A 
ATOM     13  C   UNL     1      -3.949  11.494  17.394  0.00  0.00    +0.000 A 
ATOM     14  C   UNL     1      -5.199  12.026  16.760  0.00  0.00    +0.000 C 
ATOM     15  C   UNL     1      -3.197  10.521  16.732  0.00  0.00    +0.000 A 
ATOM     16  C   UNL     1      -2.036  10.003  17.316  0.00  0.00    +0.000 A 
ENDBRANCH   8  10
ENDBRANCH   1   3
BRANCH   1  19
ATOM     17  C   UNL     1       2.502   4.391  19.454  0.00  0.00    +0.000 A 
ATOM     18  C   UNL     1       2.205   5.745  19.259  0.00  0.00    +0.000 A 
ATOM     19  C   UNL     1       2.974   6.526  18.407  0.00  0.00    +0.000 A 
ATOM     20  C   UNL     1       4.143   6.002  17.869  0.00  0.00    +0.000 A 
ATOM     21  C   UNL     1       4.518   4.670  18.129  0.00  0.00    +0.000 A 
ATOM     22  C   UNL     1       3.691   3.843  18.929  0.00  0.00    +0.000 A 
BRANCH  17  24
ATOM     23  C   UNL     1       2.002   3.427  21.556  0.00  0.00    +0.000 C 
ATOM     24  O   UNL     1       1.636   3.614  20.185  0.00  0.00    +0.000 OA
ENDBRANCH  17  24
BRANCH  21  25
ATOM     25  O   UNL     1       5.698   4.353  17.504  0.00  0.00    +0.000 OA
ATOM     26  C   UNL     1       6.908   4.954  17.936  0.00  0.00    +0.000 C 
ENDBRANCH  21  25
BRANCH  22  27
ATOM     27  O   UNL     1       4.140   2.566  19.139  0.00  0.00    +0.000 OA
ATOM     28  C   UNL     1       3.642   1.484  18.370  0.00  0.00    +0.000 C 
ENDBRANCH  22  27
ENDBRANCH   1  19
TORSDOF 6
ENDMDL
MODEL 9
REMARK VINA RESULT:      -7.3      6.040      9.960
REMARK  Name = 
REMARK  11 active torsions:
REMARK  status: ('A' for Active; 'I' for Inactive)
REMARK    1  A    between atoms: C_1  and  O_2
REMARK    2  A    between atoms: O_2  and  C_3
REMARK    3  A    between atoms: C_5  and  C_6
REMARK    4  A    between atoms: C_6  and  C_8
REMARK    5  A    between atoms: C_10  and  C_11
REMARK    6  A    between atoms: C_13  and  C_14
REMARK    7  A    between atoms: C_17  and  C_18
REMARK    8  A    between atoms: C_23  and  O_24
REMARK    9  A    between atoms: O_24  and  C_25
REMARK   10  A    between atoms: C_26  and  O_27
REMARK   11  A    between atoms: O_27  and  C_28
REMARK                            x       y       z     vdW  Elec       q    Type
REMARK                         _______ _______ _______ _____ _____    ______ ____
ROOT
ATOM      1  C   UNL     1       3.984   2.941  17.736  0.00  0.00    +0.000 C 
ATOM      2  O   UNL     1       3.876   1.729  17.562  0.00  0.00    +0.000 OA
ENDROOT
BRANCH   1   3
ATOM      3  C   UNL     1       3.221   3.621  18.832  0.00  0.00    +0.000 A 
ATOM      4  C   UNL     1       2.766   2.860  19.899  0.00  0.00    +0.000 A 
ATOM      5  C   UNL     1       2.001   3.488  20.878  0.00  0.00    +0.000 A 
ATOM      6  C   UNL     1       1.419   2.733  22.033  0.00  0.00    +0.000 C 
ATOM      7  C   UNL     1       1.752   4.858  20.755  0.00  0.00    +0.000 A 
ATOM      8  C   UNL     1       2.241   5.570  19.659  0.00  0.00    +0.000 A 
ATOM      9  N   UNL     1       2.977   4.956  18.696  0.00  0.00    +0.000 NA
BRANCH   8  10
ATOM     10  C   UNL     1       1.978   7.019  19.483  0.00  0.00    +0.000 A 
ATOM     11  C   UNL     1       1.440   7.800  20.520  0.00  0.00    +0.000 A 
ATOM     12  C   UNL     1       1.140   9.160  20.336  0.00  0.00    +0.000 A 
ATOM     13  C   UNL     1       1.372   9.779  19.105  0.00  0.00    +0.000 A 
ATOM     14  C   UNL     1       1.039  11.223  18.876  0.00  0.00    +0.000 C 
ATOM     15  C   UNL     1       1.933   9.025  18.072  0.00  0.00    +0.000 A 
ATOM     16  C   UNL     1       2.236   7.673  18.263  0.00  0.00    +0.000 A 
ENDBRANCH   8  10
ENDBRANCH   1   3
BRANCH   1  19
ATOM     17  C   UNL     1       6.764   5.215  16.542  0.00  0.00    +0.000 A 
ATOM     18  C   UNL     1       5.833   4.579  17.370  0.00  0.00    +0.000 A 
ATOM     19  C   UNL     1       4.862   3.740  16.837  0.00  0.00    +0.000 A 
ATOM     20  C   UNL     1       4.714   3.660  15.458  0.00  0.00    +0.000 A 
ATOM     21  C   UNL     1       5.576   4.368  14.600  0.00  0.00    +0.000 A 
ATOM     22  C   UNL     1       6.623   5.157  15.139  0.00  0.00    +0.000 A 
BRANCH  17  24
ATOM     23  C   UNL     1       7.775   5.967  18.544  0.00  0.00    +0.000 C 
ATOM     24  O   UNL     1       7.799   5.916  17.113  0.00  0.00    +0.000 OA
ENDBRANCH  17  24
BRANCH  21  25
ATOM     25  O   UNL     1       5.261   4.150  13.282  0.00  0.00    +0.000 OA
ATOM     26  C   UNL     1       5.890   3.094  12.573  0.00  0.00    +0.000 C 
ENDBRANCH  21  25
BRANCH  22  27
ATOM     27  O   UNL     1       7.405   5.821  14.232  0.00  0.00    +0.000 OA
ATOM     28  C   UNL     1       8.189   5.108  13.290  0.00  0.00    +0.000 C 
ENDBRANCH  22  27
ENDBRANCH   1  19
TORSDOF 6
ENDMDL
