MODEL 1
REMARK VINA RESULT:      -6.8      0.000      0.000
REMARK  Name = 
REMARK  7 active torsions:
REMARK  status: ('A' for Active; 'I' for Inactive)
REMARK    1  A    between atoms: C_1  and  C_2
REMARK    2  A    between atoms: C_2  and  C_3
REMARK    3  A    between atoms: C_3  and  C_4
REMARK    4  A    between atoms: C_4  and  N_5
REMARK    5  A    between atoms: C_6  and  C_8
REMARK    6  A    between atoms: C_8  and  C_9
REMARK    7  A    between atoms: C_13  and  C_15
REMARK                            x       y       z     vdW  Elec       q    Type
REMARK                         _______ _______ _______ _____ _____    ______ ____
ROOT
ATOM      1  C   UNL     1       1.968   4.048  20.055  0.00  0.00    +0.000 C 
ATOM      2  C   UNL     1       2.459   3.681  21.464  0.00  0.00    +0.000 C 
ATOM      3  C   UNL     1       0.553   3.474  19.702  0.00  0.00    +0.000 C 
ATOM      4  C   UNL     1       1.248   2.211  19.198  0.00  0.00    +0.000 C 
ATOM      5  N   UNL     1       2.446   3.033  19.097  0.00  0.00    +0.000 N 
ATOM      6  C   UNL     1       3.613   2.693  18.462  0.00  0.00    +0.000 C 
ATOM      7  O   UNL     1       3.729   1.601  17.908  0.00  0.00    +0.000 OA
ENDROOT
BRANCH   6   8
ATOM      8  C   UNL     1       4.697   3.669  18.417  0.00  0.00    +0.000 A 
ATOM      9  C   UNL     1       5.008   4.382  17.266  0.00  0.00    +0.000 A 
ATOM     10  S   UNL     1       6.283   5.453  17.652  0.00  0.00    +0.000 S 
ATOM     11  N   UNL     1       6.395   4.903  19.226  0.00  0.00    +0.000 NA
ATOM     12  N   UNL     1       5.510   3.960  19.505  0.00  0.00    +0.000 NA
ENDBRANCH   6   8
BRANCH   1  14
ATOM     13  N   UNL     1       1.794   6.488  20.712  0.00  0.00    +0.000 N 
ATOM     14  C   UNL     1       2.066   5.598  19.680  0.00  0.00    +0.000 C 
ATOM     15  O   UNL     1       2.282   6.022  18.536  0.00  0.00    +0.000 OA
ATOM     16  H   UNL     1       1.650   6.150  21.653  0.00  0.00    +0.000 HD
BRANCH  13  17
ATOM     17  C   UNL     1       1.746   7.917  20.489  0.00  0.00    +0.000 C 
BRANCH  17  18
ATOM     18  C   UNL     1       1.318   8.699  21.729  0.00  0.00    +0.000 C 
BRANCH  18  20
ATOM     19  C   UNL     1      -0.598   9.784  22.962  0.00  0.00    +0.000 C 
ATOM     20  C   UNL     1      -0.203   8.838  21.838  0.00  0.00    +0.000 C 
ENDBRANCH  18  20
ENDBRANCH  17  18
ENDBRANCH  13  17
ENDBRANCH   1  14
TORSDOF 5
ENDMDL
MODEL 2
REMARK VINA RESULT:      -6.3      2.663      5.170
REMARK  Name = 
REMARK  7 active torsions:
REMARK  status: ('A' for Active; 'I' for Inactive)
REMARK    1  A    between atoms: C_1  and  C_2
REMARK    2  A    between atoms: C_2  and  C_3
REMARK    3  A    between atoms: C_3  and  C_4
REMARK    4  A    between atoms: C_4  and  N_5
REMARK    5  A    between atoms: C_6  and  C_8
REMARK    6  A    between atoms: C_8  and  C_9
REMARK    7  A    between atoms: C_13  and  C_15
REMARK                            x       y       z     vdW  Elec       q    Type
REMARK                         _______ _______ _______ _____ _____    ______ ____
ROOT
ATOM      1  C   UNL     1       3.717   3.141  18.466  0.00  0.00    +0.000 C 
ATOM      2  C   UNL     1       2.488   2.726  17.643  0.00  0.00    +0.000 C 
ATOM      3  C   UNL     1       4.209   2.047  19.474  0.00  0.00    +0.000 C 
ATOM      4  C   UNL     1       3.245   2.634  20.502  0.00  0.00    +0.000 C 
ATOM      5  N   UNL     1       3.268   3.840  19.686  0.00  0.00    +0.000 N 
ATOM      6  C   UNL     1       2.776   5.069  20.040  0.00  0.00    +0.000 C 
ATOM      7  O   UNL     1       2.246   5.240  21.136  0.00  0.00    +0.000 OA
ENDROOT
BRANCH   6   8
ATOM      8  C   UNL     1       2.933   6.182  19.108  0.00  0.00    +0.000 A 
ATOM      9  C   UNL     1       1.984   7.189  18.987  0.00  0.00    +0.000 A 
ATOM     10  S   UNL     1       2.574   8.319  17.848  0.00  0.00    +0.000 S 
ATOM     11  N   UNL     1       3.958   7.432  17.543  0.00  0.00    +0.000 NA
ATOM     12  N   UNL     1       4.027   6.326  18.265  0.00  0.00    +0.000 NA
ENDBRANCH   6   8
BRANCH   1  14
ATOM     13  N   UNL     1       6.076   4.055  18.348  0.00  0.00    +0.000 N 
ATOM     14  C   UNL     1       4.938   3.730  17.620  0.00  0.00    +0.000 C 
ATOM     15  O   UNL     1       4.885   3.979  16.408  0.00  0.00    +0.000 OA
ATOM     16  H   UNL     1       6.138   3.825  19.330  0.00  0.00    +0.000 HD
BRANCH  13  17
ATOM     17  C   UNL     1       7.218   4.691  17.727  0.00  0.00    +0.000 C 
BRANCH  17  18
ATOM     18  C   UNL     1       7.584   6.024  18.377  0.00  0.00    +0.000 C 
BRANCH  18  20
ATOM     19  C   UNL     1       8.145   8.449  17.969  0.00  0.00    +0.000 C 
ATOM     20  C   UNL     1       7.497   7.197  17.399  0.00  0.00    +0.000 C 
ENDBRANCH  18  20
ENDBRANCH  17  18
ENDBRANCH  13  17
ENDBRANCH   1  14
TORSDOF 5
ENDMDL
MODEL 3
REMARK VINA RESULT:      -6.2      1.457      1.641
REMARK  Name = 
REMARK  7 active torsions:
REMARK  status: ('A' for Active; 'I' for Inactive)
REMARK    1  A    between atoms: C_1  and  C_2
REMARK    2  A    between atoms: C_2  and  C_3
REMARK    3  A    between atoms: C_3  and  C_4
REMARK    4  A    between atoms: C_4  and  N_5
REMARK    5  A    between atoms: C_6  and  C_8
REMARK    6  A    between atoms: C_8  and  C_9
REMARK    7  A    between atoms: C_13  and  C_15
REMARK                            x       y       z     vdW  Elec       q    Type
REMARK                         _______ _______ _______ _____ _____    ______ ____
ROOT
ATOM      1  C   UNL     1       2.745   4.552  18.755  0.00  0.00    +0.000 C 
ATOM      2  C   UNL     1       2.847   3.623  19.974  0.00  0.00    +0.000 C 
ATOM      3  C   UNL     1       1.535   4.236  17.812  0.00  0.00    +0.000 C 
ATOM      4  C   UNL     1       2.437   3.256  17.066  0.00  0.00    +0.000 C 
ATOM      5  N   UNL     1       3.549   3.991  17.652  0.00  0.00    +0.000 N 
ATOM      6  C   UNL     1       4.869   3.884  17.298  0.00  0.00    +0.000 C 
ATOM      7  O   UNL     1       5.219   3.107  16.412  0.00  0.00    +0.000 OA
ENDROOT
BRANCH   6   8
ATOM      8  C   UNL     1       5.846   4.743  17.963  0.00  0.00    +0.000 A 
ATOM      9  C   UNL     1       6.525   5.752  17.292  0.00  0.00    +0.000 A 
ATOM     10  S   UNL     1       7.514   6.554  18.432  0.00  0.00    +0.000 S 
ATOM     11  N   UNL     1       7.063   5.536  19.680  0.00  0.00    +0.000 NA
ATOM     12  N   UNL     1       6.184   4.622  19.303  0.00  0.00    +0.000 NA
ENDBRANCH   6   8
BRANCH   1  14
ATOM     13  N   UNL     1       2.108   6.540  20.189  0.00  0.00    +0.000 N 
ATOM     14  C   UNL     1       2.826   6.114  19.079  0.00  0.00    +0.000 C 
ATOM     15  O   UNL     1       3.409   6.941  18.363  0.00  0.00    +0.000 OA
ATOM     16  H   UNL     1       1.658   5.867  20.795  0.00  0.00    +0.000 HD
BRANCH  13  17
ATOM     17  C   UNL     1       2.009   7.941  20.539  0.00  0.00    +0.000 C 
BRANCH  17  18
ATOM     18  C   UNL     1       0.729   8.275  21.301  0.00  0.00    +0.000 C 
BRANCH  18  20
ATOM     19  C   UNL     1      -0.320   9.586  23.185  0.00  0.00    +0.000 C 
ATOM     20  C   UNL     1       0.967   9.272  22.439  0.00  0.00    +0.000 C 
ENDBRANCH  18  20
ENDBRANCH  17  18
ENDBRANCH  13  17
ENDBRANCH   1  14
TORSDOF 5
ENDMDL
MODEL 4
REMARK VINA RESULT:      -6.2      2.667      5.886
REMARK  Name = 
REMARK  7 active torsions:
REMARK  status: ('A' for Active; 'I' for Inactive)
REMARK    1  A    between atoms: C_1  and  C_2
REMARK    2  A    between atoms: C_2  and  C_3
REMARK    3  A    between atoms: C_3  and  C_4
REMARK    4  A    between atoms: C_4  and  N_5
REMARK    5  A    between atoms: C_6  and  C_8
REMARK    6  A    between atoms: C_8  and  C_9
REMARK    7  A    between atoms: C_13  and  C_15
REMARK                            x       y       z     vdW  Elec       q    Type
REMARK                         _______ _______ _______ _____ _____    ______ ____
ROOT
ATOM      1  C   UNL     1       4.116   3.221  18.997  0.00  0.00    +0.000 C 
ATOM      2  C   UNL     1       3.397   2.541  17.822  0.00  0.00    +0.000 C 
ATOM      3  C   UNL     1       4.416   2.265  20.202  0.00  0.00    +0.000 C 
ATOM      4  C   UNL     1       3.040   2.621  20.759  0.00  0.00    +0.000 C 
ATOM      5  N   UNL     1       3.112   3.801  19.909  0.00  0.00    +0.000 N 
ATOM      6  C   UNL     1       2.279   4.888  19.958  0.00  0.00    +0.000 C 
ATOM      7  O   UNL     1       1.357   4.935  20.770  0.00  0.00    +0.000 OA
ENDROOT
BRANCH   6   8
ATOM      8  C   UNL     1       2.535   6.009  19.057  0.00  0.00    +0.000 A 
ATOM      9  C   UNL     1       2.204   7.317  19.387  0.00  0.00    +0.000 A 
ATOM     10  S   UNL     1       2.723   8.319  18.104  0.00  0.00    +0.000 S 
ATOM     11  N   UNL     1       3.275   7.029  17.195  0.00  0.00    +0.000 NA
ATOM     12  N   UNL     1       3.115   5.866  17.804  0.00  0.00    +0.000 NA
ENDBRANCH   6   8
BRANCH   1  14
ATOM     13  N   UNL     1       5.743   4.079  17.255  0.00  0.00    +0.000 N 
ATOM     14  C   UNL     1       5.412   4.070  18.604  0.00  0.00    +0.000 C 
ATOM     15  O   UNL     1       6.151   4.628  19.428  0.00  0.00    +0.000 OA
ATOM     16  H   UNL     1       5.128   3.655  16.575  0.00  0.00    +0.000 HD
BRANCH  13  17
ATOM     17  C   UNL     1       6.947   4.722  16.773  0.00  0.00    +0.000 C 
BRANCH  17  18
ATOM     18  C   UNL     1       7.078   4.677  15.252  0.00  0.00    +0.000 C 
BRANCH  18  20
ATOM     19  C   UNL     1       6.047   3.705  13.164  0.00  0.00    +0.000 C 
ATOM     20  C   UNL     1       5.783   4.234  14.566  0.00  0.00    +0.000 C 
ENDBRANCH  18  20
ENDBRANCH  17  18
ENDBRANCH  13  17
ENDBRANCH   1  14
TORSDOF 5
ENDMDL
MODEL 5
REMARK VINA RESULT:      -6.2      3.810      7.284
REMARK  Name = 
REMARK  7 active torsions:
REMARK  status: ('A' for Active; 'I' for Inactive)
REMARK    1  A    between atoms: C_1  and  C_2
REMARK    2  A    between atoms: C_2  and  C_3
REMARK    3  A    between atoms: C_3  and  C_4
REMARK    4  A    between atoms: C_4  and  N_5
REMARK    5  A    between atoms: C_6  and  C_8
REMARK    6  A    between atoms: C_8  and  C_9
REMARK    7  A    between atoms: C_13  and  C_15
REMARK                            x       y       z     vdW  Elec       q    Type
REMARK                         _______ _______ _______ _____ _____    ______ ____
ROOT
ATOM      1  C   UNL     1       6.425   5.156  16.903  0.00  0.00    +0.000 C 
ATOM      2  C   UNL     1       7.356   4.711  18.041  0.00  0.00    +0.000 C 
ATOM      3  C   UNL     1       6.758   6.574  16.324  0.00  0.00    +0.000 C 
ATOM      4  C   UNL     1       5.841   7.168  17.390  0.00  0.00    +0.000 C 
ATOM      5  N   UNL     1       5.251   5.840  17.480  0.00  0.00    +0.000 N 
ATOM      6  C   UNL     1       4.090   5.510  18.129  0.00  0.00    +0.000 C 
ATOM      7  O   UNL     1       3.435   6.369  18.717  0.00  0.00    +0.000 OA
ENDROOT
BRANCH   6   8
ATOM      8  C   UNL     1       3.621   4.128  18.069  0.00  0.00    +0.000 A 
ATOM      9  C   UNL     1       4.190   3.118  18.834  0.00  0.00    +0.000 A 
ATOM     10  S   UNL     1       3.319   1.681  18.519  0.00  0.00    +0.000 S 
ATOM     11  N   UNL     1       2.323   2.419  17.397  0.00  0.00    +0.000 NA
ATOM     12  N   UNL     1       2.586   3.706  17.246  0.00  0.00    +0.000 NA
ENDBRANCH   6   8
BRANCH   1  14
ATOM     13  N   UNL     1       6.585   4.517  14.457  0.00  0.00    +0.000 N 
ATOM     14  C   UNL     1       6.223   4.091  15.729  0.00  0.00    +0.000 C 
ATOM     15  O   UNL     1       5.700   2.979  15.886  0.00  0.00    +0.000 OA
ATOM     16  H   UNL     1       7.041   5.410  14.329  0.00  0.00    +0.000 HD
BRANCH  13  17
ATOM     17  C   UNL     1       6.361   3.694  13.288  0.00  0.00    +0.000 C 
BRANCH  17  18
ATOM     18  C   UNL     1       4.948   3.831  12.726  0.00  0.00    +0.000 C 
BRANCH  18  20
ATOM     19  C   UNL     1       3.518   3.388  10.695  0.00  0.00    +0.000 C 
ATOM     20  C   UNL     1       4.706   2.919  11.520  0.00  0.00    +0.000 C 
ENDBRANCH  18  20
ENDBRANCH  17  18
ENDBRANCH  13  17
ENDBRANCH   1  14
TORSDOF 5
ENDMDL
MODEL 6
REMARK VINA RESULT:      -6.1      2.390      2.823
REMARK  Name = 
REMARK  7 active torsions:
REMARK  status: ('A' for Active; 'I' for Inactive)
REMARK    1  A    between atoms: C_1  and  C_2
REMARK    2  A    between atoms: C_2  and  C_3
REMARK    3  A    between atoms: C_3  and  C_4
REMARK    4  A    between atoms: C_4  and  N_5
REMARK    5  A    between atoms: C_6  and  C_8
REMARK    6  A    between atoms: C_8  and  C_9
REMARK    7  A    between atoms: C_13  and  C_15
REMARK                            x       y       z     vdW  Elec       q    Type
REMARK                         _______ _______ _______ _____ _____    ______ ____
ROOT
ATOM      1  C   UNL     1       3.092   4.634  18.551  0.00  0.00    +0.000 C 
ATOM      2  C   UNL     1       3.622   3.823  19.742  0.00  0.00    +0.000 C 
ATOM      3  C   UNL     1       1.813   4.024  17.882  0.00  0.00    +0.000 C 
ATOM      4  C   UNL     1       2.737   3.199  16.988  0.00  0.00    +0.000 C 
ATOM      5  N   UNL     1       3.764   4.177  17.319  0.00  0.00    +0.000 N 
ATOM      6  C   UNL     1       4.982   4.314  16.705  0.00  0.00    +0.000 C 
ATOM      7  O   UNL     1       5.305   3.568  15.782  0.00  0.00    +0.000 OA
ENDROOT
BRANCH   6   8
ATOM      8  C   UNL     1       5.868   5.390  17.137  0.00  0.00    +0.000 A 
ATOM      9  C   UNL     1       6.769   5.235  18.183  0.00  0.00    +0.000 A 
ATOM     10  S   UNL     1       7.650   6.694  18.324  0.00  0.00    +0.000 S 
ATOM     11  N   UNL     1       6.795   7.439  17.096  0.00  0.00    +0.000 NA
ATOM     12  N   UNL     1       5.881   6.650  16.554  0.00  0.00    +0.000 NA
ENDBRANCH   6   8
BRANCH   1  14
ATOM     13  N   UNL     1       2.924   7.011  17.690  0.00  0.00    +0.000 N 
ATOM     14  C   UNL     1       2.908   6.199  18.818  0.00  0.00    +0.000 C 
ATOM     15  O   UNL     1       2.838   6.705  19.946  0.00  0.00    +0.000 OA
ATOM     16  H   UNL     1       2.947   6.601  16.766  0.00  0.00    +0.000 HD
BRANCH  13  17
ATOM     17  C   UNL     1       2.869   8.453  17.792  0.00  0.00    +0.000 C 
BRANCH  17  18
ATOM     18  C   UNL     1       1.446   9.001  17.728  0.00  0.00    +0.000 C 
BRANCH  18  20
ATOM     19  C   UNL     1       0.682   9.584  20.061  0.00  0.00    +0.000 C 
ATOM     20  C   UNL     1       1.204  10.125  18.739  0.00  0.00    +0.000 C 
ENDBRANCH  18  20
ENDBRANCH  17  18
ENDBRANCH  13  17
ENDBRANCH   1  14
TORSDOF 5
ENDMDL
MODEL 7
REMARK VINA RESULT:      -6.1      1.646      1.937
REMARK  Name = 
REMARK  7 active torsions:
REMARK  status: ('A' for Active; 'I' for Inactive)
REMARK    1  A    between atoms: C_1  and  C_2
REMARK    2  A    between atoms: C_2  and  C_3
REMARK    3  A    between atoms: C_3  and  C_4
REMARK    4  A    between atoms: C_4  and  N_5
REMARK    5  A    between atoms: C_6  and  C_8
REMARK    6  A    between atoms: C_8  and  C_9
REMARK    7  A    between atoms: C_13  and  C_15
REMARK                            x       y       z     vdW  Elec       q    Type
REMARK                         _______ _______ _______ _____ _____    ______ ____
ROOT
ATOM      1  C   UNL     1       2.064   3.605  20.154  0.00  0.00    +0.000 C 
ATOM      2  C   UNL     1       2.606   2.799  21.344  0.00  0.00    +0.000 C 
ATOM      3  C   UNL     1       0.646   3.148  19.668  0.00  0.00    +0.000 C 
ATOM      4  C   UNL     1       1.341   2.146  18.750  0.00  0.00    +0.000 C 
ATOM      5  N   UNL     1       2.523   2.982  18.898  0.00  0.00    +0.000 N 
ATOM      6  C   UNL     1       3.672   2.903  18.155  0.00  0.00    +0.000 C 
ATOM      7  O   UNL     1       3.784   2.063  17.263  0.00  0.00    +0.000 OA
ENDROOT
BRANCH   6   8
ATOM      8  C   UNL     1       4.741   3.864  18.411  0.00  0.00    +0.000 A 
ATOM      9  C   UNL     1       5.072   4.866  17.508  0.00  0.00    +0.000 A 
ATOM     10  S   UNL     1       6.318   5.802  18.210  0.00  0.00    +0.000 S 
ATOM     11  N   UNL     1       6.395   4.845  19.578  0.00  0.00    +0.000 NA
ATOM     12  N   UNL     1       5.518   3.854  19.562  0.00  0.00    +0.000 NA
ENDBRANCH   6   8
BRANCH   1  14
ATOM     13  N   UNL     1       2.272   5.919  19.143  0.00  0.00    +0.000 N 
ATOM     14  C   UNL     1       2.127   5.193  20.320  0.00  0.00    +0.000 C 
ATOM     15  O   UNL     1       2.138   5.776  21.413  0.00  0.00    +0.000 OA
ATOM     16  H   UNL     1       2.231   5.452  18.248  0.00  0.00    +0.000 HD
BRANCH  13  17
ATOM     17  C   UNL     1       2.446   7.355  19.153  0.00  0.00    +0.000 C 
BRANCH  17  18
ATOM     18  C   UNL     1       2.319   7.980  17.766  0.00  0.00    +0.000 C 
BRANCH  18  20
ATOM     19  C   UNL     1       1.032   9.634  19.170  0.00  0.00    +0.000 C 
ATOM     20  C   UNL     1       1.413   9.213  17.759  0.00  0.00    +0.000 C 
ENDBRANCH  18  20
ENDBRANCH  17  18
ENDBRANCH  13  17
ENDBRANCH   1  14
TORSDOF 5
ENDMDL
MODEL 8
REMARK VINA RESULT:      -6.1      1.878      2.080
REMARK  Name = 
REMARK  7 active torsions:
REMARK  status: ('A' for Active; 'I' for Inactive)
REMARK    1  A    between atoms: C_1  and  C_2
REMARK    2  A    between atoms: C_2  and  C_3
REMARK    3  A    between atoms: C_3  and  C_4
REMARK    4  A    between atoms: C_4  and  N_5
REMARK    5  A    between atoms: C_6  and  C_8
REMARK    6  A    between atoms: C_8  and  C_9
REMARK    7  A    between atoms: C_13  and  C_15
REMARK                            x       y       z     vdW  Elec       q    Type
REMARK                         _______ _______ _______ _____ _____    ______ ____
ROOT
ATOM      1  C   UNL     1       2.123   4.429  19.817  0.00  0.00    +0.000 C 
ATOM      2  C   UNL     1       2.296   5.233  21.114  0.00  0.00    +0.000 C 
ATOM      3  C   UNL     1       0.994   3.344  19.886  0.00  0.00    +0.000 C 
ATOM      4  C   UNL     1       2.036   2.367  20.425  0.00  0.00    +0.000 C 
ATOM      5  N   UNL     1       3.028   3.263  19.847  0.00  0.00    +0.000 N 
ATOM      6  C   UNL     1       4.362   2.998  19.681  0.00  0.00    +0.000 C 
ATOM      7  O   UNL     1       4.836   1.921  20.038  0.00  0.00    +0.000 OA
ENDROOT
BRANCH   6   8
ATOM      8  C   UNL     1       5.201   4.002  19.032  0.00  0.00    +0.000 A 
ATOM      9  C   UNL     1       5.241   4.156  17.652  0.00  0.00    +0.000 A 
ATOM     10  S   UNL     1       6.285   5.466  17.310  0.00  0.00    +0.000 S 
ATOM     11  N   UNL     1       6.660   5.710  18.921  0.00  0.00    +0.000 NA
ATOM     12  N   UNL     1       6.029   4.872  19.727  0.00  0.00    +0.000 NA
ENDBRANCH   6   8
BRANCH   1  14
ATOM     13  N   UNL     1       2.482   6.600  18.564  0.00  0.00    +0.000 N 
ATOM     14  C   UNL     1       1.999   5.300  18.484  0.00  0.00    +0.000 C 
ATOM     15  O   UNL     1       1.437   4.910  17.451  0.00  0.00    +0.000 OA
ATOM     16  H   UNL     1       2.970   6.913  19.392  0.00  0.00    +0.000 HD
BRANCH  13  17
ATOM     17  C   UNL     1       2.342   7.532  17.466  0.00  0.00    +0.000 C 
BRANCH  17  18
ATOM     18  C   UNL     1       2.280   8.987  17.924  0.00  0.00    +0.000 C 
BRANCH  18  20
ATOM     19  C   UNL     1       0.113  10.113  18.559  0.00  0.00    +0.000 C 
ATOM     20  C   UNL     1       1.244   9.211  19.028  0.00  0.00    +0.000 C 
ENDBRANCH  18  20
ENDBRANCH  17  18
ENDBRANCH  13  17
ENDBRANCH   1  14
TORSDOF 5
ENDMDL
MODEL 9
REMARK VINA RESULT:      -6.1      4.007      7.321
REMARK  Name = 
REMARK  7 active torsions:
REMARK  status: ('A' for Active; 'I' for Inactive)
REMARK    1  A    between atoms: C_1  and  C_2
REMARK    2  A    between atoms: C_2  and  C_3
REMARK    3  A    between atoms: C_3  and  C_4
REMARK    4  A    between atoms: C_4  and  N_5
REMARK    5  A    between atoms: C_6  and  C_8
REMARK    6  A    between atoms: C_8  and  C_9
REMARK    7  A    between atoms: C_13  and  C_15
REMARK                            x       y       z     vdW  Elec       q    Type
REMARK                         _______ _______ _______ _____ _____    ______ ____
ROOT
ATOM      1  C   UNL     1       6.666   5.444  16.850  0.00  0.00    +0.000 C 
ATOM      2  C   UNL     1       7.619   4.260  17.072  0.00  0.00    +0.000 C 
ATOM      3  C   UNL     1       7.333   6.847  17.056  0.00  0.00    +0.000 C 
ATOM      4  C   UNL     1       6.963   6.749  18.534  0.00  0.00    +0.000 C 
ATOM      5  N   UNL     1       5.981   5.757  18.118  0.00  0.00    +0.000 N 
ATOM      6  C   UNL     1       4.965   5.250  18.886  0.00  0.00    +0.000 C 
ATOM      7  O   UNL     1       4.814   5.620  20.049  0.00  0.00    +0.000 OA
ENDROOT
BRANCH   6   8
ATOM      8  C   UNL     1       4.038   4.297  18.283  0.00  0.00    +0.000 A 
ATOM      9  C   UNL     1       4.168   2.924  18.457  0.00  0.00    +0.000 A 
ATOM     10  S   UNL     1       2.859   2.177  17.649  0.00  0.00    +0.000 S 
ATOM     11  N   UNL     1       2.254   3.630  17.087  0.00  0.00    +0.000 NA
ATOM     12  N   UNL     1       2.967   4.672  17.485  0.00  0.00    +0.000 NA
ENDBRANCH   6   8
BRANCH   1  14
ATOM     13  N   UNL     1       5.844   4.189  14.809  0.00  0.00    +0.000 N 
ATOM     14  C   UNL     1       5.831   5.401  15.488  0.00  0.00    +0.000 C 
ATOM     15  O   UNL     1       5.265   6.385  14.991  0.00  0.00    +0.000 OA
ATOM     16  H   UNL     1       6.275   3.375  15.225  0.00  0.00    +0.000 HD
BRANCH  13  17
ATOM     17  C   UNL     1       5.215   4.038  13.514  0.00  0.00    +0.000 C 
BRANCH  17  18
ATOM     18  C   UNL     1       6.127   3.377  12.483  0.00  0.00    +0.000 C 
BRANCH  18  20
ATOM     19  C   UNL     1       4.016   3.107  11.128  0.00  0.00    +0.000 C 
ATOM     20  C   UNL     1       5.356   2.492  11.501  0.00  0.00    +0.000 C 
ENDBRANCH  18  20
ENDBRANCH  17  18
ENDBRANCH  13  17
ENDBRANCH   1  14
TORSDOF 5
ENDMDL
