MODEL 1
REMARK VINA RESULT:      -8.5      0.000      0.000
REMARK  Name = 
REMARK  3 active torsions:
REMARK  status: ('A' for Active; 'I' for Inactive)
REMARK    1  A    between atoms: C_1  and  C_2
REMARK    2  A    between atoms: C_9  and  O_10
REMARK    3  A    between atoms: C_11  and  N_12
REMARK                            x       y       z     vdW  Elec       q    Type
REMARK                         _______ _______ _______ _____ _____    ______ ____
ROOT
ATOM      1  C   UNL     1       1.401   3.696  18.231  0.00  0.00    +0.000 C 
ATOM      2  C   UNL     1       2.731   4.114  18.882  0.00  0.00    +0.000 C 
ATOM      3  C   UNL     1       2.584   4.280  20.390  0.00  0.00    +0.000 C 
ATOM      4  C   UNL     1       1.772   5.540  20.749  0.00  0.00    +0.000 C 
ATOM      5  C   UNL     1       2.254   6.839  20.039  0.00  0.00    +0.000 C 
ATOM      6  C   UNL     1       1.406   8.092  20.307  0.00  0.00    +0.000 A 
ATOM      7  C   UNL     1       0.769   8.236  21.552  0.00  0.00    +0.000 A 
ATOM      8  C   UNL     1       0.025   9.372  21.862  0.00  0.00    +0.000 A 
ATOM      9  C   UNL     1      -0.101  10.406  20.934  0.00  0.00    +0.000 A 
ATOM     10  C   UNL     1       0.534  10.312  19.681  0.00  0.00    +0.000 A 
ATOM     11  C   UNL     1       1.320   9.159  19.361  0.00  0.00    +0.000 A 
ATOM     12  C   UNL     1       2.032   9.029  18.028  0.00  0.00    +0.000 C 
ATOM     13  C   UNL     1       3.034   7.877  17.912  0.00  0.00    +0.000 C 
ATOM     14  C   UNL     1       2.456   6.604  18.516  0.00  0.00    +0.000 C 
ATOM     15  C   UNL     1       3.376   5.399  18.326  0.00  0.00    +0.000 C 
ATOM     16  C   UNL     1       3.849   5.007  16.929  0.00  0.00    +0.000 C 
ATOM     17  C   UNL     1       4.475   3.621  17.150  0.00  0.00    +0.000 C 
ATOM     18  C   UNL     1       3.778   3.132  18.404  0.00  0.00    +0.000 C 
ATOM     19  O   UNL     1       4.022   2.050  18.948  0.00  0.00    +0.000 OA
ENDROOT
BRANCH  10  20
ATOM     20  N   UNL     1       0.360  11.433  18.729  0.00  0.00    +0.000 N 
ATOM     21  O   UNL     1      -0.732  11.550  18.157  0.00  0.00    +0.000 OA
ATOM     22  O   UNL     1       1.323  12.210  18.579  0.00  0.00    +0.000 OA
ENDBRANCH  10  20
BRANCH   9  23
ATOM     23  O   UNL     1      -0.868  11.482  21.292  0.00  0.00    +0.000 OA
ATOM     24  H   UNL     1      -0.591  11.815  22.163  0.00  0.00    +0.000 HD
ENDBRANCH   9  23
TORSDOF 2
ENDMDL
MODEL 2
REMARK VINA RESULT:      -8.1      2.227      7.204
REMARK  Name = 
REMARK  3 active torsions:
REMARK  status: ('A' for Active; 'I' for Inactive)
REMARK    1  A    between atoms: C_1  and  C_2
REMARK    2  A    between atoms: C_9  and  O_10
REMARK    3  A    between atoms: C_11  and  N_12
REMARK                            x       y       z     vdW  Elec       q    Type
REMARK                         _______ _______ _______ _____ _____    ______ ____
ROOT
ATOM      1  C   UNL     1      -0.490   9.628  17.981  0.00  0.00    +0.000 C 
ATOM      2  C   UNL     1       0.742  10.086  18.779  0.00  0.00    +0.000 C 
ATOM      3  C   UNL     1       1.999  10.077  17.915  0.00  0.00    +0.000 C 
ATOM      4  C   UNL     1       2.471   8.642  17.608  0.00  0.00    +0.000 C 
ATOM      5  C   UNL     1       2.587   7.723  18.859  0.00  0.00    +0.000 C 
ATOM      6  C   UNL     1       2.967   6.262  18.572  0.00  0.00    +0.000 A 
ATOM      7  C   UNL     1       3.801   5.972  17.478  0.00  0.00    +0.000 A 
ATOM      8  C   UNL     1       4.211   4.670  17.200  0.00  0.00    +0.000 A 
ATOM      9  C   UNL     1       3.801   3.614  18.013  0.00  0.00    +0.000 A 
ATOM     10  C   UNL     1       2.979   3.859  19.129  0.00  0.00    +0.000 A 
ATOM     11  C   UNL     1       2.571   5.197  19.438  0.00  0.00    +0.000 A 
ATOM     12  C   UNL     1       1.699   5.503  20.641  0.00  0.00    +0.000 C 
ATOM     13  C   UNL     1       1.546   6.984  20.999  0.00  0.00    +0.000 C 
ATOM     14  C   UNL     1       1.313   7.815  19.745  0.00  0.00    +0.000 C 
ATOM     15  C   UNL     1       1.046   9.286  20.062  0.00  0.00    +0.000 C 
ATOM     16  C   UNL     1      -0.077   9.673  21.019  0.00  0.00    +0.000 C 
ATOM     17  C   UNL     1      -0.193  11.193  20.824  0.00  0.00    +0.000 C 
ATOM     18  C   UNL     1       0.375  11.399  19.434  0.00  0.00    +0.000 C 
ATOM     19  O   UNL     1       0.496  12.505  18.898  0.00  0.00    +0.000 OA
ENDROOT
BRANCH  10  20
ATOM     20  N   UNL     1       2.564   2.702  19.955  0.00  0.00    +0.000 N 
ATOM     21  O   UNL     1       1.661   1.972  19.525  0.00  0.00    +0.000 OA
ATOM     22  O   UNL     1       3.170   2.518  21.028  0.00  0.00    +0.000 OA
ENDBRANCH  10  20
BRANCH   9  23
ATOM     23  O   UNL     1       4.217   2.356  17.668  0.00  0.00    +0.000 OA
ATOM     24  H   UNL     1       4.056   1.738  18.401  0.00  0.00    +0.000 HD
ENDBRANCH   9  23
TORSDOF 2
ENDMDL
MODEL 3
REMARK VINA RESULT:      -7.5      1.541      3.084
REMARK  Name = 
REMARK  3 active torsions:
REMARK  status: ('A' for Active; 'I' for Inactive)
REMARK    1  A    between atoms: C_1  and  C_2
REMARK    2  A    between atoms: C_9  and  O_10
REMARK    3  A    between atoms: C_11  and  N_12
REMARK                            x       y       z     vdW  Elec       q    Type
REMARK                         _______ _______ _______ _____ _____    ______ ____
ROOT
ATOM      1  C   UNL     1       5.608   5.589  18.948  0.00  0.00    +0.000 C 
ATOM      2  C   UNL     1       4.367   5.143  18.156  0.00  0.00    +0.000 C 
ATOM      3  C   UNL     1       4.072   6.095  17.002  0.00  0.00    +0.000 C 
ATOM      4  C   UNL     1       3.524   7.446  17.504  0.00  0.00    +0.000 C 
ATOM      5  C   UNL     1       2.343   7.327  18.511  0.00  0.00    +0.000 C 
ATOM      6  C   UNL     1       1.839   8.654  19.098  0.00  0.00    +0.000 A 
ATOM      7  C   UNL     1       1.902   9.819  18.314  0.00  0.00    +0.000 A 
ATOM      8  C   UNL     1       1.418  11.039  18.781  0.00  0.00    +0.000 A 
ATOM      9  C   UNL     1       0.848  11.130  20.051  0.00  0.00    +0.000 A 
ATOM     10  C   UNL     1       0.748   9.986  20.864  0.00  0.00    +0.000 A 
ATOM     11  C   UNL     1       1.222   8.722  20.385  0.00  0.00    +0.000 A 
ATOM     12  C   UNL     1       1.117   7.464  21.226  0.00  0.00    +0.000 C 
ATOM     13  C   UNL     1       1.424   6.148  20.505  0.00  0.00    +0.000 C 
ATOM     14  C   UNL     1       2.661   6.295  19.630  0.00  0.00    +0.000 C 
ATOM     15  C   UNL     1       3.072   4.977  18.975  0.00  0.00    +0.000 C 
ATOM     16  C   UNL     1       3.326   3.741  19.832  0.00  0.00    +0.000 C 
ATOM     17  C   UNL     1       3.986   2.764  18.846  0.00  0.00    +0.000 C 
ATOM     18  C   UNL     1       4.576   3.688  17.799  0.00  0.00    +0.000 C 
ATOM     19  O   UNL     1       5.177   3.293  16.795  0.00  0.00    +0.000 OA
ENDROOT
BRANCH  10  20
ATOM     20  N   UNL     1       0.144  10.139  22.208  0.00  0.00    +0.000 N 
ATOM     21  O   UNL     1       0.852   9.908  23.197  0.00  0.00    +0.000 OA
ATOM     22  O   UNL     1      -1.042  10.518  22.261  0.00  0.00    +0.000 OA
ENDBRANCH  10  20
BRANCH   9  23
ATOM     23  O   UNL     1       0.417  12.364  20.459  0.00  0.00    +0.000 OA
ATOM     24  H   UNL     1       0.758  12.559  21.348  0.00  0.00    +0.000 HD
ENDBRANCH   9  23
TORSDOF 2
ENDMDL
MODEL 4
REMARK VINA RESULT:      -7.3      2.310      7.157
REMARK  Name = 
REMARK  3 active torsions:
REMARK  status: ('A' for Active; 'I' for Inactive)
REMARK    1  A    between atoms: C_1  and  C_2
REMARK    2  A    between atoms: C_9  and  O_10
REMARK    3  A    between atoms: C_11  and  N_12
REMARK                            x       y       z     vdW  Elec       q    Type
REMARK                         _______ _______ _______ _____ _____    ______ ____
ROOT
ATOM      1  C   UNL     1      -0.784  10.493  18.142  0.00  0.00    +0.000 C 
ATOM      2  C   UNL     1       0.530  10.937  18.807  0.00  0.00    +0.000 C 
ATOM      3  C   UNL     1       1.726  10.697  17.891  0.00  0.00    +0.000 C 
ATOM      4  C   UNL     1       2.054   9.196  17.764  0.00  0.00    +0.000 C 
ATOM      5  C   UNL     1       2.168   8.446  19.123  0.00  0.00    +0.000 C 
ATOM      6  C   UNL     1       2.404   6.930  19.024  0.00  0.00    +0.000 A 
ATOM      7  C   UNL     1       3.141   6.420  17.941  0.00  0.00    +0.000 A 
ATOM      8  C   UNL     1       3.420   5.061  17.826  0.00  0.00    +0.000 A 
ATOM      9  C   UNL     1       2.973   4.165  18.798  0.00  0.00    +0.000 A 
ATOM     10  C   UNL     1       2.245   4.634  19.908  0.00  0.00    +0.000 A 
ATOM     11  C   UNL     1       1.972   6.033  20.048  0.00  0.00    +0.000 A 
ATOM     12  C   UNL     1       1.206   6.577  21.238  0.00  0.00    +0.000 C 
ATOM     13  C   UNL     1       1.203   8.101  21.394  0.00  0.00    +0.000 C 
ATOM     14  C   UNL     1       0.964   8.774  20.049  0.00  0.00    +0.000 C 
ATOM     15  C   UNL     1       0.844  10.293  20.172  0.00  0.00    +0.000 C 
ATOM     16  C   UNL     1      -0.181  10.907  21.120  0.00  0.00    +0.000 C 
ATOM     17  C   UNL     1      -0.179  12.392  20.721  0.00  0.00    +0.000 C 
ATOM     18  C   UNL     1       0.318  12.355  19.290  0.00  0.00    +0.000 C 
ATOM     19  O   UNL     1       0.499  13.363  18.600  0.00  0.00    +0.000 OA
ENDROOT
BRANCH  10  20
ATOM     20  N   UNL     1       1.785   3.641  20.907  0.00  0.00    +0.000 N 
ATOM     21  O   UNL     1       0.846   2.895  20.598  0.00  0.00    +0.000 OA
ATOM     22  O   UNL     1       2.391   3.601  21.994  0.00  0.00    +0.000 OA
ENDBRANCH  10  20
BRANCH   9  23
ATOM     23  O   UNL     1       3.258   2.839  18.611  0.00  0.00    +0.000 OA
ATOM     24  H   UNL     1       3.980   2.566  19.203  0.00  0.00    +0.000 HD
ENDBRANCH   9  23
TORSDOF 2
ENDMDL
MODEL 5
REMARK VINA RESULT:      -7.1      2.412      6.803
REMARK  Name = 
REMARK  3 active torsions:
REMARK  status: ('A' for Active; 'I' for Inactive)
REMARK    1  A    between atoms: C_1  and  C_2
REMARK    2  A    between atoms: C_9  and  O_10
REMARK    3  A    between atoms: C_11  and  N_12
REMARK                            x       y       z     vdW  Elec       q    Type
REMARK                         _______ _______ _______ _____ _____    ______ ____
ROOT
ATOM      1  C   UNL     1       1.767  10.081  21.595  0.00  0.00    +0.000 C 
ATOM      2  C   UNL     1       0.661   9.563  20.660  0.00  0.00    +0.000 C 
ATOM      3  C   UNL     1      -0.042   8.346  21.252  0.00  0.00    +0.000 C 
ATOM      4  C   UNL     1       0.859   7.096  21.221  0.00  0.00    +0.000 C 
ATOM      5  C   UNL     1       1.511   6.808  19.837  0.00  0.00    +0.000 C 
ATOM      6  C   UNL     1       2.486   5.621  19.800  0.00  0.00    +0.000 A 
ATOM      7  C   UNL     1       2.263   4.523  20.649  0.00  0.00    +0.000 A 
ATOM      8  C   UNL     1       3.091   3.404  20.624  0.00  0.00    +0.000 A 
ATOM      9  C   UNL     1       4.170   3.345  19.742  0.00  0.00    +0.000 A 
ATOM     10  C   UNL     1       4.422   4.414  18.862  0.00  0.00    +0.000 A 
ATOM     11  C   UNL     1       3.563   5.561  18.863  0.00  0.00    +0.000 A 
ATOM     12  C   UNL     1       3.792   6.725  17.918  0.00  0.00    +0.000 C 
ATOM     13  C   UNL     1       2.667   7.762  17.846  0.00  0.00    +0.000 C 
ATOM     14  C   UNL     1       2.155   8.091  19.241  0.00  0.00    +0.000 C 
ATOM     15  C   UNL     1       1.105   9.202  19.229  0.00  0.00    +0.000 C 
ATOM     16  C   UNL     1       1.421  10.548  18.584  0.00  0.00    +0.000 C 
ATOM     17  C   UNL     1       0.255  11.437  19.046  0.00  0.00    +0.000 C 
ATOM     18  C   UNL     1      -0.211  10.751  20.315  0.00  0.00    +0.000 C 
ATOM     19  O   UNL     1      -1.168  11.136  20.993  0.00  0.00    +0.000 OA
ENDROOT
BRANCH  10  20
ATOM     20  N   UNL     1       5.586   4.307  17.953  0.00  0.00    +0.000 N 
ATOM     21  O   UNL     1       6.717   4.467  18.431  0.00  0.00    +0.000 OA
ATOM     22  O   UNL     1       5.355   4.036  16.758  0.00  0.00    +0.000 OA
ENDBRANCH  10  20
BRANCH   9  23
ATOM     23  O   UNL     1       4.960   2.228  19.788  0.00  0.00    +0.000 OA
ATOM     24  H   UNL     1       5.601   2.303  20.516  0.00  0.00    +0.000 HD
ENDBRANCH   9  23
TORSDOF 2
ENDMDL
MODEL 6
REMARK VINA RESULT:      -6.8      8.598      9.841
REMARK  Name = 
REMARK  3 active torsions:
REMARK  status: ('A' for Active; 'I' for Inactive)
REMARK    1  A    between atoms: C_1  and  C_2
REMARK    2  A    between atoms: C_9  and  O_10
REMARK    3  A    between atoms: C_11  and  N_12
REMARK                            x       y       z     vdW  Elec       q    Type
REMARK                         _______ _______ _______ _____ _____    ______ ____
ROOT
ATOM      1  C   UNL     1       9.252  12.022  17.847  0.00  0.00    +0.000 C 
ATOM      2  C   UNL     1      10.324  12.753  18.672  0.00  0.00    +0.000 C 
ATOM      3  C   UNL     1      10.871  11.865  19.784  0.00  0.00    +0.000 C 
ATOM      4  C   UNL     1       9.839  11.664  20.913  0.00  0.00    +0.000 C 
ATOM      5  C   UNL     1       9.204  12.983  21.444  0.00  0.00    +0.000 C 
ATOM      6  C   UNL     1       8.107  12.806  22.505  0.00  0.00    +0.000 A 
ATOM      7  C   UNL     1       8.182  11.721  23.396  0.00  0.00    +0.000 A 
ATOM      8  C   UNL     1       7.237  11.540  24.404  0.00  0.00    +0.000 A 
ATOM      9  C   UNL     1       6.187  12.445  24.556  0.00  0.00    +0.000 A 
ATOM     10  C   UNL     1       6.082  13.555  23.697  0.00  0.00    +0.000 A 
ATOM     11  C   UNL     1       7.060  13.765  22.672  0.00  0.00    +0.000 A 
ATOM     12  C   UNL     1       6.990  14.958  21.738  0.00  0.00    +0.000 C 
ATOM     13  C   UNL     1       8.223  15.198  20.863  0.00  0.00    +0.000 C 
ATOM     14  C   UNL     1       8.724  13.886  20.274  0.00  0.00    +0.000 C 
ATOM     15  C   UNL     1       9.889  14.089  19.306  0.00  0.00    +0.000 C 
ATOM     16  C   UNL     1       9.743  15.037  18.119  0.00  0.00    +0.000 C 
ATOM     17  C   UNL     1      10.983  14.722  17.268  0.00  0.00    +0.000 C 
ATOM     18  C   UNL     1      11.330  13.307  17.688  0.00  0.00    +0.000 C 
ATOM     19  O   UNL     1      12.302  12.681  17.254  0.00  0.00    +0.000 OA
ENDROOT
BRANCH  10  20
ATOM     20  N   UNL     1       4.942  14.481  23.894  0.00  0.00    +0.000 N 
ATOM     21  O   UNL     1       4.944  15.203  24.900  0.00  0.00    +0.000 OA
ATOM     22  O   UNL     1       4.057  14.494  23.017  0.00  0.00    +0.000 OA
ENDBRANCH  10  20
BRANCH   9  23
ATOM     23  O   UNL     1       5.278  12.193  25.548  0.00  0.00    +0.000 OA
ATOM     24  H   UNL     1       5.430  11.309  25.923  0.00  0.00    +0.000 HD
ENDBRANCH   9  23
TORSDOF 2
ENDMDL
