MODEL 1
REMARK VINA RESULT:      -7.3      0.000      0.000
REMARK  Name = 
REMARK  3 active torsions:
REMARK  status: ('A' for Active; 'I' for Inactive)
REMARK    1  A    between atoms: C_2  and  C_3
REMARK    2  A    between atoms: C_10  and  N_11
REMARK    3  A    between atoms: C_14  and  C_15
REMARK                            x       y       z     vdW  Elec       q    Type
REMARK                         _______ _______ _______ _____ _____    ______ ____
ROOT
ATOM      1  C   UNL     1       5.536   4.449  14.983  0.00  0.00    +0.000 A 
ATOM      2  C   UNL     1       5.683   5.792  15.334  0.00  0.00    +0.000 A 
ATOM      3  C   UNL     1       5.283   6.233  16.598  0.00  0.00    +0.000 A 
ATOM      4  C   UNL     1       4.732   5.334  17.512  0.00  0.00    +0.000 A 
ATOM      5  C   UNL     1       4.567   3.989  17.160  0.00  0.00    +0.000 A 
ATOM      6  C   UNL     1       4.974   3.550  15.894  0.00  0.00    +0.000 A 
ATOM      7  C   UNL     1       4.017   3.048  18.123  0.00  0.00    +0.000 C 
ATOM      8  C   UNL     1       3.617   3.559  19.293  0.00  0.00    +0.000 C 
ATOM      9  C   UNL     1       3.675   5.005  19.677  0.00  0.00    +0.000 C 
ATOM     10  O   UNL     1       4.425   5.840  18.744  0.00  0.00    +0.000 OA
ENDROOT
BRANCH   9  11
ATOM     11  C   UNL     1       2.283   5.626  19.913  0.00  0.00    +0.000 C 
ATOM     12  F   UNL     1       2.268   6.966  19.730  0.00  0.00    +0.000 F 
ATOM     13  F   UNL     1       1.363   5.088  19.077  0.00  0.00    +0.000 F 
ATOM     14  F   UNL     1       1.837   5.409  21.174  0.00  0.00    +0.000 F 
ENDBRANCH   9  11
BRANCH   8  15
ATOM     15  N   UNL     1       3.141   2.645  20.319  0.00  0.00    +0.000 N 
ATOM     16  O   UNL     1       1.983   2.220  20.239  0.00  0.00    +0.000 OA
ATOM     17  O   UNL     1       3.949   2.329  21.202  0.00  0.00    +0.000 OA
ENDBRANCH   8  15
BRANCH   1  19
ATOM     18  C   UNL     1       6.344   3.608  12.622  0.00  0.00    +0.000 C 
ATOM     19  C   UNL     1       5.971   3.984  13.701  0.00  0.00    +0.000 C 
ENDBRANCH   1  19
TORSDOF 3
ENDMDL
MODEL 2
REMARK VINA RESULT:      -7.3      3.058      4.060
REMARK  Name = 
REMARK  3 active torsions:
REMARK  status: ('A' for Active; 'I' for Inactive)
REMARK    1  A    between atoms: C_2  and  C_3
REMARK    2  A    between atoms: C_10  and  N_11
REMARK    3  A    between atoms: C_14  and  C_15
REMARK                            x       y       z     vdW  Elec       q    Type
REMARK                         _______ _______ _______ _____ _____    ______ ____
ROOT
ATOM      1  C   UNL     1       5.296   3.835  12.754  0.00  0.00    +0.000 A 
ATOM      2  C   UNL     1       6.630   4.193  12.552  0.00  0.00    +0.000 A 
ATOM      3  C   UNL     1       7.412   4.612  13.632  0.00  0.00    +0.000 A 
ATOM      4  C   UNL     1       6.862   4.676  14.913  0.00  0.00    +0.000 A 
ATOM      5  C   UNL     1       5.521   4.334  15.118  0.00  0.00    +0.000 A 
ATOM      6  C   UNL     1       4.741   3.910  14.034  0.00  0.00    +0.000 A 
ATOM      7  C   UNL     1       4.956   4.376  16.458  0.00  0.00    +0.000 C 
ATOM      8  C   UNL     1       5.758   4.831  17.428  0.00  0.00    +0.000 C 
ATOM      9  C   UNL     1       7.165   5.308  17.242  0.00  0.00    +0.000 C 
ATOM     10  O   UNL     1       7.716   5.039  15.917  0.00  0.00    +0.000 OA
ENDROOT
BRANCH   9  11
ATOM     11  C   UNL     1       7.347   6.804  17.576  0.00  0.00    +0.000 C 
ATOM     12  F   UNL     1       8.131   7.449  16.682  0.00  0.00    +0.000 F 
ATOM     13  F   UNL     1       6.154   7.442  17.611  0.00  0.00    +0.000 F 
ATOM     14  F   UNL     1       7.923   6.986  18.789  0.00  0.00    +0.000 F 
ENDBRANCH   9  11
BRANCH   8  15
ATOM     15  N   UNL     1       5.266   4.811  18.796  0.00  0.00    +0.000 N 
ATOM     16  O   UNL     1       4.258   5.471  19.070  0.00  0.00    +0.000 OA
ATOM     17  O   UNL     1       5.886   4.102  19.599  0.00  0.00    +0.000 OA
ENDBRANCH   8  15
BRANCH   1  19
ATOM     18  C   UNL     1       3.818   3.006  10.738  0.00  0.00    +0.000 C 
ATOM     19  C   UNL     1       4.497   3.377  11.658  0.00  0.00    +0.000 C 
ENDBRANCH   1  19
TORSDOF 3
ENDMDL
MODEL 3
REMARK VINA RESULT:      -7.3      3.078      4.161
REMARK  Name = 
REMARK  3 active torsions:
REMARK  status: ('A' for Active; 'I' for Inactive)
REMARK    1  A    between atoms: C_2  and  C_3
REMARK    2  A    between atoms: C_10  and  N_11
REMARK    3  A    between atoms: C_14  and  C_15
REMARK                            x       y       z     vdW  Elec       q    Type
REMARK                         _______ _______ _______ _____ _____    ______ ____
ROOT
ATOM      1  C   UNL     1       5.283   3.836  12.715  0.00  0.00    +0.000 A 
ATOM      2  C   UNL     1       6.608   4.222  12.503  0.00  0.00    +0.000 A 
ATOM      3  C   UNL     1       7.392   4.652  13.577  0.00  0.00    +0.000 A 
ATOM      4  C   UNL     1       6.852   4.702  14.863  0.00  0.00    +0.000 A 
ATOM      5  C   UNL     1       5.519   4.332  15.079  0.00  0.00    +0.000 A 
ATOM      6  C   UNL     1       4.738   3.896  14.001  0.00  0.00    +0.000 A 
ATOM      7  C   UNL     1       4.966   4.359  16.424  0.00  0.00    +0.000 C 
ATOM      8  C   UNL     1       5.768   4.826  17.388  0.00  0.00    +0.000 C 
ATOM      9  C   UNL     1       7.163   5.332  17.191  0.00  0.00    +0.000 C 
ATOM     10  O   UNL     1       7.707   5.078  15.861  0.00  0.00    +0.000 OA
ENDROOT
BRANCH   9  11
ATOM     11  C   UNL     1       7.318   6.830  17.528  0.00  0.00    +0.000 C 
ATOM     12  F   UNL     1       7.848   7.040  18.755  0.00  0.00    +0.000 F 
ATOM     13  F   UNL     1       8.114   7.451  16.626  0.00  0.00    +0.000 F 
ATOM     14  F   UNL     1       6.128   7.480  17.512  0.00  0.00    +0.000 F 
ENDBRANCH   9  11
BRANCH   8  15
ATOM     15  N   UNL     1       5.289   4.792  18.761  0.00  0.00    +0.000 N 
ATOM     16  O   UNL     1       5.988   4.237  19.616  0.00  0.00    +0.000 OA
ATOM     17  O   UNL     1       4.210   5.354  18.988  0.00  0.00    +0.000 OA
ENDBRANCH   8  15
BRANCH   1  19
ATOM     18  C   UNL     1       3.824   2.974  10.700  0.00  0.00    +0.000 C 
ATOM     19  C   UNL     1       4.483   3.366  11.626  0.00  0.00    +0.000 C 
ENDBRANCH   1  19
TORSDOF 3
ENDMDL
MODEL 4
REMARK VINA RESULT:      -7.0      3.760      5.692
REMARK  Name = 
REMARK  3 active torsions:
REMARK  status: ('A' for Active; 'I' for Inactive)
REMARK    1  A    between atoms: C_2  and  C_3
REMARK    2  A    between atoms: C_10  and  N_11
REMARK    3  A    between atoms: C_14  and  C_15
REMARK                            x       y       z     vdW  Elec       q    Type
REMARK                         _______ _______ _______ _____ _____    ______ ____
ROOT
ATOM      1  C   UNL     1       2.590   4.248  20.255  0.00  0.00    +0.000 A 
ATOM      2  C   UNL     1       2.227   5.591  20.138  0.00  0.00    +0.000 A 
ATOM      3  C   UNL     1       2.934   6.434  19.275  0.00  0.00    +0.000 A 
ATOM      4  C   UNL     1       4.005   5.937  18.533  0.00  0.00    +0.000 A 
ATOM      5  C   UNL     1       4.384   4.595  18.658  0.00  0.00    +0.000 A 
ATOM      6  C   UNL     1       3.670   3.753  19.520  0.00  0.00    +0.000 A 
ATOM      7  C   UNL     1       5.484   4.073  17.863  0.00  0.00    +0.000 C 
ATOM      8  C   UNL     1       6.137   4.954  17.097  0.00  0.00    +0.000 C 
ATOM      9  C   UNL     1       5.838   6.418  17.008  0.00  0.00    +0.000 C 
ATOM     10  O   UNL     1       4.600   6.816  17.671  0.00  0.00    +0.000 OA
ENDROOT
BRANCH   9  11
ATOM     11  C   UNL     1       6.996   7.305  17.514  0.00  0.00    +0.000 C 
ATOM     12  F   UNL     1       6.611   8.577  17.766  0.00  0.00    +0.000 F 
ATOM     13  F   UNL     1       7.529   6.805  18.654  0.00  0.00    +0.000 F 
ATOM     14  F   UNL     1       8.005   7.384  16.613  0.00  0.00    +0.000 F 
ENDBRANCH   9  11
BRANCH   8  15
ATOM     15  N   UNL     1       7.188   4.463  16.221  0.00  0.00    +0.000 N 
ATOM     16  O   UNL     1       6.966   4.408  15.006  0.00  0.00    +0.000 OA
ATOM     17  O   UNL     1       8.259   4.152  16.757  0.00  0.00    +0.000 OA
ENDBRANCH   8  15
BRANCH   1  19
ATOM     18  C   UNL     1       1.234   2.647  21.847  0.00  0.00    +0.000 C 
ATOM     19  C   UNL     1       1.852   3.372  21.113  0.00  0.00    +0.000 C 
ENDBRANCH   1  19
TORSDOF 3
ENDMDL
MODEL 5
REMARK VINA RESULT:      -7.0      2.812      3.951
REMARK  Name = 
REMARK  3 active torsions:
REMARK  status: ('A' for Active; 'I' for Inactive)
REMARK    1  A    between atoms: C_2  and  C_3
REMARK    2  A    between atoms: C_10  and  N_11
REMARK    3  A    between atoms: C_14  and  C_15
REMARK                            x       y       z     vdW  Elec       q    Type
REMARK                         _______ _______ _______ _____ _____    ______ ____
ROOT
ATOM      1  C   UNL     1       6.822   6.726  17.500  0.00  0.00    +0.000 A 
ATOM      2  C   UNL     1       7.387   5.633  16.840  0.00  0.00    +0.000 A 
ATOM      3  C   UNL     1       6.650   4.457  16.677  0.00  0.00    +0.000 A 
ATOM      4  C   UNL     1       5.351   4.370  17.178  0.00  0.00    +0.000 A 
ATOM      5  C   UNL     1       4.785   5.457  17.855  0.00  0.00    +0.000 A 
ATOM      6  C   UNL     1       5.525   6.635  18.011  0.00  0.00    +0.000 A 
ATOM      7  C   UNL     1       3.421   5.373  18.352  0.00  0.00    +0.000 C 
ATOM      8  C   UNL     1       2.801   4.198  18.197  0.00  0.00    +0.000 C 
ATOM      9  C   UNL     1       3.399   2.974  17.575  0.00  0.00    +0.000 C 
ATOM     10  O   UNL     1       4.684   3.204  16.922  0.00  0.00    +0.000 OA
ENDROOT
BRANCH   9  11
ATOM     11  C   UNL     1       3.532   1.795  18.562  0.00  0.00    +0.000 C 
ATOM     12  F   UNL     1       2.341   1.390  19.060  0.00  0.00    +0.000 F 
ATOM     13  F   UNL     1       4.112   0.727  17.968  0.00  0.00    +0.000 F 
ATOM     14  F   UNL     1       4.303   2.114  19.631  0.00  0.00    +0.000 F 
ENDBRANCH   9  11
BRANCH   8  15
ATOM     15  N   UNL     1       1.409   4.093  18.601  0.00  0.00    +0.000 N 
ATOM     16  O   UNL     1       1.101   4.423  19.753  0.00  0.00    +0.000 OA
ATOM     17  O   UNL     1       0.608   3.698  17.743  0.00  0.00    +0.000 OA
ENDBRANCH   8  15
BRANCH   1  19
ATOM     18  C   UNL     1       8.183   8.967  17.747  0.00  0.00    +0.000 C 
ATOM     19  C   UNL     1       7.560   7.944  17.643  0.00  0.00    +0.000 C 
ENDBRANCH   1  19
TORSDOF 3
ENDMDL
MODEL 6
REMARK VINA RESULT:      -6.9      3.148      5.592
REMARK  Name = 
REMARK  3 active torsions:
REMARK  status: ('A' for Active; 'I' for Inactive)
REMARK    1  A    between atoms: C_2  and  C_3
REMARK    2  A    between atoms: C_10  and  N_11
REMARK    3  A    between atoms: C_14  and  C_15
REMARK                            x       y       z     vdW  Elec       q    Type
REMARK                         _______ _______ _______ _____ _____    ______ ____
ROOT
ATOM      1  C   UNL     1       2.056   3.193  20.264  0.00  0.00    +0.000 A 
ATOM      2  C   UNL     1       1.264   3.466  19.147  0.00  0.00    +0.000 A 
ATOM      3  C   UNL     1       1.852   3.948  17.974  0.00  0.00    +0.000 A 
ATOM      4  C   UNL     1       3.229   4.161  17.917  0.00  0.00    +0.000 A 
ATOM      5  C   UNL     1       4.026   3.905  19.038  0.00  0.00    +0.000 A 
ATOM      6  C   UNL     1       3.434   3.417  20.211  0.00  0.00    +0.000 A 
ATOM      7  C   UNL     1       5.466   4.103  18.969  0.00  0.00    +0.000 C 
ATOM      8  C   UNL     1       5.942   4.609  17.826  0.00  0.00    +0.000 C 
ATOM      9  C   UNL     1       5.121   4.998  16.636  0.00  0.00    +0.000 C 
ATOM     10  O   UNL     1       3.725   4.577  16.712  0.00  0.00    +0.000 OA
ENDROOT
BRANCH   9  11
ATOM     11  C   UNL     1       5.181   6.508  16.325  0.00  0.00    +0.000 C 
ATOM     12  F   UNL     1       6.325   7.088  16.757  0.00  0.00    +0.000 F 
ATOM     13  F   UNL     1       5.085   6.734  14.994  0.00  0.00    +0.000 F 
ATOM     14  F   UNL     1       4.166   7.188  16.911  0.00  0.00    +0.000 F 
ENDBRANCH   9  11
BRANCH   8  15
ATOM     15  N   UNL     1       7.382   4.744  17.679  0.00  0.00    +0.000 N 
ATOM     16  O   UNL     1       8.041   5.141  18.647  0.00  0.00    +0.000 OA
ATOM     17  O   UNL     1       7.862   4.423  16.584  0.00  0.00    +0.000 OA
ENDBRANCH   8  15
BRANCH   1  19
ATOM     18  C   UNL     1       0.955   2.233  22.455  0.00  0.00    +0.000 C 
ATOM     19  C   UNL     1       1.465   2.671  21.458  0.00  0.00    +0.000 C 
ENDBRANCH   1  19
TORSDOF 3
ENDMDL
MODEL 7
REMARK VINA RESULT:      -6.9      2.808      3.942
REMARK  Name = 
REMARK  3 active torsions:
REMARK  status: ('A' for Active; 'I' for Inactive)
REMARK    1  A    between atoms: C_2  and  C_3
REMARK    2  A    between atoms: C_10  and  N_11
REMARK    3  A    between atoms: C_14  and  C_15
REMARK                            x       y       z     vdW  Elec       q    Type
REMARK                         _______ _______ _______ _____ _____    ______ ____
ROOT
ATOM      1  C   UNL     1       6.835   6.705  17.507  0.00  0.00    +0.000 A 
ATOM      2  C   UNL     1       7.402   5.612  16.848  0.00  0.00    +0.000 A 
ATOM      3  C   UNL     1       6.668   4.433  16.691  0.00  0.00    +0.000 A 
ATOM      4  C   UNL     1       5.371   4.343  17.196  0.00  0.00    +0.000 A 
ATOM      5  C   UNL     1       4.803   5.429  17.872  0.00  0.00    +0.000 A 
ATOM      6  C   UNL     1       5.539   6.611  18.022  0.00  0.00    +0.000 A 
ATOM      7  C   UNL     1       3.441   5.342  18.374  0.00  0.00    +0.000 C 
ATOM      8  C   UNL     1       2.825   4.165  18.224  0.00  0.00    +0.000 C 
ATOM      9  C   UNL     1       3.425   2.941  17.603  0.00  0.00    +0.000 C 
ATOM     10  O   UNL     1       4.707   3.174  16.945  0.00  0.00    +0.000 OA
ENDROOT
BRANCH   9  11
ATOM     11  C   UNL     1       3.565   1.766  18.593  0.00  0.00    +0.000 C 
ATOM     12  F   UNL     1       4.090   0.658  18.021  0.00  0.00    +0.000 F 
ATOM     13  F   UNL     1       4.357   2.102  19.638  0.00  0.00    +0.000 F 
ATOM     14  F   UNL     1       2.369   1.395  19.112  0.00  0.00    +0.000 F 
ENDBRANCH   9  11
BRANCH   8  15
ATOM     15  N   UNL     1       1.434   4.056  18.632  0.00  0.00    +0.000 N 
ATOM     16  O   UNL     1       0.611   3.624  17.817  0.00  0.00    +0.000 OA
ATOM     17  O   UNL     1       1.169   4.384  19.796  0.00  0.00    +0.000 OA
ENDBRANCH   8  15
BRANCH   1  19
ATOM     18  C   UNL     1       8.196   8.946  17.750  0.00  0.00    +0.000 C 
ATOM     19  C   UNL     1       7.569   7.926  17.645  0.00  0.00    +0.000 C 
ENDBRANCH   1  19
TORSDOF 3
ENDMDL
MODEL 8
REMARK VINA RESULT:      -6.9      1.111      1.384
REMARK  Name = 
REMARK  3 active torsions:
REMARK  status: ('A' for Active; 'I' for Inactive)
REMARK    1  A    between atoms: C_2  and  C_3
REMARK    2  A    between atoms: C_10  and  N_11
REMARK    3  A    between atoms: C_14  and  C_15
REMARK                            x       y       z     vdW  Elec       q    Type
REMARK                         _______ _______ _______ _____ _____    ______ ____
ROOT
ATOM      1  C   UNL     1       6.288   4.939  15.383  0.00  0.00    +0.000 A 
ATOM      2  C   UNL     1       6.789   5.855  16.310  0.00  0.00    +0.000 A 
ATOM      3  C   UNL     1       6.196   5.971  17.570  0.00  0.00    +0.000 A 
ATOM      4  C   UNL     1       5.100   5.176  17.904  0.00  0.00    +0.000 A 
ATOM      5  C   UNL     1       4.583   4.267  16.973  0.00  0.00    +0.000 A 
ATOM      6  C   UNL     1       5.183   4.150  15.713  0.00  0.00    +0.000 A 
ATOM      7  C   UNL     1       3.456   3.420  17.333  0.00  0.00    +0.000 C 
ATOM      8  C   UNL     1       2.918   3.625  18.540  0.00  0.00    +0.000 C 
ATOM      9  C   UNL     1       3.367   4.655  19.530  0.00  0.00    +0.000 C 
ATOM     10  O   UNL     1       4.621   5.314  19.177  0.00  0.00    +0.000 OA
ENDROOT
BRANCH   9  11
ATOM     11  C   UNL     1       2.293   5.724  19.821  0.00  0.00    +0.000 C 
ATOM     12  F   UNL     1       2.824   6.922  20.159  0.00  0.00    +0.000 F 
ATOM     13  F   UNL     1       1.495   5.918  18.745  0.00  0.00    +0.000 F 
ATOM     14  F   UNL     1       1.484   5.364  20.847  0.00  0.00    +0.000 F 
ENDBRANCH   9  11
BRANCH   8  15
ATOM     15  N   UNL     1       1.846   2.746  18.977  0.00  0.00    +0.000 N 
ATOM     16  O   UNL     1       1.946   2.195  20.079  0.00  0.00    +0.000 OA
ATOM     17  O   UNL     1       0.878   2.626  18.214  0.00  0.00    +0.000 OA
ENDBRANCH   8  15
BRANCH   1  19
ATOM     18  C   UNL     1       7.432   4.655  13.028  0.00  0.00    +0.000 C 
ATOM     19  C   UNL     1       6.909   4.793  14.102  0.00  0.00    +0.000 C 
ENDBRANCH   1  19
TORSDOF 3
ENDMDL
MODEL 9
REMARK VINA RESULT:      -6.9      2.564      3.704
REMARK  Name = 
REMARK  3 active torsions:
REMARK  status: ('A' for Active; 'I' for Inactive)
REMARK    1  A    between atoms: C_2  and  C_3
REMARK    2  A    between atoms: C_10  and  N_11
REMARK    3  A    between atoms: C_14  and  C_15
REMARK                            x       y       z     vdW  Elec       q    Type
REMARK                         _______ _______ _______ _____ _____    ______ ____
ROOT
ATOM      1  C   UNL     1       6.428   6.667  17.493  0.00  0.00    +0.000 A 
ATOM      2  C   UNL     1       6.311   5.872  16.352  0.00  0.00    +0.000 A 
ATOM      3  C   UNL     1       5.335   4.874  16.291  0.00  0.00    +0.000 A 
ATOM      4  C   UNL     1       4.477   4.667  17.372  0.00  0.00    +0.000 A 
ATOM      5  C   UNL     1       4.600   5.451  18.525  0.00  0.00    +0.000 A 
ATOM      6  C   UNL     1       5.576   6.453  18.580  0.00  0.00    +0.000 A 
ATOM      7  C   UNL     1       3.687   5.251  19.641  0.00  0.00    +0.000 C 
ATOM      8  C   UNL     1       2.812   4.247  19.522  0.00  0.00    +0.000 C 
ATOM      9  C   UNL     1       2.710   3.314  18.355  0.00  0.00    +0.000 C 
ATOM     10  O   UNL     1       3.515   3.711  17.203  0.00  0.00    +0.000 OA
ENDROOT
BRANCH   9  11
ATOM     11  C   UNL     1       3.029   1.849  18.719  0.00  0.00    +0.000 C 
ATOM     12  F   UNL     1       3.945   1.742  19.710  0.00  0.00    +0.000 F 
ATOM     13  F   UNL     1       1.914   1.194  19.120  0.00  0.00    +0.000 F 
ATOM     14  F   UNL     1       3.528   1.161  17.664  0.00  0.00    +0.000 F 
ENDBRANCH   9  11
BRANCH   8  15
ATOM     15  N   UNL     1       1.824   4.063  20.573  0.00  0.00    +0.000 N 
ATOM     16  O   UNL     1       2.220   3.900  21.733  0.00  0.00    +0.000 OA
ATOM     17  O   UNL     1       0.635   4.110  20.233  0.00  0.00    +0.000 OA
ENDBRANCH   8  15
BRANCH   1  19
ATOM     18  C   UNL     1       8.217   8.596  17.607  0.00  0.00    +0.000 C 
ATOM     19  C   UNL     1       7.406   7.711  17.550  0.00  0.00    +0.000 C 
ENDBRANCH   1  19
TORSDOF 3
ENDMDL
