MODEL 1
REMARK VINA RESULT:      -8.1      0.000      0.000
REMARK  Name = 
REMARK  5 active torsions:
REMARK  status: ('A' for Active; 'I' for Inactive)
REMARK    1  A    between atoms: C_2  and  C_23
REMARK    2  A    between atoms: N_3  and  C_4
REMARK    3  A    between atoms: N_14  and  C_15
REMARK    4  A    between atoms: C_15  and  C_16
REMARK    5  A    between atoms: C_16  and  N_17
REMARK                            x       y       z     vdW  Elec       q    Type
REMARK                         _______ _______ _______ _____ _____    ______ ____
ROOT
ATOM      1  C   UNL     1       3.464   6.657  18.479  0.00  0.00    +0.000 A 
ATOM      2  C   UNL     1       3.238   7.625  17.491  0.00  0.00    +0.000 A 
ATOM      3  C   UNL     1       2.340   8.666  17.723  0.00  0.00    +0.000 A 
ATOM      4  C   UNL     1       1.628   8.748  18.933  0.00  0.00    +0.000 A 
ATOM      5  C   UNL     1       1.820   7.769  19.923  0.00  0.00    +0.000 A 
ATOM      6  C   UNL     1       2.737   6.731  19.685  0.00  0.00    +0.000 A 
ATOM      7  C   UNL     1       1.025   7.775  21.210  0.00  0.00    +0.000 C 
ATOM      8  C   UNL     1       1.277   8.999  22.090  0.00  0.00    +0.000 C 
ATOM      9  C   UNL     1       0.620  10.289  21.583  0.00  0.00    +0.000 C 
ATOM     10  C   UNL     1       1.092  10.778  20.216  0.00  0.00    +0.000 C 
ATOM     11  N   UNL     1       0.746   9.839  19.162  0.00  0.00    +0.000 N 
ENDROOT
BRANCH   1  14
ATOM     12  N   UNL     1       4.705   3.459  17.322  0.00  0.00    +0.000 NA
ATOM     13  C   UNL     1       4.002   4.233  18.069  0.00  0.00    +0.000 C 
ATOM     14  N   UNL     1       4.392   5.601  18.236  0.00  0.00    +0.000 N 
ATOM     15  H   UNL     1       5.527   3.806  16.807  0.00  0.00    +0.000 HD
ATOM     16  H   UNL     1       5.386   5.845  18.123  0.00  0.00    +0.000 HD
BRANCH  13  17
ATOM     17  C   UNL     1       2.857   3.658  18.819  0.00  0.00    +0.000 A 
ATOM     18  C   UNL     1       1.545   3.558  18.355  0.00  0.00    +0.000 A 
ATOM     19  C   UNL     1       0.664   3.009  19.288  0.00  0.00    +0.000 A 
ATOM     20  C   UNL     1       1.272   2.669  20.490  0.00  0.00    +0.000 A 
ATOM     21  S   UNL     1       2.901   3.082  20.400  0.00  0.00    +0.000 S 
ENDBRANCH  13  17
ENDBRANCH   1  14
BRANCH  11  22
ATOM     22  C   UNL     1      -0.424  10.115  18.327  0.00  0.00    +0.000 C 
BRANCH  22  23
ATOM     23  C   UNL     1      -0.890  11.593  18.310  0.00  0.00    +0.000 C 
BRANCH  23  24
ATOM     24  N   UNL     1      -2.280  11.779  17.817  0.00  0.00    +0.000 NA
ATOM     25  C   UNL     1      -2.674  10.758  16.815  0.00  0.00    +0.000 C 
ATOM     26  C   UNL     1      -4.098  11.033  16.302  0.00  0.00    +0.000 C 
ATOM     27  C   UNL     1      -5.085  11.015  17.465  0.00  0.00    +0.000 C 
ATOM     28  C   UNL     1      -4.649  12.045  18.507  0.00  0.00    +0.000 C 
ATOM     29  C   UNL     1      -3.215  11.751  18.966  0.00  0.00    +0.000 C 
ENDBRANCH  23  24
ENDBRANCH  22  23
ENDBRANCH  11  22
TORSDOF 5
ENDMDL
MODEL 2
REMARK VINA RESULT:      -8.1      0.366      1.008
REMARK  Name = 
REMARK  5 active torsions:
REMARK  status: ('A' for Active; 'I' for Inactive)
REMARK    1  A    between atoms: C_2  and  C_23
REMARK    2  A    between atoms: N_3  and  C_4
REMARK    3  A    between atoms: N_14  and  C_15
REMARK    4  A    between atoms: C_15  and  C_16
REMARK    5  A    between atoms: C_16  and  N_17
REMARK                            x       y       z     vdW  Elec       q    Type
REMARK                         _______ _______ _______ _____ _____    ______ ____
ROOT
ATOM      1  C   UNL     1       3.518   6.589  18.505  0.00  0.00    +0.000 A 
ATOM      2  C   UNL     1       3.301   7.544  17.503  0.00  0.00    +0.000 A 
ATOM      3  C   UNL     1       2.400   8.588  17.712  0.00  0.00    +0.000 A 
ATOM      4  C   UNL     1       1.677   8.685  18.913  0.00  0.00    +0.000 A 
ATOM      5  C   UNL     1       1.860   7.720  19.918  0.00  0.00    +0.000 A 
ATOM      6  C   UNL     1       2.779   6.679  19.704  0.00  0.00    +0.000 A 
ATOM      7  C   UNL     1       1.052   7.743  21.197  0.00  0.00    +0.000 C 
ATOM      8  C   UNL     1       1.295   8.979  22.063  0.00  0.00    +0.000 C 
ATOM      9  C   UNL     1       0.643  10.261  21.533  0.00  0.00    +0.000 C 
ATOM     10  C   UNL     1       1.127  10.732  20.164  0.00  0.00    +0.000 C 
ATOM     11  N   UNL     1       0.791   9.779  19.119  0.00  0.00    +0.000 N 
ENDROOT
BRANCH   1  14
ATOM     12  N   UNL     1       4.778   3.388  17.380  0.00  0.00    +0.000 NA
ATOM     13  C   UNL     1       4.059   4.165  18.108  0.00  0.00    +0.000 C 
ATOM     14  N   UNL     1       4.448   5.531  18.286  0.00  0.00    +0.000 N 
ATOM     15  H   UNL     1       5.614   3.733  16.885  0.00  0.00    +0.000 HD
ATOM     16  H   UNL     1       5.446   5.773  18.199  0.00  0.00    +0.000 HD
BRANCH  13  17
ATOM     17  C   UNL     1       2.893   3.593  18.828  0.00  0.00    +0.000 A 
ATOM     18  C   UNL     1       1.593   3.496  18.331  0.00  0.00    +0.000 A 
ATOM     19  C   UNL     1       0.687   2.950  19.242  0.00  0.00    +0.000 A 
ATOM     20  C   UNL     1       1.263   2.607  20.458  0.00  0.00    +0.000 A 
ATOM     21  S   UNL     1       2.896   3.015  20.410  0.00  0.00    +0.000 S 
ENDBRANCH  13  17
ENDBRANCH   1  14
BRANCH  11  22
ATOM     22  C   UNL     1      -0.371  10.043  18.270  0.00  0.00    +0.000 C 
BRANCH  22  23
ATOM     23  C   UNL     1      -1.324  11.152  18.780  0.00  0.00    +0.000 C 
BRANCH  23  24
ATOM     24  N   UNL     1      -2.721  11.015  18.291  0.00  0.00    +0.000 NA
ATOM     25  C   UNL     1      -3.653  11.967  18.943  0.00  0.00    +0.000 C 
ATOM     26  C   UNL     1      -5.089  11.741  18.438  0.00  0.00    +0.000 C 
ATOM     27  C   UNL     1      -5.145  11.927  16.925  0.00  0.00    +0.000 C 
ATOM     28  C   UNL     1      -4.156  10.966  16.266  0.00  0.00    +0.000 C 
ATOM     29  C   UNL     1      -2.746  11.205  16.821  0.00  0.00    +0.000 C 
ENDBRANCH  23  24
ENDBRANCH  22  23
ENDBRANCH  11  22
TORSDOF 5
ENDMDL
MODEL 3
REMARK VINA RESULT:      -8.1      2.788      8.110
REMARK  Name = 
REMARK  5 active torsions:
REMARK  status: ('A' for Active; 'I' for Inactive)
REMARK    1  A    between atoms: C_2  and  C_23
REMARK    2  A    between atoms: N_3  and  C_4
REMARK    3  A    between atoms: N_14  and  C_15
REMARK    4  A    between atoms: C_15  and  C_16
REMARK    5  A    between atoms: C_16  and  N_17
REMARK                            x       y       z     vdW  Elec       q    Type
REMARK                         _______ _______ _______ _____ _____    ______ ____
ROOT
ATOM      1  C   UNL     1       1.813   7.778  20.959  0.00  0.00    +0.000 A 
ATOM      2  C   UNL     1       2.171   8.153  19.657  0.00  0.00    +0.000 A 
ATOM      3  C   UNL     1       2.380   7.181  18.680  0.00  0.00    +0.000 A 
ATOM      4  C   UNL     1       2.266   5.814  18.987  0.00  0.00    +0.000 A 
ATOM      5  C   UNL     1       1.937   5.418  20.295  0.00  0.00    +0.000 A 
ATOM      6  C   UNL     1       1.715   6.405  21.270  0.00  0.00    +0.000 A 
ATOM      7  C   UNL     1       1.873   3.959  20.689  0.00  0.00    +0.000 C 
ATOM      8  C   UNL     1       0.786   3.166  19.964  0.00  0.00    +0.000 C 
ATOM      9  C   UNL     1       1.111   2.840  18.501  0.00  0.00    +0.000 C 
ATOM     10  C   UNL     1       1.295   4.043  17.580  0.00  0.00    +0.000 C 
ATOM     11  N   UNL     1       2.448   4.842  17.965  0.00  0.00    +0.000 N 
ENDROOT
BRANCH   1  14
ATOM     12  N   UNL     1       0.024  10.227  22.935  0.00  0.00    +0.000 NA
ATOM     13  C   UNL     1       0.549   9.757  21.860  0.00  0.00    +0.000 C 
ATOM     14  N   UNL     1       1.592   8.780  21.949  0.00  0.00    +0.000 N 
ATOM     15  H   UNL     1       0.309   9.890  23.866  0.00  0.00    +0.000 HD
ATOM     16  H   UNL     1       2.179   8.765  22.795  0.00  0.00    +0.000 HD
BRANCH  13  17
ATOM     17  C   UNL     1       0.125  10.319  20.553  0.00  0.00    +0.000 A 
ATOM     18  C   UNL     1      -0.891   9.816  19.739  0.00  0.00    +0.000 A 
ATOM     19  C   UNL     1      -1.049  10.521  18.545  0.00  0.00    +0.000 A 
ATOM     20  C   UNL     1      -0.166  11.584  18.408  0.00  0.00    +0.000 A 
ATOM     21  S   UNL     1       0.832  11.626  19.763  0.00  0.00    +0.000 S 
ENDBRANCH  13  17
ENDBRANCH   1  14
BRANCH  11  22
ATOM     22  C   UNL     1       3.697   4.682  17.221  0.00  0.00    +0.000 C 
BRANCH  22  23
ATOM     23  C   UNL     1       4.870   4.064  18.022  0.00  0.00    +0.000 C 
BRANCH  23  24
ATOM     24  N   UNL     1       6.142   4.824  17.907  0.00  0.00    +0.000 NA
ATOM     25  C   UNL     1       6.031   5.995  17.004  0.00  0.00    +0.000 C 
ATOM     26  C   UNL     1       7.389   6.708  16.881  0.00  0.00    +0.000 C 
ATOM     27  C   UNL     1       7.864   7.166  18.256  0.00  0.00    +0.000 C 
ATOM     28  C   UNL     1       7.942   5.957  19.187  0.00  0.00    +0.000 C 
ATOM     29  C   UNL     1       6.577   5.260  19.255  0.00  0.00    +0.000 C 
ENDBRANCH  23  24
ENDBRANCH  22  23
ENDBRANCH  11  22
TORSDOF 5
ENDMDL
MODEL 4
REMARK VINA RESULT:      -7.8      0.916      1.482
REMARK  Name = 
REMARK  5 active torsions:
REMARK  status: ('A' for Active; 'I' for Inactive)
REMARK    1  A    between atoms: C_2  and  C_23
REMARK    2  A    between atoms: N_3  and  C_4
REMARK    3  A    between atoms: N_14  and  C_15
REMARK    4  A    between atoms: C_15  and  C_16
REMARK    5  A    between atoms: C_16  and  N_17
REMARK                            x       y       z     vdW  Elec       q    Type
REMARK                         _______ _______ _______ _____ _____    ______ ____
ROOT
ATOM      1  C   UNL     1       3.445   6.686  18.519  0.00  0.00    +0.000 A 
ATOM      2  C   UNL     1       3.312   7.687  17.547  0.00  0.00    +0.000 A 
ATOM      3  C   UNL     1       2.459   8.768  17.767  0.00  0.00    +0.000 A 
ATOM      4  C   UNL     1       1.700   8.859  18.946  0.00  0.00    +0.000 A 
ATOM      5  C   UNL     1       1.798   7.849  19.919  0.00  0.00    +0.000 A 
ATOM      6  C   UNL     1       2.670   6.770  19.695  0.00  0.00    +0.000 A 
ATOM      7  C   UNL     1       0.947   7.867  21.170  0.00  0.00    +0.000 C 
ATOM      8  C   UNL     1       1.223   9.055  22.091  0.00  0.00    +0.000 C 
ATOM      9  C   UNL     1       0.656  10.388  21.589  0.00  0.00    +0.000 C 
ATOM     10  C   UNL     1       1.212  10.884  20.257  0.00  0.00    +0.000 C 
ATOM     11  N   UNL     1       0.865   9.989  19.165  0.00  0.00    +0.000 N 
ENDROOT
BRANCH   1  14
ATOM     12  N   UNL     1       4.526   3.386  17.497  0.00  0.00    +0.000 NA
ATOM     13  C   UNL     1       3.891   4.227  18.232  0.00  0.00    +0.000 C 
ATOM     14  N   UNL     1       4.327   5.589  18.289  0.00  0.00    +0.000 N 
ATOM     15  H   UNL     1       5.324   3.675  16.912  0.00  0.00    +0.000 HD
ATOM     16  H   UNL     1       5.319   5.795  18.103  0.00  0.00    +0.000 HD
BRANCH  13  17
ATOM     17  C   UNL     1       2.778   3.734  19.083  0.00  0.00    +0.000 A 
ATOM     18  C   UNL     1       2.866   3.416  20.439  0.00  0.00    +0.000 A 
ATOM     19  C   UNL     1       1.671   2.939  20.978  0.00  0.00    +0.000 A 
ATOM     20  C   UNL     1       0.632   2.882  20.058  0.00  0.00    +0.000 A 
ATOM     21  S   UNL     1       1.213   3.396  18.565  0.00  0.00    +0.000 S 
ENDBRANCH  13  17
ENDBRANCH   1  14
BRANCH  11  22
ATOM     22  C   UNL     1      -0.251  10.345  18.288  0.00  0.00    +0.000 C 
BRANCH  22  23
ATOM     23  C   UNL     1      -1.660  10.036  18.853  0.00  0.00    +0.000 C 
BRANCH  23  24
ATOM     24  N   UNL     1      -2.739  10.082  17.832  0.00  0.00    +0.000 NA
ATOM     25  C   UNL     1      -3.478  11.368  17.837  0.00  0.00    +0.000 C 
ATOM     26  C   UNL     1      -4.615  11.336  16.800  0.00  0.00    +0.000 C 
ATOM     27  C   UNL     1      -4.045  11.079  15.408  0.00  0.00    +0.000 C 
ATOM     28  C   UNL     1      -3.257   9.770  15.425  0.00  0.00    +0.000 C 
ATOM     29  C   UNL     1      -2.157   9.834  16.492  0.00  0.00    +0.000 C 
ENDBRANCH  23  24
ENDBRANCH  22  23
ENDBRANCH  11  22
TORSDOF 5
ENDMDL
MODEL 5
REMARK VINA RESULT:      -7.6      3.031      5.517
REMARK  Name = 
REMARK  5 active torsions:
REMARK  status: ('A' for Active; 'I' for Inactive)
REMARK    1  A    between atoms: C_2  and  C_23
REMARK    2  A    between atoms: N_3  and  C_4
REMARK    3  A    between atoms: N_14  and  C_15
REMARK    4  A    between atoms: C_15  and  C_16
REMARK    5  A    between atoms: C_16  and  N_17
REMARK                            x       y       z     vdW  Elec       q    Type
REMARK                         _______ _______ _______ _____ _____    ______ ____
ROOT
ATOM      1  C   UNL     1       4.220   5.247  16.991  0.00  0.00    +0.000 A 
ATOM      2  C   UNL     1       4.248   6.315  17.898  0.00  0.00    +0.000 A 
ATOM      3  C   UNL     1       3.409   6.311  19.012  0.00  0.00    +0.000 A 
ATOM      4  C   UNL     1       2.505   5.257  19.230  0.00  0.00    +0.000 A 
ATOM      5  C   UNL     1       2.442   4.191  18.315  0.00  0.00    +0.000 A 
ATOM      6  C   UNL     1       3.300   4.197  17.203  0.00  0.00    +0.000 A 
ATOM      7  C   UNL     1       1.436   3.072  18.470  0.00  0.00    +0.000 C 
ATOM      8  C   UNL     1       1.628   2.235  19.734  0.00  0.00    +0.000 C 
ATOM      9  C   UNL     1       1.175   2.928  21.025  0.00  0.00    +0.000 C 
ATOM     10  C   UNL     1       1.917   4.214  21.380  0.00  0.00    +0.000 C 
ATOM     11  N   UNL     1       1.686   5.256  20.392  0.00  0.00    +0.000 N 
ENDROOT
BRANCH   1  14
ATOM     12  N   UNL     1       7.210   4.675  15.033  0.00  0.00    +0.000 NA
ATOM     13  C   UNL     1       6.516   5.225  15.964  0.00  0.00    +0.000 C 
ATOM     14  N   UNL     1       5.088   5.255  15.860  0.00  0.00    +0.000 N 
ATOM     15  H   UNL     1       6.762   4.218  14.225  0.00  0.00    +0.000 HD
ATOM     16  H   UNL     1       4.663   5.228  14.922  0.00  0.00    +0.000 HD
BRANCH  13  17
ATOM     17  C   UNL     1       7.225   5.905  17.077  0.00  0.00    +0.000 A 
ATOM     18  C   UNL     1       7.676   5.298  18.250  0.00  0.00    +0.000 A 
ATOM     19  C   UNL     1       8.276   6.187  19.143  0.00  0.00    +0.000 A 
ATOM     20  C   UNL     1       8.308   7.497  18.682  0.00  0.00    +0.000 A 
ATOM     21  S   UNL     1       7.560   7.552  17.176  0.00  0.00    +0.000 S 
ENDBRANCH  13  17
ENDBRANCH   1  14
BRANCH  11  22
ATOM     22  C   UNL     1       0.707   6.303  20.686  0.00  0.00    +0.000 C 
BRANCH  22  23
ATOM     23  C   UNL     1       1.305   7.666  21.116  0.00  0.00    +0.000 C 
BRANCH  23  24
ATOM     24  N   UNL     1       0.283   8.708  21.396  0.00  0.00    +0.000 NA
ATOM     25  C   UNL     1       0.356   9.225  22.784  0.00  0.00    +0.000 C 
ATOM     26  C   UNL     1      -0.757  10.258  23.030  0.00  0.00    +0.000 C 
ATOM     27  C   UNL     1      -0.622  11.416  22.046  0.00  0.00    +0.000 C 
ATOM     28  C   UNL     1      -0.664  10.867  20.620  0.00  0.00    +0.000 C 
ATOM     29  C   UNL     1       0.441   9.821  20.429  0.00  0.00    +0.000 C 
ENDBRANCH  23  24
ENDBRANCH  22  23
ENDBRANCH  11  22
TORSDOF 5
ENDMDL
MODEL 6
REMARK VINA RESULT:      -7.6      2.814      8.004
REMARK  Name = 
REMARK  5 active torsions:
REMARK  status: ('A' for Active; 'I' for Inactive)
REMARK    1  A    between atoms: C_2  and  C_23
REMARK    2  A    between atoms: N_3  and  C_4
REMARK    3  A    between atoms: N_14  and  C_15
REMARK    4  A    between atoms: C_15  and  C_16
REMARK    5  A    between atoms: C_16  and  N_17
REMARK                            x       y       z     vdW  Elec       q    Type
REMARK                         _______ _______ _______ _____ _____    ______ ____
ROOT
ATOM      1  C   UNL     1       1.563   8.601  20.306  0.00  0.00    +0.000 A 
ATOM      2  C   UNL     1       1.926   8.741  18.959  0.00  0.00    +0.000 A 
ATOM      3  C   UNL     1       2.224   7.615  18.192  0.00  0.00    +0.000 A 
ATOM      4  C   UNL     1       2.194   6.329  18.759  0.00  0.00    +0.000 A 
ATOM      5  C   UNL     1       1.860   6.172  20.116  0.00  0.00    +0.000 A 
ATOM      6  C   UNL     1       1.549   7.311  20.877  0.00  0.00    +0.000 A 
ATOM      7  C   UNL     1       1.884   4.816  20.786  0.00  0.00    +0.000 C 
ATOM      8  C   UNL     1       0.870   3.823  20.217  0.00  0.00    +0.000 C 
ATOM      9  C   UNL     1       1.252   3.243  18.850  0.00  0.00    +0.000 C 
ATOM     10  C   UNL     1       1.378   4.255  17.714  0.00  0.00    +0.000 C 
ATOM     11  N   UNL     1       2.465   5.192  17.949  0.00  0.00    +0.000 N 
ENDROOT
BRANCH   1  14
ATOM     12  N   UNL     1      -0.462  11.081  21.993  0.00  0.00    +0.000 NA
ATOM     13  C   UNL     1       0.012  10.467  20.969  0.00  0.00    +0.000 C 
ATOM     14  N   UNL     1       1.251   9.758  21.079  0.00  0.00    +0.000 N 
ATOM     15  H   UNL     1       0.011  11.048  22.909  0.00  0.00    +0.000 HD
ATOM     16  H   UNL     1       1.932  10.065  21.788  0.00  0.00    +0.000 HD
BRANCH  13  17
ATOM     17  C   UNL     1      -0.695  10.593  19.670  0.00  0.00    +0.000 A 
ATOM     18  C   UNL     1      -1.514   9.625  19.087  0.00  0.00    +0.000 A 
ATOM     19  C   UNL     1      -2.018   9.998  17.841  0.00  0.00    +0.000 A 
ATOM     20  C   UNL     1      -1.607  11.260  17.432  0.00  0.00    +0.000 A 
ATOM     21  S   UNL     1      -0.590  11.899  18.611  0.00  0.00    +0.000 S 
ENDBRANCH  13  17
ENDBRANCH   1  14
BRANCH  11  22
ATOM     22  C   UNL     1       3.740   4.980  17.263  0.00  0.00    +0.000 C 
BRANCH  22  23
ATOM     23  C   UNL     1       4.944   4.671  18.188  0.00  0.00    +0.000 C 
BRANCH  23  24
ATOM     24  N   UNL     1       5.851   5.828  18.400  0.00  0.00    +0.000 NA
ATOM     25  C   UNL     1       7.259   5.420  18.622  0.00  0.00    +0.000 C 
ATOM     26  C   UNL     1       8.139   6.654  18.890  0.00  0.00    +0.000 C 
ATOM     27  C   UNL     1       8.066   7.613  17.706  0.00  0.00    +0.000 C 
ATOM     28  C   UNL     1       6.607   8.000  17.464  0.00  0.00    +0.000 C 
ATOM     29  C   UNL     1       5.764   6.739  17.234  0.00  0.00    +0.000 C 
ENDBRANCH  23  24
ENDBRANCH  22  23
ENDBRANCH  11  22
TORSDOF 5
ENDMDL
MODEL 7
REMARK VINA RESULT:      -7.5      2.802      8.076
REMARK  Name = 
REMARK  5 active torsions:
REMARK  status: ('A' for Active; 'I' for Inactive)
REMARK    1  A    between atoms: C_2  and  C_23
REMARK    2  A    between atoms: N_3  and  C_4
REMARK    3  A    between atoms: N_14  and  C_15
REMARK    4  A    between atoms: C_15  and  C_16
REMARK    5  A    between atoms: C_16  and  N_17
REMARK                            x       y       z     vdW  Elec       q    Type
REMARK                         _______ _______ _______ _____ _____    ______ ____
ROOT
ATOM      1  C   UNL     1       1.737   9.008  19.550  0.00  0.00    +0.000 A 
ATOM      2  C   UNL     1       2.087   8.876  18.200  0.00  0.00    +0.000 A 
ATOM      3  C   UNL     1       2.350   7.616  17.663  0.00  0.00    +0.000 A 
ATOM      4  C   UNL     1       2.297   6.465  18.468  0.00  0.00    +0.000 A 
ATOM      5  C   UNL     1       1.976   6.581  19.832  0.00  0.00    +0.000 A 
ATOM      6  C   UNL     1       1.700   7.853  20.360  0.00  0.00    +0.000 A 
ATOM      7  C   UNL     1       1.977   5.380  20.752  0.00  0.00    +0.000 C 
ATOM      8  C   UNL     1       0.935   4.322  20.393  0.00  0.00    +0.000 C 
ATOM      9  C   UNL     1       1.287   3.479  19.161  0.00  0.00    +0.000 C 
ATOM     10  C   UNL     1       1.421   4.249  17.850  0.00  0.00    +0.000 C 
ATOM     11  N   UNL     1       2.532   5.187  17.891  0.00  0.00    +0.000 N 
ENDROOT
BRANCH   1  14
ATOM     12  N   UNL     1      -0.160  11.693  21.065  0.00  0.00    +0.000 NA
ATOM     13  C   UNL     1       0.148  10.871  20.127  0.00  0.00    +0.000 C 
ATOM     14  N   UNL     1       1.460  10.299  20.087  0.00  0.00    +0.000 N 
ATOM     15  H   UNL     1       0.505  11.926  21.818  0.00  0.00    +0.000 HD
ATOM     16  H   UNL     1       2.237  10.823  20.515  0.00  0.00    +0.000 HD
BRANCH  13  17
ATOM     17  C   UNL     1      -0.841  10.614  19.049  0.00  0.00    +0.000 A 
ATOM     18  C   UNL     1      -0.620   9.848  17.904  0.00  0.00    +0.000 A 
ATOM     19  C   UNL     1      -1.715   9.808  17.040  0.00  0.00    +0.000 A 
ATOM     20  C   UNL     1      -2.807  10.535  17.496  0.00  0.00    +0.000 A 
ATOM     21  S   UNL     1      -2.396  11.254  18.961  0.00  0.00    +0.000 S 
ENDBRANCH  13  17
ENDBRANCH   1  14
BRANCH  11  22
ATOM     22  C   UNL     1       3.794   4.815  17.250  0.00  0.00    +0.000 C 
BRANCH  22  23
ATOM     23  C   UNL     1       4.901   4.314  18.211  0.00  0.00    +0.000 C 
BRANCH  23  24
ATOM     24  N   UNL     1       6.198   5.024  18.054  0.00  0.00    +0.000 NA
ATOM     25  C   UNL     1       6.085   6.246  17.221  0.00  0.00    +0.000 C 
ATOM     26  C   UNL     1       7.464   6.906  17.050  0.00  0.00    +0.000 C 
ATOM     27  C   UNL     1       8.042   7.270  18.414  0.00  0.00    +0.000 C 
ATOM     28  C   UNL     1       8.120   6.010  19.276  0.00  0.00    +0.000 C 
ATOM     29  C   UNL     1       6.732   5.369  19.393  0.00  0.00    +0.000 C 
ENDBRANCH  23  24
ENDBRANCH  22  23
ENDBRANCH  11  22
TORSDOF 5
ENDMDL
MODEL 8
REMARK VINA RESULT:      -7.5      2.926      7.587
REMARK  Name = 
REMARK  5 active torsions:
REMARK  status: ('A' for Active; 'I' for Inactive)
REMARK    1  A    between atoms: C_2  and  C_23
REMARK    2  A    between atoms: N_3  and  C_4
REMARK    3  A    between atoms: N_14  and  C_15
REMARK    4  A    between atoms: C_15  and  C_16
REMARK    5  A    between atoms: C_16  and  N_17
REMARK                            x       y       z     vdW  Elec       q    Type
REMARK                         _______ _______ _______ _____ _____    ______ ____
ROOT
ATOM      1  C   UNL     1       2.421   8.067  17.898  0.00  0.00    +0.000 A 
ATOM      2  C   UNL     1       2.095   7.034  18.787  0.00  0.00    +0.000 A 
ATOM      3  C   UNL     1       3.014   6.018  19.050  0.00  0.00    +0.000 A 
ATOM      4  C   UNL     1       4.266   5.997  18.411  0.00  0.00    +0.000 A 
ATOM      5  C   UNL     1       4.599   7.009  17.494  0.00  0.00    +0.000 A 
ATOM      6  C   UNL     1       3.672   8.035  17.245  0.00  0.00    +0.000 A 
ATOM      7  C   UNL     1       5.904   6.988  16.729  0.00  0.00    +0.000 C 
ATOM      8  C   UNL     1       7.145   7.107  17.614  0.00  0.00    +0.000 C 
ATOM      9  C   UNL     1       7.489   5.833  18.395  0.00  0.00    +0.000 C 
ATOM     10  C   UNL     1       6.432   5.362  19.391  0.00  0.00    +0.000 C 
ATOM     11  N   UNL     1       5.201   4.972  18.722  0.00  0.00    +0.000 N 
ENDROOT
BRANCH   1  14
ATOM     12  N   UNL     1       0.660  11.200  18.327  0.00  0.00    +0.000 NA
ATOM     13  C   UNL     1       1.009  10.007  18.652  0.00  0.00    +0.000 C 
ATOM     14  N   UNL     1       1.478   9.106  17.643  0.00  0.00    +0.000 N 
ATOM     15  H   UNL     1       0.746  11.542  17.358  0.00  0.00    +0.000 HD
ATOM     16  H   UNL     1       1.161   9.246  16.674  0.00  0.00    +0.000 HD
BRANCH  13  17
ATOM     17  C   UNL     1       0.818   9.565  20.057  0.00  0.00    +0.000 A 
ATOM     18  C   UNL     1      -0.318   8.936  20.568  0.00  0.00    +0.000 A 
ATOM     19  C   UNL     1      -0.238   8.667  21.935  0.00  0.00    +0.000 A 
ATOM     20  C   UNL     1       0.958   9.074  22.511  0.00  0.00    +0.000 A 
ATOM     21  S   UNL     1       1.904   9.799  21.322  0.00  0.00    +0.000 S 
ENDBRANCH  13  17
ENDBRANCH   1  14
BRANCH  11  22
ATOM     22  C   UNL     1       4.940   3.550  18.499  0.00  0.00    +0.000 C 
BRANCH  22  23
ATOM     23  C   UNL     1       4.656   2.721  19.776  0.00  0.00    +0.000 C 
BRANCH  23  24
ATOM     24  N   UNL     1       3.214   2.443  20.004  0.00  0.00    +0.000 NA
ATOM     25  C   UNL     1       2.633   3.274  21.086  0.00  0.00    +0.000 C 
ATOM     26  C   UNL     1       1.157   2.904  21.312  0.00  0.00    +0.000 C 
ATOM     27  C   UNL     1       0.363   3.113  20.027  0.00  0.00    +0.000 C 
ATOM     28  C   UNL     1       0.992   2.280  18.910  0.00  0.00    +0.000 C 
ATOM     29  C   UNL     1       2.468   2.659  18.741  0.00  0.00    +0.000 C 
ENDBRANCH  23  24
ENDBRANCH  22  23
ENDBRANCH  11  22
TORSDOF 5
ENDMDL
MODEL 9
REMARK VINA RESULT:      -7.5      3.220      8.448
REMARK  Name = 
REMARK  5 active torsions:
REMARK  status: ('A' for Active; 'I' for Inactive)
REMARK    1  A    between atoms: C_2  and  C_23
REMARK    2  A    between atoms: N_3  and  C_4
REMARK    3  A    between atoms: N_14  and  C_15
REMARK    4  A    between atoms: C_15  and  C_16
REMARK    5  A    between atoms: C_16  and  N_17
REMARK                            x       y       z     vdW  Elec       q    Type
REMARK                         _______ _______ _______ _____ _____    ______ ____
ROOT
ATOM      1  C   UNL     1      -3.243  11.453  17.811  0.00  0.00    +0.000 A 
ATOM      2  C   UNL     1      -2.720  10.202  17.457  0.00  0.00    +0.000 A 
ATOM      3  C   UNL     1      -1.704   9.626  18.220  0.00  0.00    +0.000 A 
ATOM      4  C   UNL     1      -1.170  10.298  19.333  0.00  0.00    +0.000 A 
ATOM      5  C   UNL     1      -1.662  11.567  19.685  0.00  0.00    +0.000 A 
ATOM      6  C   UNL     1      -2.694  12.133  18.919  0.00  0.00    +0.000 A 
ATOM      7  C   UNL     1      -1.069  12.358  20.830  0.00  0.00    +0.000 C 
ATOM      8  C   UNL     1      -1.239  11.694  22.197  0.00  0.00    +0.000 C 
ATOM      9  C   UNL     1      -0.311  10.497  22.438  0.00  0.00    +0.000 C 
ATOM     10  C   UNL     1      -0.494   9.317  21.487  0.00  0.00    +0.000 C 
ATOM     11  N   UNL     1      -0.160   9.675  20.117  0.00  0.00    +0.000 N 
ENDROOT
BRANCH   1  14
ATOM     12  N   UNL     1      -6.209  13.383  17.049  0.00  0.00    +0.000 NA
ATOM     13  C   UNL     1      -5.559  12.406  17.572  0.00  0.00    +0.000 C 
ATOM     14  N   UNL     1      -4.288  12.029  17.030  0.00  0.00    +0.000 N 
ATOM     15  H   UNL     1      -5.821  13.932  16.266  0.00  0.00    +0.000 HD
ATOM     16  H   UNL     1      -4.098  12.231  16.038  0.00  0.00    +0.000 HD
BRANCH  13  17
ATOM     17  C   UNL     1      -6.194  11.630  18.667  0.00  0.00    +0.000 A 
ATOM     18  C   UNL     1      -6.556  10.284  18.610  0.00  0.00    +0.000 A 
ATOM     19  C   UNL     1      -7.172   9.822  19.774  0.00  0.00    +0.000 A 
ATOM     20  C   UNL     1      -7.297  10.795  20.758  0.00  0.00    +0.000 A 
ATOM     21  S   UNL     1      -6.667  12.239  20.164  0.00  0.00    +0.000 S 
ENDBRANCH  13  17
ENDBRANCH   1  14
BRANCH  11  22
ATOM     22  C   UNL     1       1.146   9.288  19.585  0.00  0.00    +0.000 C 
BRANCH  22  23
ATOM     23  C   UNL     1       1.852   8.134  20.341  0.00  0.00    +0.000 C 
BRANCH  23  24
ATOM     24  N   UNL     1       1.771   6.823  19.646  0.00  0.00    +0.000 NA
ATOM     25  C   UNL     1       2.874   6.618  18.676  0.00  0.00    +0.000 C 
ATOM     26  C   UNL     1       2.706   5.272  17.951  0.00  0.00    +0.000 C 
ATOM     27  C   UNL     1       2.698   4.130  18.962  0.00  0.00    +0.000 C 
ATOM     28  C   UNL     1       1.580   4.370  19.978  0.00  0.00    +0.000 C 
ATOM     29  C   UNL     1       1.770   5.735  20.652  0.00  0.00    +0.000 C 
ENDBRANCH  23  24
ENDBRANCH  22  23
ENDBRANCH  11  22
TORSDOF 5
ENDMDL
