MODEL 1
REMARK VINA RESULT:      -8.5      0.000      0.000
REMARK  Name = 
REMARK  11 active torsions:
REMARK  status: ('A' for Active; 'I' for Inactive)
REMARK    1  A    between atoms: C_1  and  C_2
REMARK    2  A    between atoms: C_5  and  C_6
REMARK    3  A    between atoms: C_7  and  C_8
REMARK    4  A    between atoms: C_8  and  O_9
REMARK    5  A    between atoms: O_9  and  C_10
REMARK    6  A    between atoms: C_15  and  C_16
REMARK    7  A    between atoms: N_18  and  C_19
REMARK    8  A    between atoms: C_19  and  C_20
REMARK    9  A    between atoms: C_19  and  C_21
REMARK   10  A    between atoms: C_21  and  C_22
REMARK   11  A    between atoms: C_22  and  C_23
REMARK                            x       y       z     vdW  Elec       q    Type
REMARK                         _______ _______ _______ _____ _____    ______ ____
ROOT
ATOM      1  C   UNL     1       2.735   3.928  17.967  0.00  0.00    +0.000 A 
ATOM      2  C   UNL     1       2.247   2.611  17.882  0.00  0.00    +0.000 A 
ATOM      3  C   UNL     1       1.325   2.116  18.804  0.00  0.00    +0.000 A 
ATOM      4  C   UNL     1       0.860   2.933  19.822  0.00  0.00    +0.000 A 
ATOM      5  C   UNL     1       1.311   4.249  19.909  0.00  0.00    +0.000 A 
ATOM      6  C   UNL     1       2.245   4.771  18.988  0.00  0.00    +0.000 A 
ENDROOT
BRANCH   6   7
ATOM      7  C   UNL     1       2.610   6.219  19.196  0.00  0.00    +0.000 C 
ATOM      8  O   UNL     1       3.729   6.515  19.610  0.00  0.00    +0.000 OA
ATOM      9  N   UNL     1       1.661   7.176  18.923  0.00  0.00    +0.000 N 
ATOM     10  H   UNL     1       0.787   6.873  18.508  0.00  0.00    +0.000 HD
BRANCH   9  11
ATOM     11  C   UNL     1       1.922   8.606  19.070  0.00  0.00    +0.000 C 
ATOM     12  C   UNL     1       2.284   9.218  17.715  0.00  0.00    +0.000 C 
BRANCH  11  13
ATOM     13  C   UNL     1       0.714   9.338  19.676  0.00  0.00    +0.000 C 
BRANCH  13  14
ATOM     14  C   UNL     1       0.394  10.655  18.956  0.00  0.00    +0.000 C 
BRANCH  14  15
ATOM     15  C   UNL     1      -1.027  10.682  18.442  0.00  0.00    +0.000 A 
ATOM     16  C   UNL     1      -1.418   9.835  17.396  0.00  0.00    +0.000 A 
ATOM     17  C   UNL     1      -2.726   9.868  16.905  0.00  0.00    +0.000 A 
ATOM     18  C   UNL     1      -3.655  10.751  17.456  0.00  0.00    +0.000 A 
ATOM     19  C   UNL     1      -3.276  11.595  18.498  0.00  0.00    +0.000 A 
ATOM     20  C   UNL     1      -1.969  11.564  18.988  0.00  0.00    +0.000 A 
ENDBRANCH  14  15
ENDBRANCH  13  14
ENDBRANCH  11  13
ENDBRANCH   9  11
ENDBRANCH   6   7
BRANCH   1  21
ATOM     21  O   UNL     1       3.620   4.445  17.051  0.00  0.00    +0.000 OA
BRANCH  21  22
ATOM     22  C   UNL     1       4.803   3.693  16.735  0.00  0.00    +0.000 C 
BRANCH  22  29
ATOM     23  C   UNL     1       5.963   3.810  13.581  0.00  0.00    +0.000 C 
ATOM     24  C   UNL     1       6.391   4.557  14.789  0.00  0.00    +0.000 A 
ATOM     25  N   UNL     1       7.411   5.418  14.679  0.00  0.00    +0.000 NA
ATOM     26  O   UNL     1       7.605   5.944  15.932  0.00  0.00    +0.000 OA
ATOM     27  C   UNL     1       6.711   5.403  16.796  0.00  0.00    +0.000 A 
ATOM     28  C   UNL     1       6.815   5.858  18.196  0.00  0.00    +0.000 C 
ATOM     29  C   UNL     1       5.896   4.507  16.127  0.00  0.00    +0.000 A 
ENDBRANCH  22  29
ENDBRANCH  21  22
ENDBRANCH   1  21
TORSDOF 8
ENDMDL
MODEL 2
REMARK VINA RESULT:      -8.3      1.361      2.123
REMARK  Name = 
REMARK  11 active torsions:
REMARK  status: ('A' for Active; 'I' for Inactive)
REMARK    1  A    between atoms: C_1  and  C_2
REMARK    2  A    between atoms: C_5  and  C_6
REMARK    3  A    between atoms: C_7  and  C_8
REMARK    4  A    between atoms: C_8  and  O_9
REMARK    5  A    between atoms: O_9  and  C_10
REMARK    6  A    between atoms: C_15  and  C_16
REMARK    7  A    between atoms: N_18  and  C_19
REMARK    8  A    between atoms: C_19  and  C_20
REMARK    9  A    between atoms: C_19  and  C_21
REMARK   10  A    between atoms: C_21  and  C_22
REMARK   11  A    between atoms: C_22  and  C_23
REMARK                            x       y       z     vdW  Elec       q    Type
REMARK                         _______ _______ _______ _____ _____    ______ ____
ROOT
ATOM      1  C   UNL     1       3.389   4.909  19.861  0.00  0.00    +0.000 A 
ATOM      2  C   UNL     1       3.520   3.509  19.795  0.00  0.00    +0.000 A 
ATOM      3  C   UNL     1       2.455   2.664  20.107  0.00  0.00    +0.000 A 
ATOM      4  C   UNL     1       1.233   3.201  20.477  0.00  0.00    +0.000 A 
ATOM      5  C   UNL     1       1.074   4.586  20.524  0.00  0.00    +0.000 A 
ATOM      6  C   UNL     1       2.138   5.461  20.214  0.00  0.00    +0.000 A 
ENDROOT
BRANCH   6   7
ATOM      7  C   UNL     1       1.801   6.928  20.279  0.00  0.00    +0.000 C 
ATOM      8  O   UNL     1       1.368   7.411  21.324  0.00  0.00    +0.000 OA
ATOM      9  N   UNL     1       1.981   7.690  19.148  0.00  0.00    +0.000 N 
ATOM     10  H   UNL     1       2.416   7.250  18.345  0.00  0.00    +0.000 HD
BRANCH   9  11
ATOM     11  C   UNL     1       1.705   9.124  19.115  0.00  0.00    +0.000 C 
ATOM     12  C   UNL     1       2.260   9.737  17.826  0.00  0.00    +0.000 C 
BRANCH  11  13
ATOM     13  C   UNL     1       0.198   9.409  19.230  0.00  0.00    +0.000 C 
BRANCH  13  14
ATOM     14  C   UNL     1      -0.191  10.785  18.675  0.00  0.00    +0.000 C 
BRANCH  14  15
ATOM     15  C   UNL     1      -1.572  10.770  18.059  0.00  0.00    +0.000 A 
ATOM     16  C   UNL     1      -1.861   9.912  16.990  0.00  0.00    +0.000 A 
ATOM     17  C   UNL     1      -3.131   9.907  16.406  0.00  0.00    +0.000 A 
ATOM     18  C   UNL     1      -4.122  10.763  16.886  0.00  0.00    +0.000 A 
ATOM     19  C   UNL     1      -3.844  11.619  17.949  0.00  0.00    +0.000 A 
ATOM     20  C   UNL     1      -2.576  11.626  18.533  0.00  0.00    +0.000 A 
ENDBRANCH  14  15
ENDBRANCH  13  14
ENDBRANCH  11  13
ENDBRANCH   9  11
ENDBRANCH   6   7
BRANCH   1  21
ATOM     21  O   UNL     1       4.416   5.759  19.528  0.00  0.00    +0.000 OA
BRANCH  21  22
ATOM     22  C   UNL     1       5.717   5.205  19.276  0.00  0.00    +0.000 C 
BRANCH  22  29
ATOM     23  C   UNL     1       8.140   7.373  18.417  0.00  0.00    +0.000 C 
ATOM     24  C   UNL     1       7.308   6.481  17.574  0.00  0.00    +0.000 A 
ATOM     25  N   UNL     1       7.487   6.508  16.247  0.00  0.00    +0.000 NA
ATOM     26  O   UNL     1       6.586   5.615  15.720  0.00  0.00    +0.000 OA
ATOM     27  C   UNL     1       5.865   5.053  16.722  0.00  0.00    +0.000 A 
ATOM     28  C   UNL     1       4.834   4.083  16.303  0.00  0.00    +0.000 C 
ATOM     29  C   UNL     1       6.280   5.559  17.940  0.00  0.00    +0.000 A 
ENDBRANCH  22  29
ENDBRANCH  21  22
ENDBRANCH   1  21
TORSDOF 8
ENDMDL
MODEL 3
REMARK VINA RESULT:      -8.1      1.987      2.690
REMARK  Name = 
REMARK  11 active torsions:
REMARK  status: ('A' for Active; 'I' for Inactive)
REMARK    1  A    between atoms: C_1  and  C_2
REMARK    2  A    between atoms: C_5  and  C_6
REMARK    3  A    between atoms: C_7  and  C_8
REMARK    4  A    between atoms: C_8  and  O_9
REMARK    5  A    between atoms: O_9  and  C_10
REMARK    6  A    between atoms: C_15  and  C_16
REMARK    7  A    between atoms: N_18  and  C_19
REMARK    8  A    between atoms: C_19  and  C_20
REMARK    9  A    between atoms: C_19  and  C_21
REMARK   10  A    between atoms: C_21  and  C_22
REMARK   11  A    between atoms: C_22  and  C_23
REMARK                            x       y       z     vdW  Elec       q    Type
REMARK                         _______ _______ _______ _____ _____    ______ ____
ROOT
ATOM      1  C   UNL     1       4.031   4.428  18.963  0.00  0.00    +0.000 A 
ATOM      2  C   UNL     1       3.952   3.023  18.985  0.00  0.00    +0.000 A 
ATOM      3  C   UNL     1       2.862   2.347  18.437  0.00  0.00    +0.000 A 
ATOM      4  C   UNL     1       1.834   3.062  17.844  0.00  0.00    +0.000 A 
ATOM      5  C   UNL     1       1.904   4.453  17.788  0.00  0.00    +0.000 A 
ATOM      6  C   UNL     1       2.997   5.159  18.337  0.00  0.00    +0.000 A 
ENDROOT
BRANCH   6   7
ATOM      7  C   UNL     1       2.942   6.655  18.171  0.00  0.00    +0.000 C 
ATOM      8  O   UNL     1       3.709   7.214  17.389  0.00  0.00    +0.000 OA
ATOM      9  N   UNL     1       2.029   7.362  18.920  0.00  0.00    +0.000 N 
ATOM     10  H   UNL     1       1.372   6.836  19.485  0.00  0.00    +0.000 HD
BRANCH   9  11
ATOM     11  C   UNL     1       1.882   8.811  18.816  0.00  0.00    +0.000 C 
ATOM     12  C   UNL     1       1.037   9.168  17.590  0.00  0.00    +0.000 C 
BRANCH  11  13
ATOM     13  C   UNL     1       1.249   9.404  20.086  0.00  0.00    +0.000 C 
BRANCH  13  14
ATOM     14  C   UNL     1       0.598  10.772  19.843  0.00  0.00    +0.000 C 
BRANCH  14  15
ATOM     15  C   UNL     1      -0.263  11.197  21.011  0.00  0.00    +0.000 A 
ATOM     16  C   UNL     1      -0.440  10.344  22.108  0.00  0.00    +0.000 A 
ATOM     17  C   UNL     1      -1.249  10.724  23.182  0.00  0.00    +0.000 A 
ATOM     18  C   UNL     1      -1.890  11.963  23.166  0.00  0.00    +0.000 A 
ATOM     19  C   UNL     1      -1.719  12.819  22.080  0.00  0.00    +0.000 A 
ATOM     20  C   UNL     1      -0.913  12.439  21.006  0.00  0.00    +0.000 A 
ENDBRANCH  14  15
ENDBRANCH  13  14
ENDBRANCH  11  13
ENDBRANCH   9  11
ENDBRANCH   6   7
BRANCH   1  21
ATOM     21  O   UNL     1       5.110   5.112  19.470  0.00  0.00    +0.000 OA
BRANCH  21  22
ATOM     22  C   UNL     1       6.427   4.747  19.027  0.00  0.00    +0.000 C 
BRANCH  22  29
ATOM     23  C   UNL     1       5.881   3.812  15.843  0.00  0.00    +0.000 C 
ATOM     24  C   UNL     1       6.604   4.987  16.387  0.00  0.00    +0.000 A 
ATOM     25  N   UNL     1       7.170   5.843  15.526  0.00  0.00    +0.000 NA
ATOM     26  O   UNL     1       7.780   6.808  16.290  0.00  0.00    +0.000 OA
ATOM     27  C   UNL     1       7.586   6.536  17.604  0.00  0.00    +0.000 A 
ATOM     28  C   UNL     1       8.208   7.481  18.552  0.00  0.00    +0.000 C 
ATOM     29  C   UNL     1       6.833   5.384  17.740  0.00  0.00    +0.000 A 
ENDBRANCH  22  29
ENDBRANCH  21  22
ENDBRANCH   1  21
TORSDOF 8
ENDMDL
MODEL 4
REMARK VINA RESULT:      -8.1      0.620      1.652
REMARK  Name = 
REMARK  11 active torsions:
REMARK  status: ('A' for Active; 'I' for Inactive)
REMARK    1  A    between atoms: C_1  and  C_2
REMARK    2  A    between atoms: C_5  and  C_6
REMARK    3  A    between atoms: C_7  and  C_8
REMARK    4  A    between atoms: C_8  and  O_9
REMARK    5  A    between atoms: O_9  and  C_10
REMARK    6  A    between atoms: C_15  and  C_16
REMARK    7  A    between atoms: N_18  and  C_19
REMARK    8  A    between atoms: C_19  and  C_20
REMARK    9  A    between atoms: C_19  and  C_21
REMARK   10  A    between atoms: C_21  and  C_22
REMARK   11  A    between atoms: C_22  and  C_23
REMARK                            x       y       z     vdW  Elec       q    Type
REMARK                         _______ _______ _______ _____ _____    ______ ____
ROOT
ATOM      1  C   UNL     1       2.788   3.695  17.919  0.00  0.00    +0.000 A 
ATOM      2  C   UNL     1       2.287   2.381  17.859  0.00  0.00    +0.000 A 
ATOM      3  C   UNL     1       1.416   1.890  18.831  0.00  0.00    +0.000 A 
ATOM      4  C   UNL     1       1.016   2.707  19.877  0.00  0.00    +0.000 A 
ATOM      5  C   UNL     1       1.481   4.020  19.941  0.00  0.00    +0.000 A 
ATOM      6  C   UNL     1       2.364   4.538  18.969  0.00  0.00    +0.000 A 
ENDROOT
BRANCH   6   7
ATOM      7  C   UNL     1       2.751   5.982  19.160  0.00  0.00    +0.000 C 
ATOM      8  O   UNL     1       3.888   6.269  19.528  0.00  0.00    +0.000 OA
ATOM      9  N   UNL     1       1.800   6.949  18.923  0.00  0.00    +0.000 N 
ATOM     10  H   UNL     1       0.908   6.652  18.544  0.00  0.00    +0.000 HD
BRANCH   9  11
ATOM     11  C   UNL     1       2.081   8.375  19.058  0.00  0.00    +0.000 C 
ATOM     12  C   UNL     1       2.195   9.023  17.675  0.00  0.00    +0.000 C 
BRANCH  11  13
ATOM     13  C   UNL     1       0.998   9.086  19.886  0.00  0.00    +0.000 C 
BRANCH  13  14
ATOM     14  C   UNL     1       0.846  10.569  19.522  0.00  0.00    +0.000 C 
BRANCH  14  15
ATOM     15  C   UNL     1      -0.588  10.923  19.200  0.00  0.00    +0.000 A 
ATOM     16  C   UNL     1      -1.309  10.171  18.264  0.00  0.00    +0.000 A 
ATOM     17  C   UNL     1      -2.629  10.505  17.949  0.00  0.00    +0.000 A 
ATOM     18  C   UNL     1      -3.239  11.596  18.569  0.00  0.00    +0.000 A 
ATOM     19  C   UNL     1      -2.529  12.348  19.503  0.00  0.00    +0.000 A 
ATOM     20  C   UNL     1      -1.210  12.017  19.816  0.00  0.00    +0.000 A 
ENDBRANCH  14  15
ENDBRANCH  13  14
ENDBRANCH  11  13
ENDBRANCH   9  11
ENDBRANCH   6   7
BRANCH   1  21
ATOM     21  O   UNL     1       3.622   4.208  16.955  0.00  0.00    +0.000 OA
BRANCH  21  22
ATOM     22  C   UNL     1       4.844   3.513  16.660  0.00  0.00    +0.000 C 
BRANCH  22  29
ATOM     23  C   UNL     1       6.793   5.714  18.292  0.00  0.00    +0.000 C 
ATOM     24  C   UNL     1       6.769   5.332  16.859  0.00  0.00    +0.000 A 
ATOM     25  N   UNL     1       7.623   5.937  16.023  0.00  0.00    +0.000 NA
ATOM     26  O   UNL     1       7.373   5.416  14.777  0.00  0.00    +0.000 OA
ATOM     27  C   UNL     1       6.373   4.505  14.858  0.00  0.00    +0.000 A 
ATOM     28  C   UNL     1       5.976   3.874  13.584  0.00  0.00    +0.000 C 
ATOM     29  C   UNL     1       5.942   4.396  16.168  0.00  0.00    +0.000 A 
ENDBRANCH  22  29
ENDBRANCH  21  22
ENDBRANCH   1  21
TORSDOF 8
ENDMDL
MODEL 5
REMARK VINA RESULT:      -8.0      2.554      8.282
REMARK  Name = 
REMARK  11 active torsions:
REMARK  status: ('A' for Active; 'I' for Inactive)
REMARK    1  A    between atoms: C_1  and  C_2
REMARK    2  A    between atoms: C_5  and  C_6
REMARK    3  A    between atoms: C_7  and  C_8
REMARK    4  A    between atoms: C_8  and  O_9
REMARK    5  A    between atoms: O_9  and  C_10
REMARK    6  A    between atoms: C_15  and  C_16
REMARK    7  A    between atoms: N_18  and  C_19
REMARK    8  A    between atoms: C_19  and  C_20
REMARK    9  A    between atoms: C_19  and  C_21
REMARK   10  A    between atoms: C_21  and  C_22
REMARK   11  A    between atoms: C_22  and  C_23
REMARK                            x       y       z     vdW  Elec       q    Type
REMARK                         _______ _______ _______ _____ _____    ______ ____
ROOT
ATOM      1  C   UNL     1       2.102   5.575  19.848  0.00  0.00    +0.000 A 
ATOM      2  C   UNL     1       1.192   4.830  20.620  0.00  0.00    +0.000 A 
ATOM      3  C   UNL     1       1.380   3.467  20.851  0.00  0.00    +0.000 A 
ATOM      4  C   UNL     1       2.489   2.824  20.327  0.00  0.00    +0.000 A 
ATOM      5  C   UNL     1       3.417   3.549  19.580  0.00  0.00    +0.000 A 
ATOM      6  C   UNL     1       3.247   4.929  19.332  0.00  0.00    +0.000 A 
ENDROOT
BRANCH   6   7
ATOM      7  C   UNL     1       4.351   5.578  18.536  0.00  0.00    +0.000 C 
ATOM      8  O   UNL     1       4.097   6.528  17.799  0.00  0.00    +0.000 OA
ATOM      9  N   UNL     1       5.624   5.070  18.654  0.00  0.00    +0.000 N 
ATOM     10  H   UNL     1       5.782   4.339  19.338  0.00  0.00    +0.000 HD
BRANCH   9  11
ATOM     11  C   UNL     1       6.765   5.641  17.943  0.00  0.00    +0.000 C 
ATOM     12  C   UNL     1       7.878   5.997  18.932  0.00  0.00    +0.000 C 
BRANCH  11  13
ATOM     13  C   UNL     1       7.299   4.676  16.871  0.00  0.00    +0.000 C 
BRANCH  13  14
ATOM     14  C   UNL     1       6.191   4.112  15.972  0.00  0.00    +0.000 C 
BRANCH  14  15
ATOM     15  C   UNL     1       6.542   4.234  14.507  0.00  0.00    +0.000 A 
ATOM     16  C   UNL     1       7.544   5.121  14.091  0.00  0.00    +0.000 A 
ATOM     17  C   UNL     1       7.861   5.251  12.736  0.00  0.00    +0.000 A 
ATOM     18  C   UNL     1       7.175   4.495  11.785  0.00  0.00    +0.000 A 
ATOM     19  C   UNL     1       6.178   3.610  12.189  0.00  0.00    +0.000 A 
ATOM     20  C   UNL     1       5.860   3.480  13.542  0.00  0.00    +0.000 A 
ENDBRANCH  14  15
ENDBRANCH  13  14
ENDBRANCH  11  13
ENDBRANCH   9  11
ENDBRANCH   6   7
BRANCH   1  21
ATOM     21  O   UNL     1       1.953   6.924  19.633  0.00  0.00    +0.000 OA
BRANCH  21  22
ATOM     22  C   UNL     1       1.779   7.788  20.768  0.00  0.00    +0.000 C 
BRANCH  22  29
ATOM     23  C   UNL     1      -0.520   9.337  22.671  0.00  0.00    +0.000 C 
ATOM     24  C   UNL     1      -0.042   9.646  21.301  0.00  0.00    +0.000 A 
ATOM     25  N   UNL     1      -0.586  10.686  20.656  0.00  0.00    +0.000 NA
ATOM     26  O   UNL     1       0.016  10.728  19.422  0.00  0.00    +0.000 OA
ATOM     27  C   UNL     1       0.917   9.720  19.322  0.00  0.00    +0.000 A 
ATOM     28  C   UNL     1       1.631   9.623  18.033  0.00  0.00    +0.000 C 
ATOM     29  C   UNL     1       0.936   8.988  20.496  0.00  0.00    +0.000 A 
ENDBRANCH  22  29
ENDBRANCH  21  22
ENDBRANCH   1  21
TORSDOF 8
ENDMDL
MODEL 6
REMARK VINA RESULT:      -8.0      1.397      1.692
REMARK  Name = 
REMARK  11 active torsions:
REMARK  status: ('A' for Active; 'I' for Inactive)
REMARK    1  A    between atoms: C_1  and  C_2
REMARK    2  A    between atoms: C_5  and  C_6
REMARK    3  A    between atoms: C_7  and  C_8
REMARK    4  A    between atoms: C_8  and  O_9
REMARK    5  A    between atoms: O_9  and  C_10
REMARK    6  A    between atoms: C_15  and  C_16
REMARK    7  A    between atoms: N_18  and  C_19
REMARK    8  A    between atoms: C_19  and  C_20
REMARK    9  A    between atoms: C_19  and  C_21
REMARK   10  A    between atoms: C_21  and  C_22
REMARK   11  A    between atoms: C_22  and  C_23
REMARK                            x       y       z     vdW  Elec       q    Type
REMARK                         _______ _______ _______ _____ _____    ______ ____
ROOT
ATOM      1  C   UNL     1       3.465   5.459  18.343  0.00  0.00    +0.000 A 
ATOM      2  C   UNL     1       3.788   4.091  18.270  0.00  0.00    +0.000 A 
ATOM      3  C   UNL     1       3.322   3.183  19.220  0.00  0.00    +0.000 A 
ATOM      4  C   UNL     1       2.513   3.620  20.256  0.00  0.00    +0.000 A 
ATOM      5  C   UNL     1       2.159   4.967  20.332  0.00  0.00    +0.000 A 
ATOM      6  C   UNL     1       2.619   5.905  19.382  0.00  0.00    +0.000 A 
ENDROOT
BRANCH   6   7
ATOM      7  C   UNL     1       2.126   7.315  19.583  0.00  0.00    +0.000 C 
ATOM      8  O   UNL     1       1.972   7.755  20.721  0.00  0.00    +0.000 OA
ATOM      9  N   UNL     1       1.847   8.073  18.469  0.00  0.00    +0.000 N 
ATOM     10  H   UNL     1       2.071   7.681  17.561  0.00  0.00    +0.000 HD
BRANCH   9  11
ATOM     11  C   UNL     1       1.385   9.456  18.556  0.00  0.00    +0.000 C 
ATOM     12  C   UNL     1       2.382  10.389  17.862  0.00  0.00    +0.000 C 
BRANCH  11  13
ATOM     13  C   UNL     1      -0.013   9.621  17.938  0.00  0.00    +0.000 C 
BRANCH  13  14
ATOM     14  C   UNL     1      -0.759  10.851  18.473  0.00  0.00    +0.000 C 
BRANCH  14  15
ATOM     15  C   UNL     1      -2.126  10.993  17.845  0.00  0.00    +0.000 A 
ATOM     16  C   UNL     1      -2.356  10.540  16.539  0.00  0.00    +0.000 A 
ATOM     17  C   UNL     1      -3.613  10.685  15.947  0.00  0.00    +0.000 A 
ATOM     18  C   UNL     1      -4.652  11.288  16.656  0.00  0.00    +0.000 A 
ATOM     19  C   UNL     1      -4.433  11.741  17.955  0.00  0.00    +0.000 A 
ATOM     20  C   UNL     1      -3.178  11.597  18.548  0.00  0.00    +0.000 A 
ENDBRANCH  14  15
ENDBRANCH  13  14
ENDBRANCH  11  13
ENDBRANCH   9  11
ENDBRANCH   6   7
BRANCH   1  21
ATOM     21  O   UNL     1       3.887   6.366  17.400  0.00  0.00    +0.000 OA
BRANCH  21  22
ATOM     22  C   UNL     1       5.231   6.867  17.479  0.00  0.00    +0.000 C 
BRANCH  22  29
ATOM     23  C   UNL     1       5.675   5.082  14.664  0.00  0.00    +0.000 C 
ATOM     24  C   UNL     1       6.465   5.107  15.919  0.00  0.00    +0.000 A 
ATOM     25  N   UNL     1       7.528   4.298  16.019  0.00  0.00    +0.000 NA
ATOM     26  O   UNL     1       8.051   4.507  17.272  0.00  0.00    +0.000 OA
ATOM     27  C   UNL     1       7.308   5.434  17.925  0.00  0.00    +0.000 A 
ATOM     28  C   UNL     1       7.739   5.747  19.302  0.00  0.00    +0.000 C 
ATOM     29  C   UNL     1       6.275   5.867  17.113  0.00  0.00    +0.000 A 
ENDBRANCH  22  29
ENDBRANCH  21  22
ENDBRANCH   1  21
TORSDOF 8
ENDMDL
MODEL 7
REMARK VINA RESULT:      -8.0      1.225      2.153
REMARK  Name = 
REMARK  11 active torsions:
REMARK  status: ('A' for Active; 'I' for Inactive)
REMARK    1  A    between atoms: C_1  and  C_2
REMARK    2  A    between atoms: C_5  and  C_6
REMARK    3  A    between atoms: C_7  and  C_8
REMARK    4  A    between atoms: C_8  and  O_9
REMARK    5  A    between atoms: O_9  and  C_10
REMARK    6  A    between atoms: C_15  and  C_16
REMARK    7  A    between atoms: N_18  and  C_19
REMARK    8  A    between atoms: C_19  and  C_20
REMARK    9  A    between atoms: C_19  and  C_21
REMARK   10  A    between atoms: C_21  and  C_22
REMARK   11  A    between atoms: C_22  and  C_23
REMARK                            x       y       z     vdW  Elec       q    Type
REMARK                         _______ _______ _______ _____ _____    ______ ____
ROOT
ATOM      1  C   UNL     1       2.886   4.588  18.901  0.00  0.00    +0.000 A 
ATOM      2  C   UNL     1       2.907   3.184  18.989  0.00  0.00    +0.000 A 
ATOM      3  C   UNL     1       2.172   2.505  19.962  0.00  0.00    +0.000 A 
ATOM      4  C   UNL     1       1.390   3.216  20.858  0.00  0.00    +0.000 A 
ATOM      5  C   UNL     1       1.335   4.607  20.772  0.00  0.00    +0.000 A 
ATOM      6  C   UNL     1       2.071   5.315  19.796  0.00  0.00    +0.000 A 
ENDROOT
BRANCH   6   7
ATOM      7  C   UNL     1       1.882   6.810  19.812  0.00  0.00    +0.000 C 
ATOM      8  O   UNL     1       1.703   7.394  20.879  0.00  0.00    +0.000 OA
ATOM      9  N   UNL     1       1.905   7.483  18.612  0.00  0.00    +0.000 N 
ATOM     10  H   UNL     1       2.137   6.955  17.777  0.00  0.00    +0.000 HD
BRANCH   9  11
ATOM     11  C   UNL     1       1.753   8.932  18.521  0.00  0.00    +0.000 C 
ATOM     12  C   UNL     1       2.949   9.542  17.784  0.00  0.00    +0.000 C 
BRANCH  11  13
ATOM     13  C   UNL     1       0.444   9.318  17.814  0.00  0.00    +0.000 C 
BRANCH  13  14
ATOM     14  C   UNL     1      -0.477  10.177  18.692  0.00  0.00    +0.000 C 
BRANCH  14  15
ATOM     15  C   UNL     1      -1.778  10.497  17.993  0.00  0.00    +0.000 A 
ATOM     16  C   UNL     1      -2.709  11.358  18.589  0.00  0.00    +0.000 A 
ATOM     17  C   UNL     1      -3.921  11.644  17.955  0.00  0.00    +0.000 A 
ATOM     18  C   UNL     1      -4.213  11.069  16.719  0.00  0.00    +0.000 A 
ATOM     19  C   UNL     1      -3.293  10.213  16.117  0.00  0.00    +0.000 A 
ATOM     20  C   UNL     1      -2.083   9.925  16.750  0.00  0.00    +0.000 A 
ENDBRANCH  14  15
ENDBRANCH  13  14
ENDBRANCH  11  13
ENDBRANCH   9  11
ENDBRANCH   6   7
BRANCH   1  21
ATOM     21  O   UNL     1       3.577   5.274  17.931  0.00  0.00    +0.000 OA
BRANCH  21  22
ATOM     22  C   UNL     1       4.163   4.534  16.848  0.00  0.00    +0.000 C 
BRANCH  22  29
ATOM     23  C   UNL     1       6.374   5.244  19.281  0.00  0.00    +0.000 C 
ATOM     24  C   UNL     1       6.595   4.858  17.866  0.00  0.00    +0.000 A 
ATOM     25  N   UNL     1       7.854   4.779  17.416  0.00  0.00    +0.000 NA
ATOM     26  O   UNL     1       7.766   4.429  16.090  0.00  0.00    +0.000 OA
ATOM     27  C   UNL     1       6.462   4.299  15.741  0.00  0.00    +0.000 A 
ATOM     28  C   UNL     1       6.209   3.947  14.330  0.00  0.00    +0.000 C 
ATOM     29  C   UNL     1       5.655   4.555  16.835  0.00  0.00    +0.000 A 
ENDBRANCH  22  29
ENDBRANCH  21  22
ENDBRANCH   1  21
TORSDOF 8
ENDMDL
MODEL 8
REMARK VINA RESULT:      -7.9      2.006      4.262
REMARK  Name = 
REMARK  11 active torsions:
REMARK  status: ('A' for Active; 'I' for Inactive)
REMARK    1  A    between atoms: C_1  and  C_2
REMARK    2  A    between atoms: C_5  and  C_6
REMARK    3  A    between atoms: C_7  and  C_8
REMARK    4  A    between atoms: C_8  and  O_9
REMARK    5  A    between atoms: O_9  and  C_10
REMARK    6  A    between atoms: C_15  and  C_16
REMARK    7  A    between atoms: N_18  and  C_19
REMARK    8  A    between atoms: C_19  and  C_20
REMARK    9  A    between atoms: C_19  and  C_21
REMARK   10  A    between atoms: C_21  and  C_22
REMARK   11  A    between atoms: C_22  and  C_23
REMARK                            x       y       z     vdW  Elec       q    Type
REMARK                         _______ _______ _______ _____ _____    ______ ____
ROOT
ATOM      1  C   UNL     1       5.210   4.887  18.402  0.00  0.00    +0.000 A 
ATOM      2  C   UNL     1       6.488   4.529  17.934  0.00  0.00    +0.000 A 
ATOM      3  C   UNL     1       6.966   4.984  16.705  0.00  0.00    +0.000 A 
ATOM      4  C   UNL     1       6.182   5.818  15.925  0.00  0.00    +0.000 A 
ATOM      5  C   UNL     1       4.923   6.206  16.381  0.00  0.00    +0.000 A 
ATOM      6  C   UNL     1       4.417   5.757  17.621  0.00  0.00    +0.000 A 
ENDROOT
BRANCH   6   7
ATOM      7  C   UNL     1       3.056   6.289  17.989  0.00  0.00    +0.000 C 
ATOM      8  O   UNL     1       2.055   5.603  17.788  0.00  0.00    +0.000 OA
ATOM      9  N   UNL     1       2.974   7.549  18.535  0.00  0.00    +0.000 N 
ATOM     10  H   UNL     1       3.840   8.030  18.750  0.00  0.00    +0.000 HD
BRANCH   9  11
ATOM     11  C   UNL     1       1.705   8.146  18.945  0.00  0.00    +0.000 C 
ATOM     12  C   UNL     1       1.670   8.316  20.466  0.00  0.00    +0.000 C 
BRANCH  11  13
ATOM     13  C   UNL     1       1.473   9.500  18.256  0.00  0.00    +0.000 C 
BRANCH  13  14
ATOM     14  C   UNL     1       0.627  10.462  19.102  0.00  0.00    +0.000 C 
BRANCH  14  15
ATOM     15  C   UNL     1      -0.775  10.602  18.557  0.00  0.00    +0.000 A 
ATOM     16  C   UNL     1      -1.195   9.818  17.474  0.00  0.00    +0.000 A 
ATOM     17  C   UNL     1      -2.485   9.956  16.954  0.00  0.00    +0.000 A 
ATOM     18  C   UNL     1      -3.366  10.882  17.513  0.00  0.00    +0.000 A 
ATOM     19  C   UNL     1      -2.958  11.664  18.591  0.00  0.00    +0.000 A 
ATOM     20  C   UNL     1      -1.669  11.529  19.110  0.00  0.00    +0.000 A 
ENDBRANCH  14  15
ENDBRANCH  13  14
ENDBRANCH  11  13
ENDBRANCH   9  11
ENDBRANCH   6   7
BRANCH   1  21
ATOM     21  O   UNL     1       4.732   4.476  19.623  0.00  0.00    +0.000 OA
BRANCH  21  22
ATOM     22  C   UNL     1       4.376   3.095  19.794  0.00  0.00    +0.000 C 
BRANCH  22  29
ATOM     23  C   UNL     1       2.873   2.366  16.875  0.00  0.00    +0.000 C 
ATOM     24  C   UNL     1       2.308   2.484  18.241  0.00  0.00    +0.000 A 
ATOM     25  N   UNL     1       0.992   2.301  18.405  0.00  0.00    +0.000 NA
ATOM     26  O   UNL     1       0.743   2.486  19.743  0.00  0.00    +0.000 OA
ATOM     27  C   UNL     1       1.901   2.783  20.383  0.00  0.00    +0.000 A 
ATOM     28  C   UNL     1       1.786   3.033  21.834  0.00  0.00    +0.000 C 
ATOM     29  C   UNL     1       2.949   2.791  19.480  0.00  0.00    +0.000 A 
ENDBRANCH  22  29
ENDBRANCH  21  22
ENDBRANCH   1  21
TORSDOF 8
ENDMDL
MODEL 9
REMARK VINA RESULT:      -7.9      1.358      1.932
REMARK  Name = 
REMARK  11 active torsions:
REMARK  status: ('A' for Active; 'I' for Inactive)
REMARK    1  A    between atoms: C_1  and  C_2
REMARK    2  A    between atoms: C_5  and  C_6
REMARK    3  A    between atoms: C_7  and  C_8
REMARK    4  A    between atoms: C_8  and  O_9
REMARK    5  A    between atoms: O_9  and  C_10
REMARK    6  A    between atoms: C_15  and  C_16
REMARK    7  A    between atoms: N_18  and  C_19
REMARK    8  A    between atoms: C_19  and  C_20
REMARK    9  A    between atoms: C_19  and  C_21
REMARK   10  A    between atoms: C_21  and  C_22
REMARK   11  A    between atoms: C_22  and  C_23
REMARK                            x       y       z     vdW  Elec       q    Type
REMARK                         _______ _______ _______ _____ _____    ______ ____
ROOT
ATOM      1  C   UNL     1       3.436   5.613  19.185  0.00  0.00    +0.000 A 
ATOM      2  C   UNL     1       3.663   4.246  18.943  0.00  0.00    +0.000 A 
ATOM      3  C   UNL     1       2.796   3.268  19.428  0.00  0.00    +0.000 A 
ATOM      4  C   UNL     1       1.675   3.637  20.154  0.00  0.00    +0.000 A 
ATOM      5  C   UNL     1       1.417   4.988  20.384  0.00  0.00    +0.000 A 
ATOM      6  C   UNL     1       2.282   5.995  19.904  0.00  0.00    +0.000 A 
ENDROOT
BRANCH   6   7
ATOM      7  C   UNL     1       1.851   7.407  20.207  0.00  0.00    +0.000 C 
ATOM      8  O   UNL     1       1.610   7.739  21.366  0.00  0.00    +0.000 OA
ATOM      9  N   UNL     1       1.728   8.291  19.159  0.00  0.00    +0.000 N 
ATOM     10  H   UNL     1       2.019   7.978  18.239  0.00  0.00    +0.000 HD
BRANCH   9  11
ATOM     11  C   UNL     1       1.339   9.685  19.349  0.00  0.00    +0.000 C 
ATOM     12  C   UNL     1       1.792  10.527  18.153  0.00  0.00    +0.000 C 
BRANCH  11  13
ATOM     13  C   UNL     1      -0.180   9.823  19.548  0.00  0.00    +0.000 C 
BRANCH  13  14
ATOM     14  C   UNL     1      -0.729  11.161  19.034  0.00  0.00    +0.000 C 
BRANCH  14  15
ATOM     15  C   UNL     1      -1.874  10.962  18.068  0.00  0.00    +0.000 A 
ATOM     16  C   UNL     1      -3.051  11.710  18.201  0.00  0.00    +0.000 A 
ATOM     17  C   UNL     1      -4.120  11.518  17.321  0.00  0.00    +0.000 A 
ATOM     18  C   UNL     1      -4.020  10.572  16.300  0.00  0.00    +0.000 A 
ATOM     19  C   UNL     1      -2.853   9.824  16.159  0.00  0.00    +0.000 A 
ATOM     20  C   UNL     1      -1.786  10.015  17.038  0.00  0.00    +0.000 A 
ENDBRANCH  14  15
ENDBRANCH  13  14
ENDBRANCH  11  13
ENDBRANCH   9  11
ENDBRANCH   6   7
BRANCH   1  21
ATOM     21  O   UNL     1       4.261   6.595  18.691  0.00  0.00    +0.000 OA
BRANCH  21  22
ATOM     22  C   UNL     1       4.342   6.776  17.268  0.00  0.00    +0.000 C 
BRANCH  22  29
ATOM     23  C   UNL     1       5.184   4.225  15.245  0.00  0.00    +0.000 C 
ATOM     24  C   UNL     1       6.018   5.307  15.822  0.00  0.00    +0.000 A 
ATOM     25  N   UNL     1       7.329   5.317  15.548  0.00  0.00    +0.000 NA
ATOM     26  O   UNL     1       7.851   6.397  16.217  0.00  0.00    +0.000 OA
ATOM     27  C   UNL     1       6.864   7.033  16.893  0.00  0.00    +0.000 A 
ATOM     28  C   UNL     1       7.282   8.208  17.684  0.00  0.00    +0.000 C 
ATOM     29  C   UNL     1       5.658   6.390  16.680  0.00  0.00    +0.000 A 
ENDBRANCH  22  29
ENDBRANCH  21  22
ENDBRANCH   1  21
TORSDOF 8
ENDMDL
