MODEL 1
REMARK VINA RESULT:      -8.3      0.000      0.000
REMARK  Name = 
REMARK  9 active torsions:
REMARK  status: ('A' for Active; 'I' for Inactive)
REMARK    1  A    between atoms: C_1  and  N_2
REMARK    2  A    between atoms: C_6  and  C_7
REMARK    3  A    between atoms: C_7  and  O_8
REMARK    4  A    between atoms: C_7  and  C_9
REMARK    5  A    between atoms: C_7  and  C_16
REMARK    6  A    between atoms: C_21  and  C_22
REMARK    7  A    between atoms: C_24  and  O_25
REMARK    8  A    between atoms: O_25  and  C_26
REMARK    9  A    between atoms: C_32  and  C_33
REMARK                            x       y       z     vdW  Elec       q    Type
REMARK                         _______ _______ _______ _____ _____    ______ ____
ROOT
ATOM      1  C   UNL     1       2.636   6.835  18.871  0.00  0.00    +0.000 A 
ATOM      2  C   UNL     1       2.489   7.349  17.575  0.00  0.00    +0.000 A 
ATOM      3  C   UNL     1       1.881   8.585  17.363  0.00  0.00    +0.000 A 
ATOM      4  C   UNL     1       1.453   9.366  18.419  0.00  0.00    +0.000 A 
ATOM      5  N   UNL     1       1.055  10.605  18.150  0.00  0.00    +0.000 NA
ATOM      6  C   UNL     1       0.717  11.432  19.173  0.00  0.00    +0.000 A 
ATOM      7  C   UNL     1       0.631  11.012  20.498  0.00  0.00    +0.000 A 
ATOM      8  C   UNL     1       1.066   9.708  20.772  0.00  0.00    +0.000 A 
ATOM      9  C   UNL     1       1.515   8.862  19.727  0.00  0.00    +0.000 A 
ATOM     10  C   UNL     1       2.064   7.574  19.922  0.00  0.00    +0.000 A 
ENDROOT
BRANCH   6  11
ATOM     11  C   UNL     1       0.552  12.782  18.715  0.00  0.00    +0.000 C 
ATOM     12  N   UNL     1       0.469  13.891  18.366  0.00  0.00    +0.000 NA
ENDBRANCH   6  11
BRANCH   8  13
ATOM     13  C   UNL     1       1.148   9.261  22.141  0.00  0.00    +0.000 C 
ATOM     14  N   UNL     1       1.212   8.965  23.260  0.00  0.00    +0.000 NA
ENDBRANCH   8  13
BRANCH   1  15
ATOM     15  C   UNL     1       3.426   5.542  19.132  0.00  0.00    +0.000 C 
BRANCH  15  16
ATOM     16  C   UNL     1       4.450   5.257  18.016  0.00  0.00    +0.000 A 
ATOM     17  C   UNL     1       4.149   4.410  16.933  0.00  0.00    +0.000 A 
ATOM     18  C   UNL     1       5.005   4.302  15.837  0.00  0.00    +0.000 A 
ATOM     19  C   UNL     1       6.200   5.010  15.823  0.00  0.00    +0.000 A 
ATOM     20 CL   UNL     1       7.235   4.900  14.454  0.00  0.00    +0.000 Cl
ATOM     21  C   UNL     1       6.551   5.818  16.901  0.00  0.00    +0.000 A 
ATOM     22  C   UNL     1       5.679   5.949  17.986  0.00  0.00    +0.000 A 
ENDBRANCH  15  16
BRANCH  15  28
ATOM     23  C   UNL     1       4.244   2.505  20.095  0.00  0.00    +0.000 C 
ATOM     24  N   UNL     1       2.933   3.063  19.866  0.00  0.00    +0.000 N 
ATOM     25  C   UNL     1       1.794   2.345  20.124  0.00  0.00    +0.000 A 
ATOM     26  N   UNL     1       0.713   3.057  19.943  0.00  0.00    +0.000 NA
ATOM     27  C   UNL     1       1.164   4.279  19.538  0.00  0.00    +0.000 A 
ATOM     28  C   UNL     1       2.551   4.338  19.468  0.00  0.00    +0.000 A 
ENDBRANCH  15  28
BRANCH  15  29
ATOM     29  O   UNL     1       4.177   5.784  20.336  0.00  0.00    +0.000 OA
ATOM     30  H   UNL     1       3.564   5.672  21.079  0.00  0.00    +0.000 HD
ENDBRANCH  15  29
ENDBRANCH   1  15
BRANCH   7  31
ATOM     31  O   UNL     1       0.263  11.752  21.597  0.00  0.00    +0.000 OA
BRANCH  31  32
ATOM     32  C   UNL     1      -1.060  11.981  21.877  0.00  0.00    +0.000 A 
ATOM     33  C   UNL     1      -1.954  12.593  20.999  0.00  0.00    +0.000 A 
ATOM     34  C   UNL     1      -3.195  13.018  21.470  0.00  0.00    +0.000 A 
ATOM     35  C   UNL     1      -3.583  12.718  22.776  0.00  0.00    +0.000 A 
ATOM     36  C   UNL     1      -2.751  11.957  23.596  0.00  0.00    +0.000 A 
ATOM     37  C   UNL     1      -1.485  11.588  23.146  0.00  0.00    +0.000 A 
ENDBRANCH  31  32
ENDBRANCH   7  31
TORSDOF 8
ENDMDL
MODEL 2
REMARK VINA RESULT:      -8.3      0.607      1.003
REMARK  Name = 
REMARK  9 active torsions:
REMARK  status: ('A' for Active; 'I' for Inactive)
REMARK    1  A    between atoms: C_1  and  N_2
REMARK    2  A    between atoms: C_6  and  C_7
REMARK    3  A    between atoms: C_7  and  O_8
REMARK    4  A    between atoms: C_7  and  C_9
REMARK    5  A    between atoms: C_7  and  C_16
REMARK    6  A    between atoms: C_21  and  C_22
REMARK    7  A    between atoms: C_24  and  O_25
REMARK    8  A    between atoms: O_25  and  C_26
REMARK    9  A    between atoms: C_32  and  C_33
REMARK                            x       y       z     vdW  Elec       q    Type
REMARK                         _______ _______ _______ _____ _____    ______ ____
ROOT
ATOM      1  C   UNL     1       2.392   7.076  18.929  0.00  0.00    +0.000 A 
ATOM      2  C   UNL     1       2.003   7.569  17.676  0.00  0.00    +0.000 A 
ATOM      3  C   UNL     1       1.329   8.784  17.565  0.00  0.00    +0.000 A 
ATOM      4  C   UNL     1       1.071   9.567  18.675  0.00  0.00    +0.000 A 
ATOM      5  N   UNL     1       0.594  10.790  18.471  0.00  0.00    +0.000 NA
ATOM      6  C   UNL     1       0.418  11.619  19.531  0.00  0.00    +0.000 A 
ATOM      7  C   UNL     1       0.580  11.214  20.854  0.00  0.00    +0.000 A 
ATOM      8  C   UNL     1       1.096   9.927  21.056  0.00  0.00    +0.000 A 
ATOM      9  C   UNL     1       1.379   9.081  19.955  0.00  0.00    +0.000 A 
ATOM     10  C   UNL     1       1.992   7.812  20.059  0.00  0.00    +0.000 A 
ENDROOT
BRANCH   6  11
ATOM     11  C   UNL     1       0.132  12.959  19.099  0.00  0.00    +0.000 C 
ATOM     12  N   UNL     1      -0.147  14.025  18.723  0.00  0.00    +0.000 NA
ENDBRANCH   6  11
BRANCH   8  13
ATOM     13  C   UNL     1       1.433   9.500  22.392  0.00  0.00    +0.000 C 
ATOM     14  N   UNL     1       1.671   9.210  23.489  0.00  0.00    +0.000 NA
ENDBRANCH   8  13
BRANCH   1  15
ATOM     15  C   UNL     1       3.255   5.810  19.056  0.00  0.00    +0.000 C 
BRANCH  15  16
ATOM     16  C   UNL     1       4.181   5.619  17.839  0.00  0.00    +0.000 A 
ATOM     17  C   UNL     1       5.344   6.394  17.665  0.00  0.00    +0.000 A 
ATOM     18  C   UNL     1       6.272   6.094  16.668  0.00  0.00    +0.000 A 
ATOM     19  C   UNL     1       6.034   5.036  15.799  0.00  0.00    +0.000 A 
ATOM     20 CL   UNL     1       7.198   4.650  14.594  0.00  0.00    +0.000 Cl
ATOM     21  C   UNL     1       4.870   4.282  15.913  0.00  0.00    +0.000 A 
ATOM     22  C   UNL     1       3.954   4.564  16.931  0.00  0.00    +0.000 A 
ENDBRANCH  15  16
BRANCH  15  28
ATOM     23  C   UNL     1       4.284   2.815  19.943  0.00  0.00    +0.000 C 
ATOM     24  N   UNL     1       2.935   3.300  19.777  0.00  0.00    +0.000 N 
ATOM     25  C   UNL     1       1.850   2.514  20.074  0.00  0.00    +0.000 A 
ATOM     26  N   UNL     1       0.724   3.166  19.949  0.00  0.00    +0.000 NA
ATOM     27  C   UNL     1       1.088   4.416  19.541  0.00  0.00    +0.000 A 
ATOM     28  C   UNL     1       2.465   4.554  19.413  0.00  0.00    +0.000 A 
ENDBRANCH  15  28
BRANCH  15  29
ATOM     29  O   UNL     1       4.104   6.033  20.196  0.00  0.00    +0.000 OA
ATOM     30  H   UNL     1       3.596   6.565  20.828  0.00  0.00    +0.000 HD
ENDBRANCH  15  29
ENDBRANCH   1  15
BRANCH   7  31
ATOM     31  O   UNL     1       0.390  11.958  21.995  0.00  0.00    +0.000 OA
BRANCH  31  32
ATOM     32  C   UNL     1      -0.857  12.421  22.330  0.00  0.00    +0.000 A 
ATOM     33  C   UNL     1      -1.283  13.735  22.143  0.00  0.00    +0.000 A 
ATOM     34  C   UNL     1      -2.459  14.168  22.754  0.00  0.00    +0.000 A 
ATOM     35  C   UNL     1      -3.263  13.258  23.440  0.00  0.00    +0.000 A 
ATOM     36  C   UNL     1      -2.915  11.908  23.479  0.00  0.00    +0.000 A 
ATOM     37  C   UNL     1      -1.708  11.488  22.923  0.00  0.00    +0.000 A 
ENDBRANCH  31  32
ENDBRANCH   7  31
TORSDOF 8
ENDMDL
MODEL 3
REMARK VINA RESULT:      -8.1      0.973      1.174
REMARK  Name = 
REMARK  9 active torsions:
REMARK  status: ('A' for Active; 'I' for Inactive)
REMARK    1  A    between atoms: C_1  and  N_2
REMARK    2  A    between atoms: C_6  and  C_7
REMARK    3  A    between atoms: C_7  and  O_8
REMARK    4  A    between atoms: C_7  and  C_9
REMARK    5  A    between atoms: C_7  and  C_16
REMARK    6  A    between atoms: C_21  and  C_22
REMARK    7  A    between atoms: C_24  and  O_25
REMARK    8  A    between atoms: O_25  and  C_26
REMARK    9  A    between atoms: C_32  and  C_33
REMARK                            x       y       z     vdW  Elec       q    Type
REMARK                         _______ _______ _______ _____ _____    ______ ____
ROOT
ATOM      1  C   UNL     1       2.317   7.156  19.043  0.00  0.00    +0.000 A 
ATOM      2  C   UNL     1       2.076   7.680  17.766  0.00  0.00    +0.000 A 
ATOM      3  C   UNL     1       1.486   8.933  17.609  0.00  0.00    +0.000 A 
ATOM      4  C   UNL     1       1.170   9.720  18.700  0.00  0.00    +0.000 A 
ATOM      5  N   UNL     1       0.785  10.971  18.470  0.00  0.00    +0.000 NA
ATOM      6  C   UNL     1       0.558  11.800  19.519  0.00  0.00    +0.000 A 
ATOM      7  C   UNL     1       0.573  11.376  20.846  0.00  0.00    +0.000 A 
ATOM      8  C   UNL     1       0.993  10.060  21.079  0.00  0.00    +0.000 A 
ATOM      9  C   UNL     1       1.329   9.207  19.997  0.00  0.00    +0.000 A 
ATOM     10  C   UNL     1       1.857   7.904  20.141  0.00  0.00    +0.000 A 
ENDROOT
BRANCH   6  11
ATOM     11  C   UNL     1       0.391  13.157  19.081  0.00  0.00    +0.000 C 
ATOM     12  N   UNL     1       0.312  14.261  18.716  0.00  0.00    +0.000 NA
ENDBRANCH   6  11
BRANCH   8  13
ATOM     13  C   UNL     1       1.179   9.603  22.434  0.00  0.00    +0.000 C 
ATOM     14  N   UNL     1       1.275   9.273  23.541  0.00  0.00    +0.000 NA
ENDBRANCH   8  13
BRANCH   1  15
ATOM     15  C   UNL     1       3.091   5.840  19.233  0.00  0.00    +0.000 C 
BRANCH  15  16
ATOM     16  C   UNL     1       4.039   5.553  18.051  0.00  0.00    +0.000 A 
ATOM     17  C   UNL     1       4.412   4.241  17.703  0.00  0.00    +0.000 A 
ATOM     18  C   UNL     1       5.116   3.976  16.528  0.00  0.00    +0.000 A 
ATOM     19  C   UNL     1       5.495   5.024  15.699  0.00  0.00    +0.000 A 
ATOM     20 CL   UNL     1       6.332   4.687  14.235  0.00  0.00    +0.000 Cl
ATOM     21  C   UNL     1       5.185   6.337  16.040  0.00  0.00    +0.000 A 
ATOM     22  C   UNL     1       4.454   6.601  17.203  0.00  0.00    +0.000 A 
ENDBRANCH  15  16
BRANCH  15  28
ATOM     23  C   UNL     1       1.021   4.061  17.397  0.00  0.00    +0.000 C 
ATOM     24  N   UNL     1       1.340   3.925  18.797  0.00  0.00    +0.000 N 
ATOM     25  C   UNL     1       0.827   2.901  19.552  0.00  0.00    +0.000 A 
ATOM     26  N   UNL     1       1.309   2.897  20.767  0.00  0.00    +0.000 NA
ATOM     27  C   UNL     1       2.156   3.966  20.809  0.00  0.00    +0.000 A 
ATOM     28  C   UNL     1       2.211   4.650  19.600  0.00  0.00    +0.000 A 
ENDBRANCH  15  28
BRANCH  15  29
ATOM     29  O   UNL     1       3.919   6.042  20.392  0.00  0.00    +0.000 OA
ATOM     30  H   UNL     1       4.754   6.425  20.080  0.00  0.00    +0.000 HD
ENDBRANCH  15  29
ENDBRANCH   1  15
BRANCH   7  31
ATOM     31  O   UNL     1       0.319  12.121  21.974  0.00  0.00    +0.000 OA
BRANCH  31  32
ATOM     32  C   UNL     1      -0.953  12.543  22.264  0.00  0.00    +0.000 A 
ATOM     33  C   UNL     1      -1.450  13.809  21.952  0.00  0.00    +0.000 A 
ATOM     34  C   UNL     1      -2.651  14.232  22.519  0.00  0.00    +0.000 A 
ATOM     35  C   UNL     1      -3.406  13.348  23.289  0.00  0.00    +0.000 A 
ATOM     36  C   UNL     1      -2.985  12.030  23.457  0.00  0.00    +0.000 A 
ATOM     37  C   UNL     1      -1.754  11.626  22.944  0.00  0.00    +0.000 A 
ENDBRANCH  31  32
ENDBRANCH   7  31
TORSDOF 8
ENDMDL
MODEL 4
REMARK VINA RESULT:      -8.0      0.928      1.363
REMARK  Name = 
REMARK  9 active torsions:
REMARK  status: ('A' for Active; 'I' for Inactive)
REMARK    1  A    between atoms: C_1  and  N_2
REMARK    2  A    between atoms: C_6  and  C_7
REMARK    3  A    between atoms: C_7  and  O_8
REMARK    4  A    between atoms: C_7  and  C_9
REMARK    5  A    between atoms: C_7  and  C_16
REMARK    6  A    between atoms: C_21  and  C_22
REMARK    7  A    between atoms: C_24  and  O_25
REMARK    8  A    between atoms: O_25  and  C_26
REMARK    9  A    between atoms: C_32  and  C_33
REMARK                            x       y       z     vdW  Elec       q    Type
REMARK                         _______ _______ _______ _____ _____    ______ ____
ROOT
ATOM      1  C   UNL     1       2.206   7.136  18.808  0.00  0.00    +0.000 A 
ATOM      2  C   UNL     1       1.859   7.705  17.575  0.00  0.00    +0.000 A 
ATOM      3  C   UNL     1       1.265   8.964  17.512  0.00  0.00    +0.000 A 
ATOM      4  C   UNL     1       1.049   9.715  18.652  0.00  0.00    +0.000 A 
ATOM      5  N   UNL     1       0.653  10.974  18.497  0.00  0.00    +0.000 NA
ATOM      6  C   UNL     1       0.522  11.768  19.590  0.00  0.00    +0.000 A 
ATOM      7  C   UNL     1       0.648  11.298  20.896  0.00  0.00    +0.000 A 
ATOM      8  C   UNL     1       1.079   9.973  21.047  0.00  0.00    +0.000 A 
ATOM      9  C   UNL     1       1.315   9.157  19.912  0.00  0.00    +0.000 A 
ATOM     10  C   UNL     1       1.845   7.848  19.966  0.00  0.00    +0.000 A 
ENDROOT
BRANCH   6  11
ATOM     11  C   UNL     1       0.326  13.139  19.214  0.00  0.00    +0.000 C 
ATOM     12  N   UNL     1       0.198  14.242  18.860  0.00  0.00    +0.000 NA
ENDBRANCH   6  11
BRANCH   8  13
ATOM     13  C   UNL     1       1.377   9.470  22.365  0.00  0.00    +0.000 C 
ATOM     14  N   UNL     1       1.564   9.100  23.448  0.00  0.00    +0.000 NA
ENDBRANCH   8  13
BRANCH   1  15
ATOM     15  C   UNL     1       2.985   5.813  18.886  0.00  0.00    +0.000 C 
BRANCH  15  16
ATOM     16  C   UNL     1       4.027   5.690  17.757  0.00  0.00    +0.000 A 
ATOM     17  C   UNL     1       5.062   6.630  17.599  0.00  0.00    +0.000 A 
ATOM     18  C   UNL     1       6.105   6.415  16.697  0.00  0.00    +0.000 A 
ATOM     19  C   UNL     1       6.110   5.273  15.907  0.00  0.00    +0.000 A 
ATOM     20 CL   UNL     1       7.415   4.997  14.822  0.00  0.00    +0.000 Cl
ATOM     21  C   UNL     1       5.075   4.348  16.004  0.00  0.00    +0.000 A 
ATOM     22  C   UNL     1       4.045   4.548  16.928  0.00  0.00    +0.000 A 
ENDBRANCH  15  16
BRANCH  15  28
ATOM     23  C   UNL     1       2.225   4.008  21.529  0.00  0.00    +0.000 C 
ATOM     24  N   UNL     1       1.806   3.834  20.159  0.00  0.00    +0.000 N 
ATOM     25  C   UNL     1       0.907   2.861  19.803  0.00  0.00    +0.000 A 
ATOM     26  N   UNL     1       0.585   2.930  18.538  0.00  0.00    +0.000 NA
ATOM     27  C   UNL     1       1.312   3.976  18.050  0.00  0.00    +0.000 A 
ATOM     28  C   UNL     1       2.099   4.578  19.024  0.00  0.00    +0.000 A 
ENDBRANCH  15  28
BRANCH  15  29
ATOM     29  O   UNL     1       3.716   5.867  20.124  0.00  0.00    +0.000 OA
ATOM     30  H   UNL     1       3.756   6.799  20.389  0.00  0.00    +0.000 HD
ENDBRANCH  15  29
ENDBRANCH   1  15
BRANCH   7  31
ATOM     31  O   UNL     1       0.496  12.005  22.066  0.00  0.00    +0.000 OA
BRANCH  31  32
ATOM     32  C   UNL     1      -0.735  12.474  22.447  0.00  0.00    +0.000 A 
ATOM     33  C   UNL     1      -1.839  11.663  22.706  0.00  0.00    +0.000 A 
ATOM     34  C   UNL     1      -3.102  12.241  22.823  0.00  0.00    +0.000 A 
ATOM     35  C   UNL     1      -3.236  13.629  22.806  0.00  0.00    +0.000 A 
ATOM     36  C   UNL     1      -2.106  14.440  22.716  0.00  0.00    +0.000 A 
ATOM     37  C   UNL     1      -0.851  13.861  22.535  0.00  0.00    +0.000 A 
ENDBRANCH  31  32
ENDBRANCH   7  31
TORSDOF 8
ENDMDL
MODEL 5
REMARK VINA RESULT:      -7.9      1.033      1.467
REMARK  Name = 
REMARK  9 active torsions:
REMARK  status: ('A' for Active; 'I' for Inactive)
REMARK    1  A    between atoms: C_1  and  N_2
REMARK    2  A    between atoms: C_6  and  C_7
REMARK    3  A    between atoms: C_7  and  O_8
REMARK    4  A    between atoms: C_7  and  C_9
REMARK    5  A    between atoms: C_7  and  C_16
REMARK    6  A    between atoms: C_21  and  C_22
REMARK    7  A    between atoms: C_24  and  O_25
REMARK    8  A    between atoms: O_25  and  C_26
REMARK    9  A    between atoms: C_32  and  C_33
REMARK                            x       y       z     vdW  Elec       q    Type
REMARK                         _______ _______ _______ _____ _____    ______ ____
ROOT
ATOM      1  C   UNL     1       2.279   7.232  18.988  0.00  0.00    +0.000 A 
ATOM      2  C   UNL     1       1.975   7.776  17.733  0.00  0.00    +0.000 A 
ATOM      3  C   UNL     1       1.360   9.022  17.625  0.00  0.00    +0.000 A 
ATOM      4  C   UNL     1       1.082   9.785  18.743  0.00  0.00    +0.000 A 
ATOM      5  N   UNL     1       0.669  11.034  18.552  0.00  0.00    +0.000 NA
ATOM      6  C   UNL     1       0.476  11.841  19.626  0.00  0.00    +0.000 A 
ATOM      7  C   UNL     1       0.554  11.393  20.942  0.00  0.00    +0.000 A 
ATOM      8  C   UNL     1       1.004  10.080  21.132  0.00  0.00    +0.000 A 
ATOM      9  C   UNL     1       1.304   9.251  20.022  0.00  0.00    +0.000 A 
ATOM     10  C   UNL     1       1.856   7.954  20.118  0.00  0.00    +0.000 A 
ENDROOT
BRANCH   6  11
ATOM     11  C   UNL     1       0.271  13.203  19.220  0.00  0.00    +0.000 C 
ATOM     12  N   UNL     1       0.133  14.325  18.938  0.00  0.00    +0.000 NA
ENDBRANCH   6  11
BRANCH   8  13
ATOM     13  C   UNL     1       1.254   9.602  22.470  0.00  0.00    +0.000 C 
ATOM     14  N   UNL     1       1.407   9.257  23.566  0.00  0.00    +0.000 NA
ENDBRANCH   8  13
BRANCH   1  15
ATOM     15  C   UNL     1       3.079   5.926  19.120  0.00  0.00    +0.000 C 
BRANCH  15  16
ATOM     16  C   UNL     1       3.905   5.625  17.854  0.00  0.00    +0.000 A 
ATOM     17  C   UNL     1       4.469   6.654  17.076  0.00  0.00    +0.000 A 
ATOM     18  C   UNL     1       5.364   6.374  16.043  0.00  0.00    +0.000 A 
ATOM     19  C   UNL     1       5.683   5.056  15.744  0.00  0.00    +0.000 A 
ATOM     20 CL   UNL     1       6.815   4.719  14.494  0.00  0.00    +0.000 Cl
ATOM     21  C   UNL     1       5.105   4.014  16.463  0.00  0.00    +0.000 A 
ATOM     22  C   UNL     1       4.230   4.295  17.516  0.00  0.00    +0.000 A 
ENDBRANCH  15  16
BRANCH  15  28
ATOM     23  C   UNL     1       0.927   4.037  17.502  0.00  0.00    +0.000 C 
ATOM     24  N   UNL     1       1.342   3.963  18.882  0.00  0.00    +0.000 N 
ATOM     25  C   UNL     1       0.902   2.962  19.710  0.00  0.00    +0.000 A 
ATOM     26  N   UNL     1       1.466   3.017  20.888  0.00  0.00    +0.000 NA
ATOM     27  C   UNL     1       2.291   4.101  20.830  0.00  0.00    +0.000 A 
ATOM     28  C   UNL     1       2.250   4.735  19.593  0.00  0.00    +0.000 A 
ENDBRANCH  15  28
BRANCH  15  29
ATOM     29  O   UNL     1       4.018   6.153  20.186  0.00  0.00    +0.000 OA
ATOM     30  H   UNL     1       4.887   6.280  19.776  0.00  0.00    +0.000 HD
ENDBRANCH  15  29
ENDBRANCH   1  15
BRANCH   7  31
ATOM     31  O   UNL     1       0.340  12.114  22.094  0.00  0.00    +0.000 OA
BRANCH  31  32
ATOM     32  C   UNL     1      -0.904  12.613  22.387  0.00  0.00    +0.000 A 
ATOM     33  C   UNL     1      -2.080  11.865  22.345  0.00  0.00    +0.000 A 
ATOM     34  C   UNL     1      -3.310  12.518  22.396  0.00  0.00    +0.000 A 
ATOM     35  C   UNL     1      -3.358  13.895  22.615  0.00  0.00    +0.000 A 
ATOM     36  C   UNL     1      -2.181  14.611  22.825  0.00  0.00    +0.000 A 
ATOM     37  C   UNL     1      -0.949  13.969  22.710  0.00  0.00    +0.000 A 
ENDBRANCH  31  32
ENDBRANCH   7  31
TORSDOF 8
ENDMDL
MODEL 6
REMARK VINA RESULT:      -7.7      1.047      1.449
REMARK  Name = 
REMARK  9 active torsions:
REMARK  status: ('A' for Active; 'I' for Inactive)
REMARK    1  A    between atoms: C_1  and  N_2
REMARK    2  A    between atoms: C_6  and  C_7
REMARK    3  A    between atoms: C_7  and  O_8
REMARK    4  A    between atoms: C_7  and  C_9
REMARK    5  A    between atoms: C_7  and  C_16
REMARK    6  A    between atoms: C_21  and  C_22
REMARK    7  A    between atoms: C_24  and  O_25
REMARK    8  A    between atoms: O_25  and  C_26
REMARK    9  A    between atoms: C_32  and  C_33
REMARK                            x       y       z     vdW  Elec       q    Type
REMARK                         _______ _______ _______ _____ _____    ______ ____
ROOT
ATOM      1  C   UNL     1       2.174   7.232  19.213  0.00  0.00    +0.000 A 
ATOM      2  C   UNL     1       2.092   7.761  17.918  0.00  0.00    +0.000 A 
ATOM      3  C   UNL     1       1.574   9.037  17.700  0.00  0.00    +0.000 A 
ATOM      4  C   UNL     1       1.177   9.841  18.751  0.00  0.00    +0.000 A 
ATOM      5  N   UNL     1       0.871  11.105  18.481  0.00  0.00    +0.000 NA
ATOM      6  C   UNL     1       0.568  11.948  19.501  0.00  0.00    +0.000 A 
ATOM      7  C   UNL     1       0.423  11.529  20.821  0.00  0.00    +0.000 A 
ATOM      8  C   UNL     1       0.761  10.197  21.097  0.00  0.00    +0.000 A 
ATOM      9  C   UNL     1       1.175   9.327  20.057  0.00  0.00    +0.000 A 
ATOM     10  C   UNL     1       1.630   8.004  20.256  0.00  0.00    +0.000 A 
ENDROOT
BRANCH   6  11
ATOM     11  C   UNL     1       0.505  13.309  19.047  0.00  0.00    +0.000 C 
ATOM     12  N   UNL     1       0.425  14.426  18.727  0.00  0.00    +0.000 NA
ENDBRANCH   6  11
BRANCH   8  13
ATOM     13  C   UNL     1       0.782   9.739  22.464  0.00  0.00    +0.000 C 
ATOM     14  N   UNL     1       0.820   9.432  23.582  0.00  0.00    +0.000 NA
ENDBRANCH   8  13
BRANCH   1  15
ATOM     15  C   UNL     1       2.867   5.887  19.485  0.00  0.00    +0.000 C 
BRANCH  15  16
ATOM     16  C   UNL     1       4.140   5.713  18.633  0.00  0.00    +0.000 A 
ATOM     17  C   UNL     1       5.157   4.810  18.997  0.00  0.00    +0.000 A 
ATOM     18  C   UNL     1       6.213   4.521  18.132  0.00  0.00    +0.000 A 
ATOM     19  C   UNL     1       6.293   5.161  16.902  0.00  0.00    +0.000 A 
ATOM     20 CL   UNL     1       7.578   4.775  15.827  0.00  0.00    +0.000 Cl
ATOM     21  C   UNL     1       5.330   6.096  16.533  0.00  0.00    +0.000 A 
ATOM     22  C   UNL     1       4.256   6.364  17.387  0.00  0.00    +0.000 A 
ENDBRANCH  15  16
BRANCH  15  28
ATOM     23  C   UNL     1       2.388   3.670  17.103  0.00  0.00    +0.000 C 
ATOM     24  N   UNL     1       1.751   3.769  18.394  0.00  0.00    +0.000 N 
ATOM     25  C   UNL     1       0.859   2.821  18.826  0.00  0.00    +0.000 A 
ATOM     26  N   UNL     1       0.468   3.040  20.055  0.00  0.00    +0.000 NA
ATOM     27  C   UNL     1       1.117   4.180  20.429  0.00  0.00    +0.000 A 
ATOM     28  C   UNL     1       1.933   4.683  19.423  0.00  0.00    +0.000 A 
ENDBRANCH  15  28
BRANCH  15  29
ATOM     29  O   UNL     1       3.290   5.940  20.859  0.00  0.00    +0.000 OA
ATOM     30  H   UNL     1       4.248   6.091  20.855  0.00  0.00    +0.000 HD
ENDBRANCH  15  29
ENDBRANCH   1  15
BRANCH   7  31
ATOM     31  O   UNL     1       0.082  12.288  21.916  0.00  0.00    +0.000 OA
BRANCH  31  32
ATOM     32  C   UNL     1      -1.234  12.524  22.223  0.00  0.00    +0.000 A 
ATOM     33  C   UNL     1      -1.851  12.113  23.404  0.00  0.00    +0.000 A 
ATOM     34  C   UNL     1      -3.240  12.162  23.504  0.00  0.00    +0.000 A 
ATOM     35  C   UNL     1      -3.992  12.736  22.479  0.00  0.00    +0.000 A 
ATOM     36  C   UNL     1      -3.355  13.298  21.374  0.00  0.00    +0.000 A 
ATOM     37  C   UNL     1      -1.971  13.191  21.245  0.00  0.00    +0.000 A 
ENDBRANCH  31  32
ENDBRANCH   7  31
TORSDOF 8
ENDMDL
MODEL 7
REMARK VINA RESULT:      -7.1      4.037      6.741
REMARK  Name = 
REMARK  9 active torsions:
REMARK  status: ('A' for Active; 'I' for Inactive)
REMARK    1  A    between atoms: C_1  and  N_2
REMARK    2  A    between atoms: C_6  and  C_7
REMARK    3  A    between atoms: C_7  and  O_8
REMARK    4  A    between atoms: C_7  and  C_9
REMARK    5  A    between atoms: C_7  and  C_16
REMARK    6  A    between atoms: C_21  and  C_22
REMARK    7  A    between atoms: C_24  and  O_25
REMARK    8  A    between atoms: O_25  and  C_26
REMARK    9  A    between atoms: C_32  and  C_33
REMARK                            x       y       z     vdW  Elec       q    Type
REMARK                         _______ _______ _______ _____ _____    ______ ____
ROOT
ATOM      1  C   UNL     1      -0.644  10.804  18.756  0.00  0.00    +0.000 A 
ATOM      2  C   UNL     1      -1.257  10.163  17.671  0.00  0.00    +0.000 A 
ATOM      3  C   UNL     1      -2.613  10.345  17.407  0.00  0.00    +0.000 A 
ATOM      4  C   UNL     1      -3.384  11.203  18.168  0.00  0.00    +0.000 A 
ATOM      5  N   UNL     1      -4.616  11.468  17.745  0.00  0.00    +0.000 NA
ATOM      6  C   UNL     1      -5.367  12.378  18.415  0.00  0.00    +0.000 A 
ATOM      7  C   UNL     1      -4.971  12.960  19.617  0.00  0.00    +0.000 A 
ATOM      8  C   UNL     1      -3.666  12.685  20.047  0.00  0.00    +0.000 A 
ATOM      9  C   UNL     1      -2.830  11.812  19.305  0.00  0.00    +0.000 A 
ATOM     10  C   UNL     1      -1.473  11.556  19.607  0.00  0.00    +0.000 A 
ENDROOT
BRANCH   6  11
ATOM     11  C   UNL     1      -6.557  12.708  17.683  0.00  0.00    +0.000 C 
ATOM     12  N   UNL     1      -7.489  13.003  17.050  0.00  0.00    +0.000 NA
ENDBRANCH   6  11
BRANCH   8  13
ATOM     13  C   UNL     1      -3.138  13.374  21.198  0.00  0.00    +0.000 C 
ATOM     14  N   UNL     1      -2.747  13.982  22.105  0.00  0.00    +0.000 NA
ENDBRANCH   8  13
BRANCH   1  15
ATOM     15  C   UNL     1       0.875  10.722  18.977  0.00  0.00    +0.000 C 
BRANCH  15  16
ATOM     16  C   UNL     1       1.304   9.349  19.529  0.00  0.00    +0.000 A 
ATOM     17  C   UNL     1       0.851   8.877  20.776  0.00  0.00    +0.000 A 
ATOM     18  C   UNL     1       1.091   7.565  21.186  0.00  0.00    +0.000 A 
ATOM     19  C   UNL     1       1.823   6.711  20.371  0.00  0.00    +0.000 A 
ATOM     20 CL   UNL     1       2.086   5.085  20.865  0.00  0.00    +0.000 Cl
ATOM     21  C   UNL     1       2.327   7.161  19.154  0.00  0.00    +0.000 A 
ATOM     22  C   UNL     1       2.062   8.467  18.731  0.00  0.00    +0.000 A 
ENDBRANCH  15  16
BRANCH  15  28
ATOM     23  C   UNL     1       2.636  13.316  17.982  0.00  0.00    +0.000 C 
ATOM     24  N   UNL     1       2.199  12.972  19.313  0.00  0.00    +0.000 N 
ATOM     25  C   UNL     1       2.426  13.805  20.379  0.00  0.00    +0.000 A 
ATOM     26  N   UNL     1       1.871  13.360  21.476  0.00  0.00    +0.000 NA
ATOM     27  C   UNL     1       1.273  12.188  21.114  0.00  0.00    +0.000 A 
ATOM     28  C   UNL     1       1.451  11.894  19.767  0.00  0.00    +0.000 A 
ENDBRANCH  15  28
BRANCH  15  29
ATOM     29  O   UNL     1       1.464  10.849  17.671  0.00  0.00    +0.000 OA
ATOM     30  H   UNL     1       2.118  10.138  17.585  0.00  0.00    +0.000 HD
ENDBRANCH  15  29
ENDBRANCH   1  15
BRANCH   7  31
ATOM     31  O   UNL     1      -5.669  13.857  20.392  0.00  0.00    +0.000 OA
BRANCH  31  32
ATOM     32  C   UNL     1      -6.420  13.427  21.456  0.00  0.00    +0.000 A 
ATOM     33  C   UNL     1      -6.355  13.976  22.736  0.00  0.00    +0.000 A 
ATOM     34  C   UNL     1      -6.953  13.304  23.801  0.00  0.00    +0.000 A 
ATOM     35  C   UNL     1      -7.715  12.160  23.563  0.00  0.00    +0.000 A 
ATOM     36  C   UNL     1      -7.915  11.712  22.258  0.00  0.00    +0.000 A 
ATOM     37  C   UNL     1      -7.265  12.347  21.201  0.00  0.00    +0.000 A 
ENDBRANCH  31  32
ENDBRANCH   7  31
TORSDOF 8
ENDMDL
MODEL 8
REMARK VINA RESULT:      -7.1      1.301      1.390
REMARK  Name = 
REMARK  9 active torsions:
REMARK  status: ('A' for Active; 'I' for Inactive)
REMARK    1  A    between atoms: C_1  and  N_2
REMARK    2  A    between atoms: C_6  and  C_7
REMARK    3  A    between atoms: C_7  and  O_8
REMARK    4  A    between atoms: C_7  and  C_9
REMARK    5  A    between atoms: C_7  and  C_16
REMARK    6  A    between atoms: C_21  and  C_22
REMARK    7  A    between atoms: C_24  and  O_25
REMARK    8  A    between atoms: O_25  and  C_26
REMARK    9  A    between atoms: C_32  and  C_33
REMARK                            x       y       z     vdW  Elec       q    Type
REMARK                         _______ _______ _______ _____ _____    ______ ____
ROOT
ATOM      1  C   UNL     1       2.013   7.218  19.146  0.00  0.00    +0.000 A 
ATOM      2  C   UNL     1       1.727   7.751  17.882  0.00  0.00    +0.000 A 
ATOM      3  C   UNL     1       1.135   9.006  17.754  0.00  0.00    +0.000 A 
ATOM      4  C   UNL     1       0.860   9.787  18.860  0.00  0.00    +0.000 A 
ATOM      5  N   UNL     1       0.469  11.039  18.651  0.00  0.00    +0.000 NA
ATOM      6  C   UNL     1       0.282  11.863  19.713  0.00  0.00    +0.000 A 
ATOM      7  C   UNL     1       0.342  11.431  21.035  0.00  0.00    +0.000 A 
ATOM      8  C   UNL     1       0.768  10.112  21.245  0.00  0.00    +0.000 A 
ATOM      9  C   UNL     1       1.064   9.265  20.147  0.00  0.00    +0.000 A 
ATOM     10  C   UNL     1       1.593   7.960  20.264  0.00  0.00    +0.000 A 
ENDROOT
BRANCH   6  11
ATOM     11  C   UNL     1       0.102  13.223  19.289  0.00  0.00    +0.000 C 
ATOM     12  N   UNL     1       0.014  14.331  18.940  0.00  0.00    +0.000 NA
ENDBRANCH   6  11
BRANCH   8  13
ATOM     13  C   UNL     1       1.001   9.647  22.590  0.00  0.00    +0.000 C 
ATOM     14  N   UNL     1       1.155   9.327  23.694  0.00  0.00    +0.000 NA
ENDBRANCH   8  13
BRANCH   1  15
ATOM     15  C   UNL     1       2.790   5.900  19.300  0.00  0.00    +0.000 C 
BRANCH  15  16
ATOM     16  C   UNL     1       4.117   5.918  18.517  0.00  0.00    +0.000 A 
ATOM     17  C   UNL     1       4.203   6.452  17.217  0.00  0.00    +0.000 A 
ATOM     18  C   UNL     1       5.435   6.635  16.589  0.00  0.00    +0.000 A 
ATOM     19  C   UNL     1       6.603   6.250  17.234  0.00  0.00    +0.000 A 
ATOM     20 CL   UNL     1       8.121   6.510  16.469  0.00  0.00    +0.000 Cl
ATOM     21  C   UNL     1       6.549   5.674  18.500  0.00  0.00    +0.000 A 
ATOM     22  C   UNL     1       5.317   5.517  19.142  0.00  0.00    +0.000 A 
ENDBRANCH  15  16
BRANCH  15  28
ATOM     23  C   UNL     1       1.670   3.597  21.365  0.00  0.00    +0.000 C 
ATOM     24  N   UNL     1       1.504   3.694  19.935  0.00  0.00    +0.000 N 
ATOM     25  C   UNL     1       0.728   2.799  19.243  0.00  0.00    +0.000 A 
ATOM     26  N   UNL     1       0.627   3.113  17.978  0.00  0.00    +0.000 NA
ATOM     27  C   UNL     1       1.377   4.245  17.839  0.00  0.00    +0.000 A 
ATOM     28  C   UNL     1       1.953   4.651  19.036  0.00  0.00    +0.000 A 
ENDBRANCH  15  28
BRANCH  15  29
ATOM     29  O   UNL     1       3.130   5.812  20.696  0.00  0.00    +0.000 OA
ATOM     30  H   UNL     1       2.500   5.198  21.103  0.00  0.00    +0.000 HD
ENDBRANCH  15  29
ENDBRANCH   1  15
BRANCH   7  31
ATOM     31  O   UNL     1       0.131  12.169  22.177  0.00  0.00    +0.000 OA
BRANCH  31  32
ATOM     32  C   UNL     1      -1.119  12.645  22.481  0.00  0.00    +0.000 A 
ATOM     33  C   UNL     1      -1.519  13.970  22.305  0.00  0.00    +0.000 A 
ATOM     34  C   UNL     1      -2.705  14.410  22.887  0.00  0.00    +0.000 A 
ATOM     35  C   UNL     1      -3.544  13.501  23.531  0.00  0.00    +0.000 A 
ATOM     36  C   UNL     1      -3.219  12.146  23.557  0.00  0.00    +0.000 A 
ATOM     37  C   UNL     1      -2.001  11.716  23.031  0.00  0.00    +0.000 A 
ENDBRANCH  31  32
ENDBRANCH   7  31
TORSDOF 8
ENDMDL
MODEL 9
REMARK VINA RESULT:      -7.1      1.420      1.889
REMARK  Name = 
REMARK  9 active torsions:
REMARK  status: ('A' for Active; 'I' for Inactive)
REMARK    1  A    between atoms: C_1  and  N_2
REMARK    2  A    between atoms: C_6  and  C_7
REMARK    3  A    between atoms: C_7  and  O_8
REMARK    4  A    between atoms: C_7  and  C_9
REMARK    5  A    between atoms: C_7  and  C_16
REMARK    6  A    between atoms: C_21  and  C_22
REMARK    7  A    between atoms: C_24  and  O_25
REMARK    8  A    between atoms: O_25  and  C_26
REMARK    9  A    between atoms: C_32  and  C_33
REMARK                            x       y       z     vdW  Elec       q    Type
REMARK                         _______ _______ _______ _____ _____    ______ ____
ROOT
ATOM      1  C   UNL     1       2.498   6.846  18.869  0.00  0.00    +0.000 A 
ATOM      2  C   UNL     1       2.175   7.267  17.572  0.00  0.00    +0.000 A 
ATOM      3  C   UNL     1       1.498   8.466  17.359  0.00  0.00    +0.000 A 
ATOM      4  C   UNL     1       1.173   9.304  18.409  0.00  0.00    +0.000 A 
ATOM      5  N   UNL     1       0.697  10.510  18.114  0.00  0.00    +0.000 NA
ATOM      6  C   UNL     1       0.456  11.393  19.116  0.00  0.00    +0.000 A 
ATOM      7  C   UNL     1       0.549  11.061  20.466  0.00  0.00    +0.000 A 
ATOM      8  C   UNL     1       1.064   9.792  20.766  0.00  0.00    +0.000 A 
ATOM      9  C   UNL     1       1.414   8.891  19.729  0.00  0.00    +0.000 A 
ATOM     10  C   UNL     1       2.031   7.637  19.935  0.00  0.00    +0.000 A 
ENDROOT
BRANCH   6  11
ATOM     11  C   UNL     1       0.184  12.703  18.597  0.00  0.00    +0.000 C 
ATOM     12  N   UNL     1      -0.080  13.771  18.214  0.00  0.00    +0.000 NA
ENDBRANCH   6  11
BRANCH   8  13
ATOM     13  C   UNL     1       1.331   9.442  22.139  0.00  0.00    +0.000 C 
ATOM     14  N   UNL     1       1.487   9.187  23.259  0.00  0.00    +0.000 NA
ENDBRANCH   8  13
BRANCH   1  15
ATOM     15  C   UNL     1       3.363   5.598  19.112  0.00  0.00    +0.000 C 
BRANCH  15  16
ATOM     16  C   UNL     1       4.352   5.349  17.955  0.00  0.00    +0.000 A 
ATOM     17  C   UNL     1       4.086   4.407  16.944  0.00  0.00    +0.000 A 
ATOM     18  C   UNL     1       4.890   4.317  15.807  0.00  0.00    +0.000 A 
ATOM     19  C   UNL     1       6.000   5.142  15.680  0.00  0.00    +0.000 A 
ATOM     20 CL   UNL     1       6.966   5.052  14.261  0.00  0.00    +0.000 Cl
ATOM     21  C   UNL     1       6.318   6.050  16.686  0.00  0.00    +0.000 A 
ATOM     22  C   UNL     1       5.496   6.161  17.811  0.00  0.00    +0.000 A 
ENDBRANCH  15  16
BRANCH  15  28
ATOM     23  C   UNL     1       4.375   2.605  20.026  0.00  0.00    +0.000 C 
ATOM     24  N   UNL     1       3.029   3.102  19.875  0.00  0.00    +0.000 N 
ATOM     25  C   UNL     1       1.941   2.333  20.201  0.00  0.00    +0.000 A 
ATOM     26  N   UNL     1       0.820   2.995  20.085  0.00  0.00    +0.000 NA
ATOM     27  C   UNL     1       1.190   4.235  19.653  0.00  0.00    +0.000 A 
ATOM     28  C   UNL     1       2.566   4.356  19.500  0.00  0.00    +0.000 A 
ENDBRANCH  15  28
BRANCH  15  29
ATOM     29  O   UNL     1       4.152   5.895  20.278  0.00  0.00    +0.000 OA
ATOM     30  H   UNL     1       4.130   6.857  20.398  0.00  0.00    +0.000 HD
ENDBRANCH  15  29
ENDBRANCH   1  15
BRANCH   7  31
ATOM     31  O   UNL     1       0.291  11.863  21.553  0.00  0.00    +0.000 OA
BRANCH  31  32
ATOM     32  C   UNL     1       0.762  13.150  21.602  0.00  0.00    +0.000 A 
ATOM     33  C   UNL     1       2.069  13.520  21.287  0.00  0.00    +0.000 A 
ATOM     34  C   UNL     1       2.519  14.796  21.622  0.00  0.00    +0.000 A 
ATOM     35  C   UNL     1       1.630  15.731  22.152  0.00  0.00    +0.000 A 
ATOM     36  C   UNL     1       0.284  15.406  22.307  0.00  0.00    +0.000 A 
ATOM     37  C   UNL     1      -0.152  14.111  22.032  0.00  0.00    +0.000 A 
ENDBRANCH  31  32
ENDBRANCH   7  31
TORSDOF 8
ENDMDL
