MODEL 1
REMARK VINA RESULT:      -8.3      0.000      0.000
REMARK  Name = 
REMARK  8 active torsions:
REMARK  status: ('A' for Active; 'I' for Inactive)
REMARK    1  A    between atoms: C_2  and  N_3
REMARK    2  A    between atoms: C_2  and  N_10
REMARK    3  A    between atoms: N_3  and  C_4
REMARK    4  A    between atoms: C_4  and  C_5
REMARK    5  A    between atoms: N_10  and  C_11
REMARK    6  A    between atoms: C_11  and  C_12
REMARK    7  A    between atoms: N_14  and  C_15
REMARK    8  A    between atoms: C_22  and  C_23
REMARK                            x       y       z     vdW  Elec       q    Type
REMARK                         _______ _______ _______ _____ _____    ______ ____
ROOT
ATOM      1  C   UNL     1       3.527   6.801  17.800  0.00  0.00    +0.000 A 
ATOM      2  C   UNL     1       2.999   7.994  18.251  0.00  0.00    +0.000 A 
ATOM      3  N   UNL     1       2.162   7.719  19.301  0.00  0.00    +0.000 N 
ATOM      4  N   UNL     1       2.132   6.391  19.562  0.00  0.00    +0.000 NA
ATOM      5  C   UNL     1       2.919   5.816  18.639  0.00  0.00    +0.000 A 
ENDROOT
BRANCH   3   6
ATOM      6  C   UNL     1       1.410   8.657  20.063  0.00  0.00    +0.000 A 
ATOM      7  C   UNL     1       1.119   8.422  21.416  0.00  0.00    +0.000 A 
ATOM      8  C   UNL     1       0.385   9.359  22.150  0.00  0.00    +0.000 A 
ATOM      9  C   UNL     1      -0.067  10.524  21.541  0.00  0.00    +0.000 A 
ATOM     10  C   UNL     1       0.214  10.763  20.198  0.00  0.00    +0.000 A 
ATOM     11  C   UNL     1       0.956   9.838  19.458  0.00  0.00    +0.000 A 
ENDBRANCH   3   6
BRANCH   5  12
ATOM     12  C   UNL     1       3.107   4.359  18.605  0.00  0.00    +0.000 A 
ATOM     13  C   UNL     1       2.517   3.573  17.604  0.00  0.00    +0.000 A 
ATOM     14  C   UNL     1       2.761   2.198  17.533  0.00  0.00    +0.000 A 
ATOM     15  C   UNL     1       3.567   1.586  18.487  0.00  0.00    +0.000 A 
ATOM     16  C   UNL     1       4.122   2.342  19.515  0.00  0.00    +0.000 A 
ATOM     17  C   UNL     1       3.895   3.723  19.573  0.00  0.00    +0.000 A 
ENDBRANCH   5  12
BRANCH   1  18
ATOM     18  C   UNL     1       4.535   6.605  16.722  0.00  0.00    +0.000 C 
BRANCH  18  19
ATOM     19  N   UNL     1       5.872   6.785  17.257  0.00  0.00    +0.000 N 
ATOM     20  H   UNL     1       6.147   7.733  17.483  0.00  0.00    +0.000 HD
BRANCH  19  22
ATOM     21  S   UNL     1       7.209   5.635  19.163  0.00  0.00    +0.000 S 
ATOM     22  C   UNL     1       6.792   5.833  17.560  0.00  0.00    +0.000 C 
BRANCH  22  23
ATOM     23  N   UNL     1       7.254   5.093  16.510  0.00  0.00    +0.000 N 
ATOM     24  H   UNL     1       8.247   4.901  16.508  0.00  0.00    +0.000 HD
BRANCH  23  25
ATOM     25  C   UNL     1       6.461   4.161  15.730  0.00  0.00    +0.000 C 
BRANCH  25  26
ATOM     26  C   UNL     1       6.767   4.355  14.292  0.00  0.00    +0.000 A 
ATOM     27  C   UNL     1       6.329   3.725  13.144  0.00  0.00    +0.000 A 
ATOM     28  C   UNL     1       7.033   4.316  12.070  0.00  0.00    +0.000 A 
ATOM     29  C   UNL     1       7.837   5.283  12.625  0.00  0.00    +0.000 A 
ATOM     30  O   UNL     1       7.679   5.322  13.973  0.00  0.00    +0.000 OA
ENDBRANCH  25  26
ENDBRANCH  23  25
ENDBRANCH  22  23
ENDBRANCH  19  22
ENDBRANCH  18  19
ENDBRANCH   1  18
TORSDOF 8
ENDMDL
MODEL 2
REMARK VINA RESULT:      -8.1      1.810      2.456
REMARK  Name = 
REMARK  8 active torsions:
REMARK  status: ('A' for Active; 'I' for Inactive)
REMARK    1  A    between atoms: C_2  and  N_3
REMARK    2  A    between atoms: C_2  and  N_10
REMARK    3  A    between atoms: N_3  and  C_4
REMARK    4  A    between atoms: C_4  and  C_5
REMARK    5  A    between atoms: N_10  and  C_11
REMARK    6  A    between atoms: C_11  and  C_12
REMARK    7  A    between atoms: N_14  and  C_15
REMARK    8  A    between atoms: C_22  and  C_23
REMARK                            x       y       z     vdW  Elec       q    Type
REMARK                         _______ _______ _______ _____ _____    ______ ____
ROOT
ATOM      1  C   UNL     1       2.293   7.241  19.318  0.00  0.00    +0.000 A 
ATOM      2  C   UNL     1       1.890   8.526  19.621  0.00  0.00    +0.000 A 
ATOM      3  N   UNL     1       1.069   8.467  20.717  0.00  0.00    +0.000 N 
ATOM      4  N   UNL     1       0.928   7.192  21.150  0.00  0.00    +0.000 NA
ATOM      5  C   UNL     1       1.628   6.433  20.292  0.00  0.00    +0.000 A 
ENDROOT
BRANCH   3   6
ATOM      6  C   UNL     1       0.431   9.561  21.366  0.00  0.00    +0.000 A 
ATOM      7  C   UNL     1       0.557  10.870  20.871  0.00  0.00    +0.000 A 
ATOM      8  C   UNL     1      -0.082  11.931  21.519  0.00  0.00    +0.000 A 
ATOM      9  C   UNL     1      -0.841  11.697  22.661  0.00  0.00    +0.000 A 
ATOM     10  C   UNL     1      -0.968  10.404  23.160  0.00  0.00    +0.000 A 
ATOM     11  C   UNL     1      -0.341   9.335  22.515  0.00  0.00    +0.000 A 
ENDBRANCH   3   6
BRANCH   5  12
ATOM     12  C   UNL     1       1.683   4.972  20.445  0.00  0.00    +0.000 A 
ATOM     13  C   UNL     1       2.349   4.380  21.529  0.00  0.00    +0.000 A 
ATOM     14  C   UNL     1       2.335   2.994  21.710  0.00  0.00    +0.000 A 
ATOM     15  C   UNL     1       1.687   2.180  20.788  0.00  0.00    +0.000 A 
ATOM     16  C   UNL     1       1.061   2.747  19.681  0.00  0.00    +0.000 A 
ATOM     17  C   UNL     1       1.058   4.137  19.511  0.00  0.00    +0.000 A 
ENDBRANCH   5  12
BRANCH   1  18
ATOM     18  C   UNL     1       3.242   6.815  18.253  0.00  0.00    +0.000 C 
BRANCH  18  19
ATOM     19  N   UNL     1       4.435   6.250  18.852  0.00  0.00    +0.000 N 
ATOM     20  H   UNL     1       4.704   6.611  19.758  0.00  0.00    +0.000 HD
BRANCH  19  22
ATOM     21  S   UNL     1       4.693   3.677  18.620  0.00  0.00    +0.000 S 
ATOM     22  C   UNL     1       5.217   5.242  18.383  0.00  0.00    +0.000 C 
BRANCH  22  23
ATOM     23  N   UNL     1       6.344   5.622  17.714  0.00  0.00    +0.000 N 
ATOM     24  H   UNL     1       6.723   6.526  17.964  0.00  0.00    +0.000 HD
BRANCH  23  25
ATOM     25  C   UNL     1       7.303   4.716  17.108  0.00  0.00    +0.000 C 
BRANCH  25  26
ATOM     26  C   UNL     1       6.962   4.542  15.675  0.00  0.00    +0.000 A 
ATOM     27  C   UNL     1       6.042   3.752  15.016  0.00  0.00    +0.000 A 
ATOM     28  C   UNL     1       6.234   3.981  13.634  0.00  0.00    +0.000 A 
ATOM     29  C   UNL     1       7.241   4.912  13.537  0.00  0.00    +0.000 A 
ATOM     30  O   UNL     1       7.686   5.267  14.770  0.00  0.00    +0.000 OA
ENDBRANCH  25  26
ENDBRANCH  23  25
ENDBRANCH  22  23
ENDBRANCH  19  22
ENDBRANCH  18  19
ENDBRANCH   1  18
TORSDOF 8
ENDMDL
MODEL 3
REMARK VINA RESULT:      -8.1      3.542      6.289
REMARK  Name = 
REMARK  8 active torsions:
REMARK  status: ('A' for Active; 'I' for Inactive)
REMARK    1  A    between atoms: C_2  and  N_3
REMARK    2  A    between atoms: C_2  and  N_10
REMARK    3  A    between atoms: N_3  and  C_4
REMARK    4  A    between atoms: C_4  and  C_5
REMARK    5  A    between atoms: N_10  and  C_11
REMARK    6  A    between atoms: C_11  and  C_12
REMARK    7  A    between atoms: N_14  and  C_15
REMARK    8  A    between atoms: C_22  and  C_23
REMARK                            x       y       z     vdW  Elec       q    Type
REMARK                         _______ _______ _______ _____ _____    ______ ____
ROOT
ATOM      1  C   UNL     1       5.306   6.000  16.776  0.00  0.00    +0.000 A 
ATOM      2  C   UNL     1       4.485   5.755  17.859  0.00  0.00    +0.000 A 
ATOM      3  N   UNL     1       3.890   4.535  17.673  0.00  0.00    +0.000 N 
ATOM      4  N   UNL     1       4.298   3.966  16.515  0.00  0.00    +0.000 NA
ATOM      5  C   UNL     1       5.124   4.855  15.940  0.00  0.00    +0.000 A 
ENDROOT
BRANCH   3   6
ATOM      6  C   UNL     1       2.968   3.893  18.548  0.00  0.00    +0.000 A 
ATOM      7  C   UNL     1       1.800   3.291  18.053  0.00  0.00    +0.000 A 
ATOM      8  C   UNL     1       0.910   2.659  18.927  0.00  0.00    +0.000 A 
ATOM      9  C   UNL     1       1.175   2.629  20.292  0.00  0.00    +0.000 A 
ATOM     10  C   UNL     1       2.329   3.226  20.792  0.00  0.00    +0.000 A 
ATOM     11  C   UNL     1       3.230   3.852  19.925  0.00  0.00    +0.000 A 
ENDBRANCH   3   6
BRANCH   5  12
ATOM     12  C   UNL     1       5.749   4.576  14.639  0.00  0.00    +0.000 A 
ATOM     13  C   UNL     1       7.016   5.086  14.318  0.00  0.00    +0.000 A 
ATOM     14  C   UNL     1       7.638   4.757  13.110  0.00  0.00    +0.000 A 
ATOM     15  C   UNL     1       6.983   3.944  12.191  0.00  0.00    +0.000 A 
ATOM     16  C   UNL     1       5.705   3.467  12.473  0.00  0.00    +0.000 A 
ATOM     17  C   UNL     1       5.092   3.781  13.692  0.00  0.00    +0.000 A 
ENDBRANCH   5  12
BRANCH   1  18
ATOM     18  C   UNL     1       6.207   7.167  16.566  0.00  0.00    +0.000 C 
BRANCH  18  19
ATOM     19  N   UNL     1       7.528   6.871  17.087  0.00  0.00    +0.000 N 
ATOM     20  H   UNL     1       8.243   6.643  16.408  0.00  0.00    +0.000 HD
BRANCH  19  22
ATOM     21  S   UNL     1       7.773   5.551  19.309  0.00  0.00    +0.000 S 
ATOM     22  C   UNL     1       7.955   6.921  18.375  0.00  0.00    +0.000 C 
BRANCH  22  23
ATOM     23  N   UNL     1       8.543   8.089  18.765  0.00  0.00    +0.000 N 
ATOM     24  H   UNL     1       9.415   7.998  19.270  0.00  0.00    +0.000 HD
BRANCH  23  25
ATOM     25  C   UNL     1       8.354   9.377  18.122  0.00  0.00    +0.000 C 
BRANCH  25  26
ATOM     26  C   UNL     1       9.278  10.362  18.735  0.00  0.00    +0.000 A 
ATOM     27  C   UNL     1       9.528  10.729  20.041  0.00  0.00    +0.000 A 
ATOM     28  C   UNL     1      10.479  11.774  19.988  0.00  0.00    +0.000 A 
ATOM     29  C   UNL     1      10.766  11.963  18.657  0.00  0.00    +0.000 A 
ATOM     30  O   UNL     1      10.048  11.105  17.886  0.00  0.00    +0.000 OA
ENDBRANCH  25  26
ENDBRANCH  23  25
ENDBRANCH  22  23
ENDBRANCH  19  22
ENDBRANCH  18  19
ENDBRANCH   1  18
TORSDOF 8
ENDMDL
MODEL 4
REMARK VINA RESULT:      -7.9      1.583      1.817
REMARK  Name = 
REMARK  8 active torsions:
REMARK  status: ('A' for Active; 'I' for Inactive)
REMARK    1  A    between atoms: C_2  and  N_3
REMARK    2  A    between atoms: C_2  and  N_10
REMARK    3  A    between atoms: N_3  and  C_4
REMARK    4  A    between atoms: C_4  and  C_5
REMARK    5  A    between atoms: N_10  and  C_11
REMARK    6  A    between atoms: C_11  and  C_12
REMARK    7  A    between atoms: N_14  and  C_15
REMARK    8  A    between atoms: C_22  and  C_23
REMARK                            x       y       z     vdW  Elec       q    Type
REMARK                         _______ _______ _______ _____ _____    ______ ____
ROOT
ATOM      1  C   UNL     1       2.274   7.306  19.089  0.00  0.00    +0.000 A 
ATOM      2  C   UNL     1       1.855   8.569  19.457  0.00  0.00    +0.000 A 
ATOM      3  N   UNL     1       1.082   8.449  20.582  0.00  0.00    +0.000 N 
ATOM      4  N   UNL     1       0.988   7.156  20.971  0.00  0.00    +0.000 NA
ATOM      5  C   UNL     1       1.669   6.447  20.058  0.00  0.00    +0.000 A 
ENDROOT
BRANCH   3   6
ATOM      6  C   UNL     1       0.447   9.503  21.297  0.00  0.00    +0.000 A 
ATOM      7  C   UNL     1      -0.270   9.247  22.478  0.00  0.00    +0.000 A 
ATOM      8  C   UNL     1      -0.883  10.296  23.170  0.00  0.00    +0.000 A 
ATOM      9  C   UNL     1      -0.789  11.598  22.690  0.00  0.00    +0.000 A 
ATOM     10  C   UNL     1      -0.083  11.860  21.519  0.00  0.00    +0.000 A 
ATOM     11  C   UNL     1       0.540  10.820  20.824  0.00  0.00    +0.000 A 
ENDBRANCH   3   6
BRANCH   5  12
ATOM     12  C   UNL     1       1.764   4.983  20.153  0.00  0.00    +0.000 A 
ATOM     13  C   UNL     1       1.385   4.159  19.082  0.00  0.00    +0.000 A 
ATOM     14  C   UNL     1       1.547   2.772  19.151  0.00  0.00    +0.000 A 
ATOM     15  C   UNL     1       2.055   2.189  20.307  0.00  0.00    +0.000 A 
ATOM     16  C   UNL     1       2.392   2.987  21.396  0.00  0.00    +0.000 A 
ATOM     17  C   UNL     1       2.249   4.378  21.319  0.00  0.00    +0.000 A 
ENDBRANCH   5  12
BRANCH   1  18
ATOM     18  C   UNL     1       3.187   6.943  17.971  0.00  0.00    +0.000 C 
BRANCH  18  19
ATOM     19  N   UNL     1       4.453   6.471  18.500  0.00  0.00    +0.000 N 
ATOM     20  H   UNL     1       4.799   6.935  19.330  0.00  0.00    +0.000 HD
BRANCH  19  22
ATOM     21  S   UNL     1       5.209   4.031  18.962  0.00  0.00    +0.000 S 
ATOM     22  C   UNL     1       5.214   5.435  18.063  0.00  0.00    +0.000 C 
BRANCH  22  23
ATOM     23  N   UNL     1       5.879   5.635  16.887  0.00  0.00    +0.000 N 
ATOM     24  H   UNL     1       5.803   6.562  16.489  0.00  0.00    +0.000 HD
BRANCH  23  25
ATOM     25  C   UNL     1       7.039   4.884  16.443  0.00  0.00    +0.000 C 
BRANCH  25  26
ATOM     26  C   UNL     1       6.945   4.677  14.977  0.00  0.00    +0.000 A 
ATOM     27  C   UNL     1       6.155   3.863  14.191  0.00  0.00    +0.000 A 
ATOM     28  C   UNL     1       6.575   4.065  12.856  0.00  0.00    +0.000 A 
ATOM     29  C   UNL     1       7.577   5.004  12.909  0.00  0.00    +0.000 A 
ATOM     30  O   UNL     1       7.806   5.390  14.191  0.00  0.00    +0.000 OA
ENDBRANCH  25  26
ENDBRANCH  23  25
ENDBRANCH  22  23
ENDBRANCH  19  22
ENDBRANCH  18  19
ENDBRANCH   1  18
TORSDOF 8
ENDMDL
MODEL 5
REMARK VINA RESULT:      -7.8      1.775      2.121
REMARK  Name = 
REMARK  8 active torsions:
REMARK  status: ('A' for Active; 'I' for Inactive)
REMARK    1  A    between atoms: C_2  and  N_3
REMARK    2  A    between atoms: C_2  and  N_10
REMARK    3  A    between atoms: N_3  and  C_4
REMARK    4  A    between atoms: C_4  and  C_5
REMARK    5  A    between atoms: N_10  and  C_11
REMARK    6  A    between atoms: C_11  and  C_12
REMARK    7  A    between atoms: N_14  and  C_15
REMARK    8  A    between atoms: C_22  and  C_23
REMARK                            x       y       z     vdW  Elec       q    Type
REMARK                         _______ _______ _______ _____ _____    ______ ____
ROOT
ATOM      1  C   UNL     1       2.855   6.836  18.604  0.00  0.00    +0.000 A 
ATOM      2  C   UNL     1       2.610   8.192  18.513  0.00  0.00    +0.000 A 
ATOM      3  N   UNL     1       1.652   8.514  19.439  0.00  0.00    +0.000 N 
ATOM      4  N   UNL     1       1.269   7.421  20.141  0.00  0.00    +0.000 NA
ATOM      5  C   UNL     1       1.956   6.391  19.622  0.00  0.00    +0.000 A 
ENDROOT
BRANCH   3   6
ATOM      6  C   UNL     1       1.103   9.803  19.686  0.00  0.00    +0.000 A 
ATOM      7  C   UNL     1       0.991  10.303  20.994  0.00  0.00    +0.000 A 
ATOM      8  C   UNL     1       0.454  11.575  21.218  0.00  0.00    +0.000 A 
ATOM      9  C   UNL     1       0.023  12.349  20.145  0.00  0.00    +0.000 A 
ATOM     10  C   UNL     1       0.128  11.860  18.846  0.00  0.00    +0.000 A 
ATOM     11  C   UNL     1       0.671  10.593  18.612  0.00  0.00    +0.000 A 
ENDBRANCH   3   6
BRANCH   5  12
ATOM     12  C   UNL     1       1.775   5.026  20.135  0.00  0.00    +0.000 A 
ATOM     13  C   UNL     1       1.088   4.055  19.389  0.00  0.00    +0.000 A 
ATOM     14  C   UNL     1       0.984   2.739  19.847  0.00  0.00    +0.000 A 
ATOM     15  C   UNL     1       1.531   2.386  21.076  0.00  0.00    +0.000 A 
ATOM     16  C   UNL     1       2.175   3.347  21.851  0.00  0.00    +0.000 A 
ATOM     17  C   UNL     1       2.297   4.661  21.382  0.00  0.00    +0.000 A 
ENDBRANCH   5  12
BRANCH   1  18
ATOM     18  C   UNL     1       3.862   6.044  17.846  0.00  0.00    +0.000 C 
BRANCH  18  19
ATOM     19  N   UNL     1       4.861   5.516  18.756  0.00  0.00    +0.000 N 
ATOM     20  H   UNL     1       5.093   6.089  19.558  0.00  0.00    +0.000 HD
BRANCH  19  22
ATOM     21  S   UNL     1       4.602   2.956  19.100  0.00  0.00    +0.000 S 
ATOM     22  C   UNL     1       5.490   4.313  18.711  0.00  0.00    +0.000 C 
BRANCH  22  23
ATOM     23  N   UNL     1       6.791   4.333  18.298  0.00  0.00    +0.000 N 
ATOM     24  H   UNL     1       7.291   3.457  18.371  0.00  0.00    +0.000 HD
BRANCH  23  25
ATOM     25  C   UNL     1       7.349   5.265  17.335  0.00  0.00    +0.000 C 
BRANCH  25  26
ATOM     26  C   UNL     1       6.971   4.830  15.969  0.00  0.00    +0.000 A 
ATOM     27  C   UNL     1       6.078   3.890  15.495  0.00  0.00    +0.000 A 
ATOM     28  C   UNL     1       6.209   3.889  14.087  0.00  0.00    +0.000 A 
ATOM     29  C   UNL     1       7.154   4.841  13.789  0.00  0.00    +0.000 A 
ATOM     30  O   UNL     1       7.619   5.426  14.924  0.00  0.00    +0.000 OA
ENDBRANCH  25  26
ENDBRANCH  23  25
ENDBRANCH  22  23
ENDBRANCH  19  22
ENDBRANCH  18  19
ENDBRANCH   1  18
TORSDOF 8
ENDMDL
MODEL 6
REMARK VINA RESULT:      -7.7      2.312      3.226
REMARK  Name = 
REMARK  8 active torsions:
REMARK  status: ('A' for Active; 'I' for Inactive)
REMARK    1  A    between atoms: C_2  and  N_3
REMARK    2  A    between atoms: C_2  and  N_10
REMARK    3  A    between atoms: N_3  and  C_4
REMARK    4  A    between atoms: C_4  and  C_5
REMARK    5  A    between atoms: N_10  and  C_11
REMARK    6  A    between atoms: C_11  and  C_12
REMARK    7  A    between atoms: N_14  and  C_15
REMARK    8  A    between atoms: C_22  and  C_23
REMARK                            x       y       z     vdW  Elec       q    Type
REMARK                         _______ _______ _______ _____ _____    ______ ____
ROOT
ATOM      1  C   UNL     1       2.405   7.185  19.399  0.00  0.00    +0.000 A 
ATOM      2  C   UNL     1       1.991   8.477  19.661  0.00  0.00    +0.000 A 
ATOM      3  N   UNL     1       1.116   8.437  20.715  0.00  0.00    +0.000 N 
ATOM      4  N   UNL     1       0.950   7.170  21.161  0.00  0.00    +0.000 NA
ATOM      5  C   UNL     1       1.689   6.395  20.352  0.00  0.00    +0.000 A 
ENDROOT
BRANCH   3   6
ATOM      6  C   UNL     1       0.450   9.544  21.313  0.00  0.00    +0.000 A 
ATOM      7  C   UNL     1      -0.294   9.388  22.494  0.00  0.00    +0.000 A 
ATOM      8  C   UNL     1      -0.936  10.488  23.071  0.00  0.00    +0.000 A 
ATOM      9  C   UNL     1      -0.846  11.741  22.474  0.00  0.00    +0.000 A 
ATOM     10  C   UNL     1      -0.113  11.904  21.301  0.00  0.00    +0.000 A 
ATOM     11  C   UNL     1       0.540  10.812  20.722  0.00  0.00    +0.000 A 
ENDBRANCH   3   6
BRANCH   5  12
ATOM     12  C   UNL     1       1.732   4.937  20.532  0.00  0.00    +0.000 A 
ATOM     13  C   UNL     1       2.733   4.330  21.307  0.00  0.00    +0.000 A 
ATOM     14  C   UNL     1       2.725   2.951  21.536  0.00  0.00    +0.000 A 
ATOM     15  C   UNL     1       1.739   2.157  20.961  0.00  0.00    +0.000 A 
ATOM     16  C   UNL     1       0.766   2.736  20.151  0.00  0.00    +0.000 A 
ATOM     17  C   UNL     1       0.762   4.120  19.938  0.00  0.00    +0.000 A 
ENDBRANCH   5  12
BRANCH   1  18
ATOM     18  C   UNL     1       3.404   6.740  18.390  0.00  0.00    +0.000 C 
BRANCH  18  19
ATOM     19  N   UNL     1       3.024   5.444  17.858  0.00  0.00    +0.000 N 
ATOM     20  H   UNL     1       2.038   5.218  17.875  0.00  0.00    +0.000 HD
BRANCH  19  22
ATOM     21  S   UNL     1       3.638   2.923  17.764  0.00  0.00    +0.000 S 
ATOM     22  C   UNL     1       3.818   4.508  17.276  0.00  0.00    +0.000 C 
BRANCH  22  23
ATOM     23  N   UNL     1       4.660   4.960  16.302  0.00  0.00    +0.000 N 
ATOM     24  H   UNL     1       4.392   5.825  15.852  0.00  0.00    +0.000 HD
BRANCH  23  25
ATOM     25  C   UNL     1       6.075   4.649  16.209  0.00  0.00    +0.000 C 
BRANCH  25  26
ATOM     26  C   UNL     1       6.835   5.609  17.047  0.00  0.00    +0.000 A 
ATOM     27  C   UNL     1       7.511   5.482  18.244  0.00  0.00    +0.000 A 
ATOM     28  C   UNL     1       7.984   6.772  18.575  0.00  0.00    +0.000 A 
ATOM     29  C   UNL     1       7.589   7.599  17.550  0.00  0.00    +0.000 A 
ATOM     30  O   UNL     1       6.897   6.903  16.612  0.00  0.00    +0.000 OA
ENDBRANCH  25  26
ENDBRANCH  23  25
ENDBRANCH  22  23
ENDBRANCH  19  22
ENDBRANCH  18  19
ENDBRANCH   1  18
TORSDOF 8
ENDMDL
MODEL 7
REMARK VINA RESULT:      -7.7      1.163      1.923
REMARK  Name = 
REMARK  8 active torsions:
REMARK  status: ('A' for Active; 'I' for Inactive)
REMARK    1  A    between atoms: C_2  and  N_3
REMARK    2  A    between atoms: C_2  and  N_10
REMARK    3  A    between atoms: N_3  and  C_4
REMARK    4  A    between atoms: C_4  and  C_5
REMARK    5  A    between atoms: N_10  and  C_11
REMARK    6  A    between atoms: C_11  and  C_12
REMARK    7  A    between atoms: N_14  and  C_15
REMARK    8  A    between atoms: C_22  and  C_23
REMARK                            x       y       z     vdW  Elec       q    Type
REMARK                         _______ _______ _______ _____ _____    ______ ____
ROOT
ATOM      1  C   UNL     1       3.339   6.945  17.920  0.00  0.00    +0.000 A 
ATOM      2  C   UNL     1       2.785   8.102  18.432  0.00  0.00    +0.000 A 
ATOM      3  N   UNL     1       2.006   7.760  19.507  0.00  0.00    +0.000 N 
ATOM      4  N   UNL     1       2.038   6.425  19.726  0.00  0.00    +0.000 NA
ATOM      5  C   UNL     1       2.806   5.911  18.752  0.00  0.00    +0.000 A 
ENDROOT
BRANCH   3   6
ATOM      6  C   UNL     1       1.252   8.644  20.330  0.00  0.00    +0.000 A 
ATOM      7  C   UNL     1       0.589   9.754  19.782  0.00  0.00    +0.000 A 
ATOM      8  C   UNL     1      -0.152  10.607  20.606  0.00  0.00    +0.000 A 
ATOM      9  C   UNL     1      -0.230  10.364  21.973  0.00  0.00    +0.000 A 
ATOM     10  C   UNL     1       0.427   9.267  22.525  0.00  0.00    +0.000 A 
ATOM     11  C   UNL     1       1.163   8.403  21.709  0.00  0.00    +0.000 A 
ENDBRANCH   3   6
BRANCH   5  12
ATOM     12  C   UNL     1       3.049   4.464  18.663  0.00  0.00    +0.000 A 
ATOM     13  C   UNL     1       4.005   3.837  19.476  0.00  0.00    +0.000 A 
ATOM     14  C   UNL     1       4.179   2.450  19.441  0.00  0.00    +0.000 A 
ATOM     15  C   UNL     1       3.426   1.678  18.563  0.00  0.00    +0.000 A 
ATOM     16  C   UNL     1       2.507   2.289  17.714  0.00  0.00    +0.000 A 
ATOM     17  C   UNL     1       2.318   3.676  17.765  0.00  0.00    +0.000 A 
ENDBRANCH   5  12
BRANCH   1  18
ATOM     18  C   UNL     1       4.306   6.823  16.795  0.00  0.00    +0.000 C 
BRANCH  18  19
ATOM     19  N   UNL     1       5.518   7.556  17.105  0.00  0.00    +0.000 N 
ATOM     20  H   UNL     1       5.500   8.555  16.941  0.00  0.00    +0.000 HD
BRANCH  19  22
ATOM     21  S   UNL     1       7.983   8.113  17.701  0.00  0.00    +0.000 S 
ATOM     22  C   UNL     1       6.670   7.087  17.651  0.00  0.00    +0.000 C 
BRANCH  22  23
ATOM     23  N   UNL     1       6.619   5.820  18.156  0.00  0.00    +0.000 N 
ATOM     24  H   UNL     1       5.792   5.590  18.693  0.00  0.00    +0.000 HD
BRANCH  23  25
ATOM     25  C   UNL     1       7.314   4.671  17.604  0.00  0.00    +0.000 C 
BRANCH  25  26
ATOM     26  C   UNL     1       6.862   4.459  16.208  0.00  0.00    +0.000 A 
ATOM     27  C   UNL     1       7.360   4.868  14.987  0.00  0.00    +0.000 A 
ATOM     28  C   UNL     1       6.452   4.403  14.008  0.00  0.00    +0.000 A 
ATOM     29  C   UNL     1       5.471   3.722  14.690  0.00  0.00    +0.000 A 
ATOM     30  O   UNL     1       5.713   3.742  16.026  0.00  0.00    +0.000 OA
ENDBRANCH  25  26
ENDBRANCH  23  25
ENDBRANCH  22  23
ENDBRANCH  19  22
ENDBRANCH  18  19
ENDBRANCH   1  18
TORSDOF 8
ENDMDL
MODEL 8
REMARK VINA RESULT:      -7.7      2.426      3.338
REMARK  Name = 
REMARK  8 active torsions:
REMARK  status: ('A' for Active; 'I' for Inactive)
REMARK    1  A    between atoms: C_2  and  N_3
REMARK    2  A    between atoms: C_2  and  N_10
REMARK    3  A    between atoms: N_3  and  C_4
REMARK    4  A    between atoms: C_4  and  C_5
REMARK    5  A    between atoms: N_10  and  C_11
REMARK    6  A    between atoms: C_11  and  C_12
REMARK    7  A    between atoms: N_14  and  C_15
REMARK    8  A    between atoms: C_22  and  C_23
REMARK                            x       y       z     vdW  Elec       q    Type
REMARK                         _______ _______ _______ _____ _____    ______ ____
ROOT
ATOM      1  C   UNL     1       2.467   7.026  19.463  0.00  0.00    +0.000 A 
ATOM      2  C   UNL     1       2.077   8.330  19.694  0.00  0.00    +0.000 A 
ATOM      3  N   UNL     1       1.163   8.326  20.715  0.00  0.00    +0.000 N 
ATOM      4  N   UNL     1       0.947   7.068  21.169  0.00  0.00    +0.000 NA
ATOM      5  C   UNL     1       1.697   6.266  20.397  0.00  0.00    +0.000 A 
ENDROOT
BRANCH   3   6
ATOM      6  C   UNL     1       0.503   9.456  21.275  0.00  0.00    +0.000 A 
ATOM      7  C   UNL     1       0.518  10.699  20.623  0.00  0.00    +0.000 A 
ATOM      8  C   UNL     1      -0.140  11.797  21.185  0.00  0.00    +0.000 A 
ATOM      9  C   UNL     1      -0.809  11.663  22.397  0.00  0.00    +0.000 A 
ATOM     10  C   UNL     1      -0.827  10.435  23.052  0.00  0.00    +0.000 A 
ATOM     11  C   UNL     1      -0.179   9.329  22.494  0.00  0.00    +0.000 A 
ENDBRANCH   3   6
BRANCH   5  12
ATOM     12  C   UNL     1       1.696   4.809  20.595  0.00  0.00    +0.000 A 
ATOM     13  C   UNL     1       0.710   3.998  20.014  0.00  0.00    +0.000 A 
ATOM     14  C   UNL     1       0.757   2.607  20.143  0.00  0.00    +0.000 A 
ATOM     15  C   UNL     1       1.770   2.012  20.888  0.00  0.00    +0.000 A 
ATOM     16  C   UNL     1       2.730   2.805  21.511  0.00  0.00    +0.000 A 
ATOM     17  C   UNL     1       2.694   4.197  21.364  0.00  0.00    +0.000 A 
ENDBRANCH   5  12
BRANCH   1  18
ATOM     18  C   UNL     1       3.492   6.543  18.497  0.00  0.00    +0.000 C 
BRANCH  18  19
ATOM     19  N   UNL     1       3.040   5.316  17.870  0.00  0.00    +0.000 N 
ATOM     20  H   UNL     1       2.039   5.174  17.819  0.00  0.00    +0.000 HD
BRANCH  19  22
ATOM     21  S   UNL     1       3.469   2.762  17.683  0.00  0.00    +0.000 S 
ATOM     22  C   UNL     1       3.787   4.348  17.278  0.00  0.00    +0.000 C 
BRANCH  22  23
ATOM     23  N   UNL     1       4.703   4.777  16.361  0.00  0.00    +0.000 N 
ATOM     24  H   UNL     1       4.487   5.648  15.894  0.00  0.00    +0.000 HD
BRANCH  23  25
ATOM     25  C   UNL     1       6.112   4.430  16.361  0.00  0.00    +0.000 C 
BRANCH  25  26
ATOM     26  C   UNL     1       6.826   5.315  17.313  0.00  0.00    +0.000 A 
ATOM     27  C   UNL     1       7.296   6.610  17.222  0.00  0.00    +0.000 A 
ATOM     28  C   UNL     1       7.950   6.885  18.445  0.00  0.00    +0.000 A 
ATOM     29  C   UNL     1       7.820   5.753  19.212  0.00  0.00    +0.000 A 
ATOM     30  O   UNL     1       7.131   4.794  18.539  0.00  0.00    +0.000 OA
ENDBRANCH  25  26
ENDBRANCH  23  25
ENDBRANCH  22  23
ENDBRANCH  19  22
ENDBRANCH  18  19
ENDBRANCH   1  18
TORSDOF 8
ENDMDL
MODEL 9
REMARK VINA RESULT:      -7.7      3.518      6.360
REMARK  Name = 
REMARK  8 active torsions:
REMARK  status: ('A' for Active; 'I' for Inactive)
REMARK    1  A    between atoms: C_2  and  N_3
REMARK    2  A    between atoms: C_2  and  N_10
REMARK    3  A    between atoms: N_3  and  C_4
REMARK    4  A    between atoms: C_4  and  C_5
REMARK    5  A    between atoms: N_10  and  C_11
REMARK    6  A    between atoms: C_11  and  C_12
REMARK    7  A    between atoms: N_14  and  C_15
REMARK    8  A    between atoms: C_22  and  C_23
REMARK                            x       y       z     vdW  Elec       q    Type
REMARK                         _______ _______ _______ _____ _____    ______ ____
ROOT
ATOM      1  C   UNL     1       5.489   5.942  16.633  0.00  0.00    +0.000 A 
ATOM      2  C   UNL     1       4.603   5.793  17.681  0.00  0.00    +0.000 A 
ATOM      3  N   UNL     1       3.864   4.660  17.456  0.00  0.00    +0.000 N 
ATOM      4  N   UNL     1       4.241   4.056  16.305  0.00  0.00    +0.000 NA
ATOM      5  C   UNL     1       5.194   4.839  15.774  0.00  0.00    +0.000 A 
ENDROOT
BRANCH   3   6
ATOM      6  C   UNL     1       2.837   4.132  18.286  0.00  0.00    +0.000 A 
ATOM      7  C   UNL     1       2.544   4.710  19.532  0.00  0.00    +0.000 A 
ATOM      8  C   UNL     1       1.526   4.181  20.332  0.00  0.00    +0.000 A 
ATOM      9  C   UNL     1       0.803   3.074  19.900  0.00  0.00    +0.000 A 
ATOM     10  C   UNL     1       1.089   2.493  18.667  0.00  0.00    +0.000 A 
ATOM     11  C   UNL     1       2.098   3.020  17.857  0.00  0.00    +0.000 A 
ENDBRANCH   3   6
BRANCH   5  12
ATOM     12  C   UNL     1       5.828   4.496  14.492  0.00  0.00    +0.000 A 
ATOM     13  C   UNL     1       5.202   3.633  13.580  0.00  0.00    +0.000 A 
ATOM     14  C   UNL     1       5.775   3.369  12.332  0.00  0.00    +0.000 A 
ATOM     15  C   UNL     1       6.999   3.937  11.996  0.00  0.00    +0.000 A 
ATOM     16  C   UNL     1       7.657   4.759  12.908  0.00  0.00    +0.000 A 
ATOM     17  C   UNL     1       7.073   5.038  14.149  0.00  0.00    +0.000 A 
ENDBRANCH   5  12
BRANCH   1  18
ATOM     18  C   UNL     1       6.538   6.987  16.474  0.00  0.00    +0.000 C 
BRANCH  18  19
ATOM     19  N   UNL     1       6.855   7.568  17.764  0.00  0.00    +0.000 N 
ATOM     20  H   UNL     1       6.200   8.247  18.130  0.00  0.00    +0.000 HD
BRANCH  19  22
ATOM     21  S   UNL     1       8.056   5.698  19.105  0.00  0.00    +0.000 S 
ATOM     22  C   UNL     1       7.895   7.274  18.587  0.00  0.00    +0.000 C 
BRANCH  22  23
ATOM     23  N   UNL     1       8.743   8.306  18.871  0.00  0.00    +0.000 N 
ATOM     24  H   UNL     1       9.675   8.044  19.162  0.00  0.00    +0.000 HD
BRANCH  23  25
ATOM     25  C   UNL     1       8.638   9.649  18.330  0.00  0.00    +0.000 C 
BRANCH  25  26
ATOM     26  C   UNL     1       9.485  10.561  19.136  0.00  0.00    +0.000 A 
ATOM     27  C   UNL     1       9.484  10.910  20.471  0.00  0.00    +0.000 A 
ATOM     28  C   UNL     1      10.501  11.878  20.633  0.00  0.00    +0.000 A 
ATOM     29  C   UNL     1      11.073  12.042  19.394  0.00  0.00    +0.000 A 
ATOM     30  O   UNL     1      10.470  11.241  18.477  0.00  0.00    +0.000 OA
ENDBRANCH  25  26
ENDBRANCH  23  25
ENDBRANCH  22  23
ENDBRANCH  19  22
ENDBRANCH  18  19
ENDBRANCH   1  18
TORSDOF 8
ENDMDL
