MODEL 1
REMARK VINA RESULT:      -7.8      0.000      0.000
REMARK  Name = 
REMARK  9 active torsions:
REMARK  status: ('A' for Active; 'I' for Inactive)
REMARK    1  A    between atoms: C_1  and  C_2
REMARK    2  A    between atoms: C_2  and  C_3
REMARK    3  A    between atoms: C_2  and  C_4
REMARK    4  A    between atoms: C_2  and  O_5
REMARK    5  A    between atoms: O_5  and  C_6
REMARK    6  A    between atoms: C_6  and  C_8
REMARK    7  A    between atoms: C_9  and  O_10
REMARK    8  A    between atoms: N_13  and  C_14
REMARK    9  A    between atoms: C_14  and  C_15
REMARK                            x       y       z     vdW  Elec       q    Type
REMARK                         _______ _______ _______ _____ _____    ______ ____
ROOT
ATOM      1  C   UNL     1       6.306   5.063  15.822  0.00  0.00    +0.000 C 
ATOM      2  C   UNL     1       6.877   4.729  16.990  0.00  0.00    +0.000 C 
ATOM      3  C   UNL     1       5.940   5.121  18.060  0.00  0.00    +0.000 C 
ATOM      4  O   UNL     1       6.083   4.884  19.246  0.00  0.00    +0.000 OA
ATOM      5  N   UNL     1       4.872   5.743  17.439  0.00  0.00    +0.000 N 
ATOM      6  C   UNL     1       4.989   5.728  15.993  0.00  0.00    +0.000 C 
ENDROOT
BRANCH   1   7
ATOM      7  C   UNL     1       6.976   4.694  14.582  0.00  0.00    +0.000 C 
ATOM      8  O   UNL     1       7.904   5.374  14.163  0.00  0.00    +0.000 OA
BRANCH   7   9
ATOM      9  O   UNL     1       6.503   3.562  13.992  0.00  0.00    +0.000 OA
BRANCH   9  11
ATOM     10  C   UNL     1       6.521   2.206  11.926  0.00  0.00    +0.000 C 
ATOM     11  C   UNL     1       6.306   3.597  12.544  0.00  0.00    +0.000 C 
ATOM     12  C   UNL     1       7.189   4.669  11.877  0.00  0.00    +0.000 C 
ATOM     13  C   UNL     1       4.839   3.990  12.293  0.00  0.00    +0.000 C 
ENDBRANCH   9  11
ENDBRANCH   7   9
ENDBRANCH   1   7
BRANCH   2  14
ATOM     14  O   UNL     1       8.060   4.083  17.215  0.00  0.00    +0.000 OA
ATOM     15  H   UNL     1       8.722   4.752  17.485  0.00  0.00    +0.000 HD
ENDBRANCH   2  14
BRANCH   5  16
ATOM     16  C   UNL     1       3.670   6.129  18.148  0.00  0.00    +0.000 C 
BRANCH  16  17
ATOM     17  C   UNL     1       2.751   4.983  18.502  0.00  0.00    +0.000 A 
ATOM     18  C   UNL     1       2.588   3.905  17.619  0.00  0.00    +0.000 A 
ATOM     19  C   UNL     1       1.832   2.788  17.988  0.00  0.00    +0.000 A 
ATOM     20  C   UNL     1       1.224   2.735  19.241  0.00  0.00    +0.000 A 
ATOM     21  C   UNL     1       1.365   3.803  20.123  0.00  0.00    +0.000 A 
ATOM     22  C   UNL     1       2.123   4.918  19.756  0.00  0.00    +0.000 A 
ENDBRANCH  16  17
ENDBRANCH   5  16
TORSDOF 6
ENDMDL
MODEL 2
REMARK VINA RESULT:      -7.7      1.907      6.564
REMARK  Name = 
REMARK  9 active torsions:
REMARK  status: ('A' for Active; 'I' for Inactive)
REMARK    1  A    between atoms: C_1  and  C_2
REMARK    2  A    between atoms: C_2  and  C_3
REMARK    3  A    between atoms: C_2  and  C_4
REMARK    4  A    between atoms: C_2  and  O_5
REMARK    5  A    between atoms: O_5  and  C_6
REMARK    6  A    between atoms: C_6  and  C_8
REMARK    7  A    between atoms: C_9  and  O_10
REMARK    8  A    between atoms: N_13  and  C_14
REMARK    9  A    between atoms: C_14  and  C_15
REMARK                            x       y       z     vdW  Elec       q    Type
REMARK                         _______ _______ _______ _____ _____    ______ ____
ROOT
ATOM      1  C   UNL     1       4.930   3.834  18.382  0.00  0.00    +0.000 C 
ATOM      2  C   UNL     1       5.897   4.693  18.739  0.00  0.00    +0.000 C 
ATOM      3  C   UNL     1       6.212   5.511  17.552  0.00  0.00    +0.000 C 
ATOM      4  O   UNL     1       6.978   6.459  17.531  0.00  0.00    +0.000 OA
ATOM      5  N   UNL     1       5.434   5.021  16.520  0.00  0.00    +0.000 N 
ATOM      6  C   UNL     1       4.542   3.963  16.954  0.00  0.00    +0.000 C 
ENDROOT
BRANCH   1   7
ATOM      7  C   UNL     1       4.352   2.967  19.399  0.00  0.00    +0.000 C 
ATOM      8  O   UNL     1       5.072   2.453  20.246  0.00  0.00    +0.000 OA
BRANCH   7   9
ATOM      9  O   UNL     1       3.000   2.821  19.325  0.00  0.00    +0.000 OA
BRANCH   9  11
ATOM     10  C   UNL     1       2.590   4.974  20.468  0.00  0.00    +0.000 C 
ATOM     11  C   UNL     1       2.199   3.491  20.348  0.00  0.00    +0.000 C 
ATOM     12  C   UNL     1       2.280   2.761  21.702  0.00  0.00    +0.000 C 
ATOM     13  C   UNL     1       0.732   3.439  19.885  0.00  0.00    +0.000 C 
ENDBRANCH   9  11
ENDBRANCH   7   9
ENDBRANCH   1   7
BRANCH   2  14
ATOM     14  O   UNL     1       6.474   4.878  19.964  0.00  0.00    +0.000 OA
ATOM     15  H   UNL     1       6.734   3.999  20.311  0.00  0.00    +0.000 HD
ENDBRANCH   2  14
BRANCH   5  16
ATOM     16  C   UNL     1       5.347   5.671  15.228  0.00  0.00    +0.000 C 
BRANCH  16  17
ATOM     17  C   UNL     1       5.958   4.890  14.086  0.00  0.00    +0.000 A 
ATOM     18  C   UNL     1       5.225   3.879  13.446  0.00  0.00    +0.000 A 
ATOM     19  C   UNL     1       5.737   3.233  12.318  0.00  0.00    +0.000 A 
ATOM     20  C   UNL     1       6.990   3.582  11.816  0.00  0.00    +0.000 A 
ATOM     21  C   UNL     1       7.735   4.574  12.449  0.00  0.00    +0.000 A 
ATOM     22  C   UNL     1       7.222   5.223  13.575  0.00  0.00    +0.000 A 
ENDBRANCH  16  17
ENDBRANCH   5  16
TORSDOF 6
ENDMDL
MODEL 3
REMARK VINA RESULT:      -7.7      1.817      6.503
REMARK  Name = 
REMARK  9 active torsions:
REMARK  status: ('A' for Active; 'I' for Inactive)
REMARK    1  A    between atoms: C_1  and  C_2
REMARK    2  A    between atoms: C_2  and  C_3
REMARK    3  A    between atoms: C_2  and  C_4
REMARK    4  A    between atoms: C_2  and  O_5
REMARK    5  A    between atoms: O_5  and  C_6
REMARK    6  A    between atoms: C_6  and  C_8
REMARK    7  A    between atoms: C_9  and  O_10
REMARK    8  A    between atoms: N_13  and  C_14
REMARK    9  A    between atoms: C_14  and  C_15
REMARK                            x       y       z     vdW  Elec       q    Type
REMARK                         _______ _______ _______ _____ _____    ______ ____
ROOT
ATOM      1  C   UNL     1       5.027   4.155  18.559  0.00  0.00    +0.000 C 
ATOM      2  C   UNL     1       6.155   4.855  18.754  0.00  0.00    +0.000 C 
ATOM      3  C   UNL     1       6.455   5.557  17.492  0.00  0.00    +0.000 C 
ATOM      4  O   UNL     1       7.355   6.363  17.329  0.00  0.00    +0.000 OA
ATOM      5  N   UNL     1       5.492   5.160  16.583  0.00  0.00    +0.000 N 
ATOM      6  C   UNL     1       4.500   4.285  17.176  0.00  0.00    +0.000 C 
ENDROOT
BRANCH   1   7
ATOM      7  C   UNL     1       4.441   3.440  19.684  0.00  0.00    +0.000 C 
ATOM      8  O   UNL     1       4.963   2.411  20.093  0.00  0.00    +0.000 OA
BRANCH   7   9
ATOM      9  O   UNL     1       3.331   4.023  20.216  0.00  0.00    +0.000 OA
BRANCH   9  11
ATOM     10  C   UNL     1       2.140   2.125  19.171  0.00  0.00    +0.000 C 
ATOM     11  C   UNL     1       2.108   3.223  20.248  0.00  0.00    +0.000 C 
ATOM     12  C   UNL     1       0.849   4.104  20.136  0.00  0.00    +0.000 C 
ATOM     13  C   UNL     1       2.057   2.522  21.617  0.00  0.00    +0.000 C 
ENDBRANCH   9  11
ENDBRANCH   7   9
ENDBRANCH   1   7
BRANCH   2  14
ATOM     14  O   UNL     1       6.894   4.994  19.896  0.00  0.00    +0.000 OA
ATOM     15  H   UNL     1       7.509   5.745  19.767  0.00  0.00    +0.000 HD
ENDBRANCH   2  14
BRANCH   5  16
ATOM     16  C   UNL     1       5.360   5.759  15.270  0.00  0.00    +0.000 C 
BRANCH  16  17
ATOM     17  C   UNL     1       5.963   4.951  14.144  0.00  0.00    +0.000 A 
ATOM     18  C   UNL     1       5.223   3.930  13.529  0.00  0.00    +0.000 A 
ATOM     19  C   UNL     1       5.729   3.257  12.412  0.00  0.00    +0.000 A 
ATOM     20  C   UNL     1       6.981   3.590  11.899  0.00  0.00    +0.000 A 
ATOM     21  C   UNL     1       7.732   4.592  12.507  0.00  0.00    +0.000 A 
ATOM     22  C   UNL     1       7.226   5.268  13.620  0.00  0.00    +0.000 A 
ENDBRANCH  16  17
ENDBRANCH   5  16
TORSDOF 6
ENDMDL
MODEL 4
REMARK VINA RESULT:      -7.7      0.221      1.418
REMARK  Name = 
REMARK  9 active torsions:
REMARK  status: ('A' for Active; 'I' for Inactive)
REMARK    1  A    between atoms: C_1  and  C_2
REMARK    2  A    between atoms: C_2  and  C_3
REMARK    3  A    between atoms: C_2  and  C_4
REMARK    4  A    between atoms: C_2  and  O_5
REMARK    5  A    between atoms: O_5  and  C_6
REMARK    6  A    between atoms: C_6  and  C_8
REMARK    7  A    between atoms: C_9  and  O_10
REMARK    8  A    between atoms: N_13  and  C_14
REMARK    9  A    between atoms: C_14  and  C_15
REMARK                            x       y       z     vdW  Elec       q    Type
REMARK                         _______ _______ _______ _____ _____    ______ ____
ROOT
ATOM      1  C   UNL     1       6.357   5.115  15.766  0.00  0.00    +0.000 C 
ATOM      2  C   UNL     1       6.895   4.733  16.935  0.00  0.00    +0.000 C 
ATOM      3  C   UNL     1       5.960   5.144  17.999  0.00  0.00    +0.000 C 
ATOM      4  O   UNL     1       6.075   4.877  19.183  0.00  0.00    +0.000 OA
ATOM      5  N   UNL     1       4.930   5.825  17.377  0.00  0.00    +0.000 N 
ATOM      6  C   UNL     1       5.067   5.833  15.933  0.00  0.00    +0.000 C 
ENDROOT
BRANCH   1   7
ATOM      7  C   UNL     1       7.029   4.742  14.529  0.00  0.00    +0.000 C 
ATOM      8  O   UNL     1       7.911   5.457  14.073  0.00  0.00    +0.000 OA
BRANCH   7   9
ATOM      9  O   UNL     1       6.610   3.566  13.984  0.00  0.00    +0.000 OA
BRANCH   9  11
ATOM     10  C   UNL     1       4.820   3.956  12.325  0.00  0.00    +0.000 C 
ATOM     11  C   UNL     1       6.290   3.569  12.558  0.00  0.00    +0.000 C 
ATOM     12  C   UNL     1       6.646   2.226  11.893  0.00  0.00    +0.000 C 
ATOM     13  C   UNL     1       7.161   4.653  11.897  0.00  0.00    +0.000 C 
ENDBRANCH   9  11
ENDBRANCH   7   9
ENDBRANCH   1   7
BRANCH   2  14
ATOM     14  O   UNL     1       8.046   4.031  17.163  0.00  0.00    +0.000 OA
ATOM     15  H   UNL     1       7.801   3.177  17.575  0.00  0.00    +0.000 HD
ENDBRANCH   2  14
BRANCH   5  16
ATOM     16  C   UNL     1       3.735   6.248  18.077  0.00  0.00    +0.000 C 
BRANCH  16  17
ATOM     17  C   UNL     1       2.861   5.120  18.574  0.00  0.00    +0.000 A 
ATOM     18  C   UNL     1       2.383   5.120  19.893  0.00  0.00    +0.000 A 
ATOM     19  C   UNL     1       1.481   4.143  20.325  0.00  0.00    +0.000 A 
ATOM     20  C   UNL     1       1.050   3.148  19.449  0.00  0.00    +0.000 A 
ATOM     21  C   UNL     1       1.526   3.127  18.141  0.00  0.00    +0.000 A 
ATOM     22  C   UNL     1       2.424   4.106  17.707  0.00  0.00    +0.000 A 
ENDBRANCH  16  17
ENDBRANCH   5  16
TORSDOF 6
ENDMDL
MODEL 5
REMARK VINA RESULT:      -7.7      1.320      2.196
REMARK  Name = 
REMARK  9 active torsions:
REMARK  status: ('A' for Active; 'I' for Inactive)
REMARK    1  A    between atoms: C_1  and  C_2
REMARK    2  A    between atoms: C_2  and  C_3
REMARK    3  A    between atoms: C_2  and  C_4
REMARK    4  A    between atoms: C_2  and  O_5
REMARK    5  A    between atoms: O_5  and  C_6
REMARK    6  A    between atoms: C_6  and  C_8
REMARK    7  A    between atoms: C_9  and  O_10
REMARK    8  A    between atoms: N_13  and  C_14
REMARK    9  A    between atoms: C_14  and  C_15
REMARK                            x       y       z     vdW  Elec       q    Type
REMARK                         _______ _______ _______ _____ _____    ______ ____
ROOT
ATOM      1  C   UNL     1       5.990   4.863  15.737  0.00  0.00    +0.000 C 
ATOM      2  C   UNL     1       5.261   5.987  15.799  0.00  0.00    +0.000 C 
ATOM      3  C   UNL     1       4.654   6.038  17.143  0.00  0.00    +0.000 C 
ATOM      4  O   UNL     1       4.003   6.967  17.589  0.00  0.00    +0.000 OA
ATOM      5  N   UNL     1       5.019   4.869  17.784  0.00  0.00    +0.000 N 
ATOM      6  C   UNL     1       5.912   4.055  16.981  0.00  0.00    +0.000 C 
ENDROOT
BRANCH   1   7
ATOM      7  C   UNL     1       6.789   4.609  14.545  0.00  0.00    +0.000 C 
ATOM      8  O   UNL     1       7.672   5.393  14.223  0.00  0.00    +0.000 OA
BRANCH   7   9
ATOM      9  O   UNL     1       6.480   3.458  13.886  0.00  0.00    +0.000 OA
BRANCH   9  11
ATOM     10  C   UNL     1       7.182   4.603  11.811  0.00  0.00    +0.000 C 
ATOM     11  C   UNL     1       6.252   3.556  12.445  0.00  0.00    +0.000 C 
ATOM     12  C   UNL     1       4.770   3.827  12.122  0.00  0.00    +0.000 C 
ATOM     13  C   UNL     1       6.612   2.190  11.833  0.00  0.00    +0.000 C 
ENDBRANCH   9  11
ENDBRANCH   7   9
ENDBRANCH   1   7
BRANCH   2  14
ATOM     14  O   UNL     1       5.123   6.975  14.865  0.00  0.00    +0.000 OA
ATOM     15  H   UNL     1       4.331   6.771  14.326  0.00  0.00    +0.000 HD
ENDBRANCH   2  14
BRANCH   5  16
ATOM     16  C   UNL     1       4.743   4.624  19.185  0.00  0.00    +0.000 C 
BRANCH  16  17
ATOM     17  C   UNL     1       3.383   4.026  19.465  0.00  0.00    +0.000 A 
ATOM     18  C   UNL     1       2.486   4.675  20.327  0.00  0.00    +0.000 A 
ATOM     19  C   UNL     1       1.186   4.190  20.500  0.00  0.00    +0.000 A 
ATOM     20  C   UNL     1       0.767   3.048  19.821  0.00  0.00    +0.000 A 
ATOM     21  C   UNL     1       1.650   2.385  18.973  0.00  0.00    +0.000 A 
ATOM     22  C   UNL     1       2.948   2.871  18.796  0.00  0.00    +0.000 A 
ENDBRANCH  16  17
ENDBRANCH   5  16
TORSDOF 6
ENDMDL
MODEL 6
REMARK VINA RESULT:      -7.6      1.406      1.962
REMARK  Name = 
REMARK  9 active torsions:
REMARK  status: ('A' for Active; 'I' for Inactive)
REMARK    1  A    between atoms: C_1  and  C_2
REMARK    2  A    between atoms: C_2  and  C_3
REMARK    3  A    between atoms: C_2  and  C_4
REMARK    4  A    between atoms: C_2  and  O_5
REMARK    5  A    between atoms: O_5  and  C_6
REMARK    6  A    between atoms: C_6  and  C_8
REMARK    7  A    between atoms: C_9  and  O_10
REMARK    8  A    between atoms: N_13  and  C_14
REMARK    9  A    between atoms: C_14  and  C_15
REMARK                            x       y       z     vdW  Elec       q    Type
REMARK                         _______ _______ _______ _____ _____    ______ ____
ROOT
ATOM      1  C   UNL     1       5.875   4.761  15.575  0.00  0.00    +0.000 C 
ATOM      2  C   UNL     1       5.257   5.936  15.766  0.00  0.00    +0.000 C 
ATOM      3  C   UNL     1       4.710   5.922  17.137  0.00  0.00    +0.000 C 
ATOM      4  O   UNL     1       4.166   6.862  17.689  0.00  0.00    +0.000 OA
ATOM      5  N   UNL     1       4.990   4.673  17.659  0.00  0.00    +0.000 N 
ATOM      6  C   UNL     1       5.771   3.857  16.749  0.00  0.00    +0.000 C 
ENDROOT
BRANCH   1   7
ATOM      7  C   UNL     1       6.598   4.542  14.330  0.00  0.00    +0.000 C 
ATOM      8  O   UNL     1       7.379   5.392  13.919  0.00  0.00    +0.000 OA
BRANCH   7   9
ATOM      9  O   UNL     1       6.345   3.349  13.724  0.00  0.00    +0.000 OA
BRANCH   9  11
ATOM     10  C   UNL     1       7.127   4.257  11.562  0.00  0.00    +0.000 C 
ATOM     11  C   UNL     1       6.097   3.372  12.283  0.00  0.00    +0.000 C 
ATOM     12  C   UNL     1       4.649   3.791  11.963  0.00  0.00    +0.000 C 
ATOM     13  C   UNL     1       6.284   1.935  11.766  0.00  0.00    +0.000 C 
ENDBRANCH   9  11
ENDBRANCH   7   9
ENDBRANCH   1   7
BRANCH   2  14
ATOM     14  O   UNL     1       5.173   7.011  14.925  0.00  0.00    +0.000 OA
ATOM     15  H   UNL     1       4.917   7.791  15.459  0.00  0.00    +0.000 HD
ENDBRANCH   2  14
BRANCH   5  16
ATOM     16  C   UNL     1       4.748   4.332  19.046  0.00  0.00    +0.000 C 
BRANCH  16  17
ATOM     17  C   UNL     1       3.319   3.954  19.363  0.00  0.00    +0.000 A 
ATOM     18  C   UNL     1       2.788   2.739  18.905  0.00  0.00    +0.000 A 
ATOM     19  C   UNL     1       1.508   2.330  19.290  0.00  0.00    +0.000 A 
ATOM     20  C   UNL     1       0.739   3.130  20.132  0.00  0.00    +0.000 A 
ATOM     21  C   UNL     1       1.247   4.346  20.584  0.00  0.00    +0.000 A 
ATOM     22  C   UNL     1       2.528   4.753  20.203  0.00  0.00    +0.000 A 
ENDBRANCH  16  17
ENDBRANCH   5  16
TORSDOF 6
ENDMDL
MODEL 7
REMARK VINA RESULT:      -7.6      1.623      6.199
REMARK  Name = 
REMARK  9 active torsions:
REMARK  status: ('A' for Active; 'I' for Inactive)
REMARK    1  A    between atoms: C_1  and  C_2
REMARK    2  A    between atoms: C_2  and  C_3
REMARK    3  A    between atoms: C_2  and  C_4
REMARK    4  A    between atoms: C_2  and  O_5
REMARK    5  A    between atoms: O_5  and  C_6
REMARK    6  A    between atoms: C_6  and  C_8
REMARK    7  A    between atoms: C_9  and  O_10
REMARK    8  A    between atoms: N_13  and  C_14
REMARK    9  A    between atoms: C_14  and  C_15
REMARK                            x       y       z     vdW  Elec       q    Type
REMARK                         _______ _______ _______ _____ _____    ______ ____
ROOT
ATOM      1  C   UNL     1       4.702   5.454  18.184  0.00  0.00    +0.000 C 
ATOM      2  C   UNL     1       5.709   4.777  18.756  0.00  0.00    +0.000 C 
ATOM      3  C   UNL     1       6.819   4.746  17.784  0.00  0.00    +0.000 C 
ATOM      4  O   UNL     1       7.932   4.297  17.997  0.00  0.00    +0.000 OA
ATOM      5  N   UNL     1       6.356   5.367  16.639  0.00  0.00    +0.000 N 
ATOM      6  C   UNL     1       5.015   5.894  16.800  0.00  0.00    +0.000 C 
ENDROOT
BRANCH   1   7
ATOM      7  C   UNL     1       3.505   5.726  18.968  0.00  0.00    +0.000 C 
ATOM      8  O   UNL     1       2.921   6.795  18.843  0.00  0.00    +0.000 OA
BRANCH   7   9
ATOM      9  O   UNL     1       3.115   4.710  19.787  0.00  0.00    +0.000 OA
BRANCH   9  11
ATOM     10  C   UNL     1       2.625   2.338  19.294  0.00  0.00    +0.000 C 
ATOM     11  C   UNL     1       2.108   3.786  19.270  0.00  0.00    +0.000 C 
ATOM     12  C   UNL     1       1.621   4.202  17.869  0.00  0.00    +0.000 C 
ATOM     13  C   UNL     1       0.896   3.856  20.216  0.00  0.00    +0.000 C 
ENDBRANCH   9  11
ENDBRANCH   7   9
ENDBRANCH   1   7
BRANCH   2  14
ATOM     14  O   UNL     1       5.788   4.254  20.017  0.00  0.00    +0.000 OA
ATOM     15  H   UNL     1       6.171   4.939  20.603  0.00  0.00    +0.000 HD
ENDBRANCH   2  14
BRANCH   5  16
ATOM     16  C   UNL     1       7.213   5.671  15.511  0.00  0.00    +0.000 C 
BRANCH  16  17
ATOM     17  C   UNL     1       6.856   4.947  14.233  0.00  0.00    +0.000 A 
ATOM     18  C   UNL     1       7.638   5.114  13.080  0.00  0.00    +0.000 A 
ATOM     19  C   UNL     1       7.384   4.361  11.931  0.00  0.00    +0.000 A 
ATOM     20  C   UNL     1       6.342   3.435  11.914  0.00  0.00    +0.000 A 
ATOM     21  C   UNL     1       5.548   3.268  13.045  0.00  0.00    +0.000 A 
ATOM     22  C   UNL     1       5.805   4.018  14.197  0.00  0.00    +0.000 A 
ENDBRANCH  16  17
ENDBRANCH   5  16
TORSDOF 6
ENDMDL
MODEL 8
REMARK VINA RESULT:      -7.6      1.162      2.362
REMARK  Name = 
REMARK  9 active torsions:
REMARK  status: ('A' for Active; 'I' for Inactive)
REMARK    1  A    between atoms: C_1  and  C_2
REMARK    2  A    between atoms: C_2  and  C_3
REMARK    3  A    between atoms: C_2  and  C_4
REMARK    4  A    between atoms: C_2  and  O_5
REMARK    5  A    between atoms: O_5  and  C_6
REMARK    6  A    between atoms: C_6  and  C_8
REMARK    7  A    between atoms: C_9  and  O_10
REMARK    8  A    between atoms: N_13  and  C_14
REMARK    9  A    between atoms: C_14  and  C_15
REMARK                            x       y       z     vdW  Elec       q    Type
REMARK                         _______ _______ _______ _____ _____    ______ ____
ROOT
ATOM      1  C   UNL     1       6.009   4.467  15.826  0.00  0.00    +0.000 C 
ATOM      2  C   UNL     1       6.691   4.455  16.982  0.00  0.00    +0.000 C 
ATOM      3  C   UNL     1       5.698   4.411  18.073  0.00  0.00    +0.000 C 
ATOM      4  O   UNL     1       5.955   4.295  19.258  0.00  0.00    +0.000 OA
ATOM      5  N   UNL     1       4.453   4.472  17.473  0.00  0.00    +0.000 N 
ATOM      6  C   UNL     1       4.537   4.473  16.025  0.00  0.00    +0.000 C 
ENDROOT
BRANCH   1   7
ATOM      7  C   UNL     1       6.750   4.406  14.574  0.00  0.00    +0.000 C 
ATOM      8  O   UNL     1       7.542   5.295  14.289  0.00  0.00    +0.000 OA
BRANCH   7   9
ATOM      9  O   UNL     1       6.500   3.304  13.815  0.00  0.00    +0.000 OA
BRANCH   9  11
ATOM     10  C   UNL     1       7.179   4.665  11.866  0.00  0.00    +0.000 C 
ATOM     11  C   UNL     1       6.301   3.512  12.382  0.00  0.00    +0.000 C 
ATOM     12  C   UNL     1       4.813   3.721  12.039  0.00  0.00    +0.000 C 
ATOM     13  C   UNL     1       6.760   2.229  11.666  0.00  0.00    +0.000 C 
ENDBRANCH   9  11
ENDBRANCH   7   9
ENDBRANCH   1   7
BRANCH   2  14
ATOM     14  O   UNL     1       8.043   4.415  17.183  0.00  0.00    +0.000 OA
ATOM     15  H   UNL     1       8.457   5.062  16.576  0.00  0.00    +0.000 HD
ENDBRANCH   2  14
BRANCH   5  16
ATOM     16  C   UNL     1       3.219   4.295  18.211  0.00  0.00    +0.000 C 
BRANCH  16  17
ATOM     17  C   UNL     1       2.645   5.565  18.795  0.00  0.00    +0.000 A 
ATOM     18  C   UNL     1       2.094   5.568  20.085  0.00  0.00    +0.000 A 
ATOM     19  C   UNL     1       1.668   6.761  20.676  0.00  0.00    +0.000 A 
ATOM     20  C   UNL     1       1.779   7.966  19.985  0.00  0.00    +0.000 A 
ATOM     21  C   UNL     1       2.311   7.978  18.698  0.00  0.00    +0.000 A 
ATOM     22  C   UNL     1       2.741   6.786  18.108  0.00  0.00    +0.000 A 
ENDBRANCH  16  17
ENDBRANCH   5  16
TORSDOF 6
ENDMDL
MODEL 9
REMARK VINA RESULT:      -7.6      1.322      1.690
REMARK  Name = 
REMARK  9 active torsions:
REMARK  status: ('A' for Active; 'I' for Inactive)
REMARK    1  A    between atoms: C_1  and  C_2
REMARK    2  A    between atoms: C_2  and  C_3
REMARK    3  A    between atoms: C_2  and  C_4
REMARK    4  A    between atoms: C_2  and  O_5
REMARK    5  A    between atoms: O_5  and  C_6
REMARK    6  A    between atoms: C_6  and  C_8
REMARK    7  A    between atoms: C_9  and  O_10
REMARK    8  A    between atoms: N_13  and  C_14
REMARK    9  A    between atoms: C_14  and  C_15
REMARK                            x       y       z     vdW  Elec       q    Type
REMARK                         _______ _______ _______ _____ _____    ______ ____
ROOT
ATOM      1  C   UNL     1       5.862   4.905  15.668  0.00  0.00    +0.000 C 
ATOM      2  C   UNL     1       5.203   6.072  15.739  0.00  0.00    +0.000 C 
ATOM      3  C   UNL     1       4.560   6.128  17.066  0.00  0.00    +0.000 C 
ATOM      4  O   UNL     1       3.955   7.085  17.518  0.00  0.00    +0.000 OA
ATOM      5  N   UNL     1       4.832   4.923  17.687  0.00  0.00    +0.000 N 
ATOM      6  C   UNL     1       5.696   4.074  16.888  0.00  0.00    +0.000 C 
ENDROOT
BRANCH   1   7
ATOM      7  C   UNL     1       6.677   4.630  14.493  0.00  0.00    +0.000 C 
ATOM      8  O   UNL     1       7.542   5.426  14.150  0.00  0.00    +0.000 OA
BRANCH   7   9
ATOM      9  O   UNL     1       6.406   3.449  13.873  0.00  0.00    +0.000 OA
BRANCH   9  11
ATOM     10  C   UNL     1       6.449   2.073  11.820  0.00  0.00    +0.000 C 
ATOM     11  C   UNL     1       6.262   3.477  12.419  0.00  0.00    +0.000 C 
ATOM     12  C   UNL     1       7.205   4.510  11.774  0.00  0.00    +0.000 C 
ATOM     13  C   UNL     1       4.819   3.919  12.112  0.00  0.00    +0.000 C 
ENDBRANCH   9  11
ENDBRANCH   7   9
ENDBRANCH   1   7
BRANCH   2  14
ATOM     14  O   UNL     1       5.154   7.089  14.828  0.00  0.00    +0.000 OA
ATOM     15  H   UNL     1       6.069   7.404  14.678  0.00  0.00    +0.000 HD
ENDBRANCH   2  14
BRANCH   5  16
ATOM     16  C   UNL     1       4.500   4.662  19.072  0.00  0.00    +0.000 C 
BRANCH  16  17
ATOM     17  C   UNL     1       3.097   4.147  19.299  0.00  0.00    +0.000 A 
ATOM     18  C   UNL     1       2.455   3.381  18.314  0.00  0.00    +0.000 A 
ATOM     19  C   UNL     1       1.206   2.804  18.562  0.00  0.00    +0.000 A 
ATOM     20  C   UNL     1       0.578   2.990  19.792  0.00  0.00    +0.000 A 
ATOM     21  C   UNL     1       1.196   3.759  20.774  0.00  0.00    +0.000 A 
ATOM     22  C   UNL     1       2.447   4.332  20.529  0.00  0.00    +0.000 A 
ENDBRANCH  16  17
ENDBRANCH   5  16
TORSDOF 6
ENDMDL
