MODEL 1
REMARK VINA RESULT:      -7.6      0.000      0.000
REMARK  Name = 
REMARK  9 active torsions:
REMARK  status: ('A' for Active; 'I' for Inactive)
REMARK    1  A    between atoms: C_1  and  C_2
REMARK    2  A    between atoms: C_2  and  O_3
REMARK    3  A    between atoms: O_3  and  C_4
REMARK    4  A    between atoms: N_6  and  C_7
REMARK    5  A    between atoms: N_6  and  S_8
REMARK    6  A    between atoms: S_8  and  N_9
REMARK    7  A    between atoms: N_9  and  C_23
REMARK    8  A    between atoms: C_13  and  C_15
REMARK    9  A    between atoms: C_26  and  C_27
REMARK                            x       y       z     vdW  Elec       q    Type
REMARK                         _______ _______ _______ _____ _____    ______ ____
ROOT
ATOM      1  N   UNL     1       4.360   4.823  17.022  0.00  0.00    +0.000 N 
ATOM      2  C   UNL     1       4.118   6.214  16.781  0.00  0.00    +0.000 C 
ATOM      3  O   UNL     1       4.646   6.837  15.862  0.00  0.00    +0.000 OA
ATOM      4  N   UNL     1       3.153   6.780  17.633  0.00  0.00    +0.000 N 
ATOM      5  C   UNL     1       2.897   8.124  17.879  0.00  0.00    +0.000 C 
ATOM      6  O   UNL     1       3.366   9.053  17.240  0.00  0.00    +0.000 OA
ATOM      7  H   UNL     1       2.587   6.126  18.148  0.00  0.00    +0.000 HD
ENDROOT
BRANCH   5   8
ATOM      8  C   UNL     1       1.970   8.414  19.015  0.00  0.00    +0.000 A 
ATOM      9  C   UNL     1       1.968   7.596  20.150  0.00  0.00    +0.000 A 
ATOM     10  F   UNL     1       2.772   6.529  20.240  0.00  0.00    +0.000 F 
ATOM     11  C   UNL     1       1.093   7.832  21.217  0.00  0.00    +0.000 A 
ATOM     12  C   UNL     1       0.201   8.903  21.174  0.00  0.00    +0.000 A 
ATOM     13  C   UNL     1       0.190   9.730  20.051  0.00  0.00    +0.000 A 
ATOM     14  C   UNL     1       1.064   9.480  18.991  0.00  0.00    +0.000 A 
ATOM     15  F   UNL     1       1.003  10.293  17.923  0.00  0.00    +0.000 F 
ENDBRANCH   5   8
BRANCH   1  16
ATOM     16  C   UNL     1       3.724   4.123  18.088  0.00  0.00    +0.000 A 
ATOM     17  C   UNL     1       2.331   4.001  18.151  0.00  0.00    +0.000 A 
ATOM     18  C   UNL     1       1.719   3.517  19.314  0.00  0.00    +0.000 A 
ATOM     19  C   UNL     1       2.488   3.130  20.421  0.00  0.00    +0.000 A 
ATOM     20  C   UNL     1       3.886   3.212  20.336  0.00  0.00    +0.000 A 
ATOM     21  C   UNL     1       4.497   3.697  19.179  0.00  0.00    +0.000 A 
BRANCH  19  22
ATOM     22  C   UNL     1       1.845   2.641  21.698  0.00  0.00    +0.000 C 
ATOM     23  F   UNL     1       2.215   1.379  22.050  0.00  0.00    +0.000 F 
ATOM     24  F   UNL     1       2.141   3.433  22.764  0.00  0.00    +0.000 F 
ATOM     25  F   UNL     1       0.485   2.621  21.612  0.00  0.00    +0.000 F 
ENDBRANCH  19  22
ENDBRANCH   1  16
BRANCH   1  26
ATOM     26  S   UNL     1       5.070   3.889  15.745  0.00  0.00    +0.000 S 
BRANCH  26  29
ATOM     27  C   UNL     1       7.139   4.930  14.277  0.00  0.00    +0.000 C 
ATOM     28  O   UNL     1       8.198   5.537  14.133  0.00  0.00    +0.000 OA
ATOM     29  N   UNL     1       6.696   4.426  15.503  0.00  0.00    +0.000 N 
ATOM     30  C   UNL     1       7.418   4.837  16.694  0.00  0.00    +0.000 C 
BRANCH  27  31
ATOM     31  O   UNL     1       6.293   4.674  13.244  0.00  0.00    +0.000 OA
BRANCH  31  33
ATOM     32  C   UNL     1       5.533   2.830  11.881  0.00  0.00    +0.000 C 
ATOM     33  C   UNL     1       6.716   3.682  12.303  0.00  0.00    +0.000 C 
ENDBRANCH  31  33
ENDBRANCH  27  31
ENDBRANCH  26  29
ENDBRANCH   1  26
TORSDOF 7
ENDMDL
MODEL 2
REMARK VINA RESULT:      -7.6      0.062      1.462
REMARK  Name = 
REMARK  9 active torsions:
REMARK  status: ('A' for Active; 'I' for Inactive)
REMARK    1  A    between atoms: C_1  and  C_2
REMARK    2  A    between atoms: C_2  and  O_3
REMARK    3  A    between atoms: O_3  and  C_4
REMARK    4  A    between atoms: N_6  and  C_7
REMARK    5  A    between atoms: N_6  and  S_8
REMARK    6  A    between atoms: S_8  and  N_9
REMARK    7  A    between atoms: N_9  and  C_23
REMARK    8  A    between atoms: C_13  and  C_15
REMARK    9  A    between atoms: C_26  and  C_27
REMARK                            x       y       z     vdW  Elec       q    Type
REMARK                         _______ _______ _______ _____ _____    ______ ____
ROOT
ATOM      1  N   UNL     1       4.365   4.859  17.001  0.00  0.00    +0.000 N 
ATOM      2  C   UNL     1       4.107   6.248  16.763  0.00  0.00    +0.000 C 
ATOM      3  O   UNL     1       4.623   6.877  15.841  0.00  0.00    +0.000 OA
ATOM      4  N   UNL     1       3.142   6.803  17.622  0.00  0.00    +0.000 N 
ATOM      5  C   UNL     1       2.874   8.144  17.872  0.00  0.00    +0.000 C 
ATOM      6  O   UNL     1       3.330   9.079  17.230  0.00  0.00    +0.000 OA
ATOM      7  H   UNL     1       2.586   6.143  18.140  0.00  0.00    +0.000 HD
ENDROOT
BRANCH   5   8
ATOM      8  C   UNL     1       1.952   8.424  19.014  0.00  0.00    +0.000 A 
ATOM      9  C   UNL     1       1.095   9.528  18.974  0.00  0.00    +0.000 A 
ATOM     10  F   UNL     1       1.093  10.369  17.932  0.00  0.00    +0.000 F 
ATOM     11  C   UNL     1       0.238   9.825  20.040  0.00  0.00    +0.000 A 
ATOM     12  C   UNL     1       0.216   9.014  21.174  0.00  0.00    +0.000 A 
ATOM     13  C   UNL     1       1.062   7.907  21.231  0.00  0.00    +0.000 A 
ATOM     14  C   UNL     1       1.917   7.625  20.163  0.00  0.00    +0.000 A 
ATOM     15  F   UNL     1       2.726   6.559  20.272  0.00  0.00    +0.000 F 
ENDBRANCH   5   8
BRANCH   1  16
ATOM     16  C   UNL     1       3.742   4.151  18.070  0.00  0.00    +0.000 A 
ATOM     17  C   UNL     1       2.354   3.975  18.118  0.00  0.00    +0.000 A 
ATOM     18  C   UNL     1       1.746   3.487  19.280  0.00  0.00    +0.000 A 
ATOM     19  C   UNL     1       2.515   3.147  20.403  0.00  0.00    +0.000 A 
ATOM     20  C   UNL     1       3.910   3.283  20.335  0.00  0.00    +0.000 A 
ATOM     21  C   UNL     1       4.517   3.773  19.178  0.00  0.00    +0.000 A 
BRANCH  19  22
ATOM     22  C   UNL     1       1.875   2.654  21.680  0.00  0.00    +0.000 C 
ATOM     23  F   UNL     1       2.271   1.403  22.044  0.00  0.00    +0.000 F 
ATOM     24  F   UNL     1       2.146   3.461  22.742  0.00  0.00    +0.000 F 
ATOM     25  F   UNL     1       0.516   2.604  21.585  0.00  0.00    +0.000 F 
ENDBRANCH  19  22
ENDBRANCH   1  16
BRANCH   1  26
ATOM     26  S   UNL     1       5.075   3.934  15.718  0.00  0.00    +0.000 S 
BRANCH  26  29
ATOM     27  C   UNL     1       7.152   4.970  14.258  0.00  0.00    +0.000 C 
ATOM     28  O   UNL     1       8.212   5.577  14.119  0.00  0.00    +0.000 OA
ATOM     29  N   UNL     1       6.703   4.469  15.484  0.00  0.00    +0.000 N 
ATOM     30  C   UNL     1       7.418   4.882  16.677  0.00  0.00    +0.000 C 
BRANCH  27  31
ATOM     31  O   UNL     1       6.311   4.712  13.222  0.00  0.00    +0.000 OA
BRANCH  31  33
ATOM     32  C   UNL     1       5.450   2.888  11.892  0.00  0.00    +0.000 C 
ATOM     33  C   UNL     1       6.686   3.643  12.347  0.00  0.00    +0.000 C 
ENDBRANCH  31  33
ENDBRANCH  27  31
ENDBRANCH  26  29
ENDBRANCH   1  26
TORSDOF 7
ENDMDL
MODEL 3
REMARK VINA RESULT:      -7.1      1.650      2.839
REMARK  Name = 
REMARK  9 active torsions:
REMARK  status: ('A' for Active; 'I' for Inactive)
REMARK    1  A    between atoms: C_1  and  C_2
REMARK    2  A    between atoms: C_2  and  O_3
REMARK    3  A    between atoms: O_3  and  C_4
REMARK    4  A    between atoms: N_6  and  C_7
REMARK    5  A    between atoms: N_6  and  S_8
REMARK    6  A    between atoms: S_8  and  N_9
REMARK    7  A    between atoms: N_9  and  C_23
REMARK    8  A    between atoms: C_13  and  C_15
REMARK    9  A    between atoms: C_26  and  C_27
REMARK                            x       y       z     vdW  Elec       q    Type
REMARK                         _______ _______ _______ _____ _____    ______ ____
ROOT
ATOM      1  N   UNL     1       4.190   6.010  16.918  0.00  0.00    +0.000 N 
ATOM      2  C   UNL     1       3.721   7.361  16.836  0.00  0.00    +0.000 C 
ATOM      3  O   UNL     1       4.090   8.147  15.965  0.00  0.00    +0.000 OA
ATOM      4  N   UNL     1       2.732   7.680  17.783  0.00  0.00    +0.000 N 
ATOM      5  C   UNL     1       2.286   8.935  18.180  0.00  0.00    +0.000 C 
ATOM      6  O   UNL     1       2.566   9.985  17.622  0.00  0.00    +0.000 OA
ATOM      7  H   UNL     1       2.307   6.897  18.251  0.00  0.00    +0.000 HD
ENDROOT
BRANCH   5   8
ATOM      8  C   UNL     1       1.394   8.961  19.379  0.00  0.00    +0.000 A 
ATOM      9  C   UNL     1       0.377   9.916  19.481  0.00  0.00    +0.000 A 
ATOM     10  F   UNL     1       0.191  10.837  18.528  0.00  0.00    +0.000 F 
ATOM     11  C   UNL     1      -0.456   9.976  20.604  0.00  0.00    +0.000 A 
ATOM     12  C   UNL     1      -0.293   9.072  21.653  0.00  0.00    +0.000 A 
ATOM     13  C   UNL     1       0.714   8.111  21.568  0.00  0.00    +0.000 A 
ATOM     14  C   UNL     1       1.543   8.065  20.445  0.00  0.00    +0.000 A 
ATOM     15  F   UNL     1       2.511   7.135  20.417  0.00  0.00    +0.000 F 
ENDBRANCH   5   8
BRANCH   1  16
ATOM     16  C   UNL     1       3.734   5.117  17.931  0.00  0.00    +0.000 A 
ATOM     17  C   UNL     1       2.440   4.584  17.905  0.00  0.00    +0.000 A 
ATOM     18  C   UNL     1       1.937   3.902  19.020  0.00  0.00    +0.000 A 
ATOM     19  C   UNL     1       2.726   3.724  20.167  0.00  0.00    +0.000 A 
ATOM     20  C   UNL     1       4.038   4.221  20.171  0.00  0.00    +0.000 A 
ATOM     21  C   UNL     1       4.539   4.904  19.062  0.00  0.00    +0.000 A 
BRANCH  19  22
ATOM     22  C   UNL     1       2.189   3.023  21.393  0.00  0.00    +0.000 C 
ATOM     23  F   UNL     1       2.183   3.799  22.511  0.00  0.00    +0.000 F 
ATOM     24  F   UNL     1       0.909   2.591  21.226  0.00  0.00    +0.000 F 
ATOM     25  F   UNL     1       2.919   1.916  21.711  0.00  0.00    +0.000 F 
ENDBRANCH  19  22
ENDBRANCH   1  16
BRANCH   1  26
ATOM     26  S   UNL     1       4.959   5.331  15.521  0.00  0.00    +0.000 S 
BRANCH  26  29
ATOM     27  C   UNL     1       7.381   4.855  16.715  0.00  0.00    +0.000 C 
ATOM     28  O   UNL     1       8.206   4.160  17.306  0.00  0.00    +0.000 OA
ATOM     29  N   UNL     1       6.273   4.334  16.041  0.00  0.00    +0.000 N 
ATOM     30  C   UNL     1       5.969   2.928  16.240  0.00  0.00    +0.000 C 
BRANCH  27  31
ATOM     31  O   UNL     1       7.474   6.209  16.648  0.00  0.00    +0.000 OA
BRANCH  31  33
ATOM     32  C   UNL     1       7.882   8.361  17.667  0.00  0.00    +0.000 C 
ATOM     33  C   UNL     1       7.504   6.909  17.896  0.00  0.00    +0.000 C 
ENDBRANCH  31  33
ENDBRANCH  27  31
ENDBRANCH  26  29
ENDBRANCH   1  26
TORSDOF 7
ENDMDL
MODEL 4
REMARK VINA RESULT:      -7.1      1.670      2.436
REMARK  Name = 
REMARK  9 active torsions:
REMARK  status: ('A' for Active; 'I' for Inactive)
REMARK    1  A    between atoms: C_1  and  C_2
REMARK    2  A    between atoms: C_2  and  O_3
REMARK    3  A    between atoms: O_3  and  C_4
REMARK    4  A    between atoms: N_6  and  C_7
REMARK    5  A    between atoms: N_6  and  S_8
REMARK    6  A    between atoms: S_8  and  N_9
REMARK    7  A    between atoms: N_9  and  C_23
REMARK    8  A    between atoms: C_13  and  C_15
REMARK    9  A    between atoms: C_26  and  C_27
REMARK                            x       y       z     vdW  Elec       q    Type
REMARK                         _______ _______ _______ _____ _____    ______ ____
ROOT
ATOM      1  N   UNL     1       4.160   6.042  16.925  0.00  0.00    +0.000 N 
ATOM      2  C   UNL     1       3.722   7.404  16.848  0.00  0.00    +0.000 C 
ATOM      3  O   UNL     1       4.129   8.192  15.996  0.00  0.00    +0.000 OA
ATOM      4  N   UNL     1       2.717   7.732  17.775  0.00  0.00    +0.000 N 
ATOM      5  C   UNL     1       2.287   8.992  18.176  0.00  0.00    +0.000 C 
ATOM      6  O   UNL     1       2.604  10.042  17.639  0.00  0.00    +0.000 OA
ATOM      7  H   UNL     1       2.263   6.953  18.222  0.00  0.00    +0.000 HD
ENDROOT
BRANCH   5   8
ATOM      8  C   UNL     1       1.367   9.023  19.353  0.00  0.00    +0.000 A 
ATOM      9  C   UNL     1       1.545   8.126  20.411  0.00  0.00    +0.000 A 
ATOM     10  F   UNL     1       2.522   7.209  20.390  0.00  0.00    +0.000 F 
ATOM     11  C   UNL     1       0.683   8.118  21.514  0.00  0.00    +0.000 A 
ATOM     12  C   UNL     1      -0.379   9.019  21.585  0.00  0.00    +0.000 A 
ATOM     13  C   UNL     1      -0.571   9.923  20.540  0.00  0.00    +0.000 A 
ATOM     14  C   UNL     1       0.293   9.916  19.443  0.00  0.00    +0.000 A 
ATOM     15  F   UNL     1       0.056  10.792  18.452  0.00  0.00    +0.000 F 
ENDBRANCH   5   8
BRANCH   1  16
ATOM     16  C   UNL     1       3.660   5.147  17.915  0.00  0.00    +0.000 A 
ATOM     17  C   UNL     1       2.376   4.597  17.820  0.00  0.00    +0.000 A 
ATOM     18  C   UNL     1       1.821   3.912  18.908  0.00  0.00    +0.000 A 
ATOM     19  C   UNL     1       2.547   3.749  20.098  0.00  0.00    +0.000 A 
ATOM     20  C   UNL     1       3.850   4.263  20.172  0.00  0.00    +0.000 A 
ATOM     21  C   UNL     1       4.403   4.949  19.090  0.00  0.00    +0.000 A 
BRANCH  19  22
ATOM     22  C   UNL     1       1.952   3.046  21.296  0.00  0.00    +0.000 C 
ATOM     23  F   UNL     1       2.223   3.657  22.481  0.00  0.00    +0.000 F 
ATOM     24  F   UNL     1       0.597   2.950  21.221  0.00  0.00    +0.000 F 
ATOM     25  F   UNL     1       2.411   1.768  21.420  0.00  0.00    +0.000 F 
ENDBRANCH  19  22
ENDBRANCH   1  16
BRANCH   1  26
ATOM     26  S   UNL     1       4.948   5.363  15.539  0.00  0.00    +0.000 S 
BRANCH  26  29
ATOM     27  C   UNL     1       7.356   4.851  16.747  0.00  0.00    +0.000 C 
ATOM     28  O   UNL     1       8.164   4.147  17.352  0.00  0.00    +0.000 OA
ATOM     29  N   UNL     1       6.238   4.344  16.078  0.00  0.00    +0.000 N 
ATOM     30  C   UNL     1       5.902   2.949  16.299  0.00  0.00    +0.000 C 
BRANCH  27  31
ATOM     31  O   UNL     1       7.480   6.201  16.659  0.00  0.00    +0.000 OA
BRANCH  31  33
ATOM     32  C   UNL     1       7.850   8.383  17.628  0.00  0.00    +0.000 C 
ATOM     33  C   UNL     1       7.563   6.916  17.896  0.00  0.00    +0.000 C 
ENDBRANCH  31  33
ENDBRANCH  27  31
ENDBRANCH  26  29
ENDBRANCH   1  26
TORSDOF 7
ENDMDL
MODEL 5
REMARK VINA RESULT:      -6.9      8.296     10.100
REMARK  Name = 
REMARK  9 active torsions:
REMARK  status: ('A' for Active; 'I' for Inactive)
REMARK    1  A    between atoms: C_1  and  C_2
REMARK    2  A    between atoms: C_2  and  O_3
REMARK    3  A    between atoms: O_3  and  C_4
REMARK    4  A    between atoms: N_6  and  C_7
REMARK    5  A    between atoms: N_6  and  S_8
REMARK    6  A    between atoms: S_8  and  N_9
REMARK    7  A    between atoms: N_9  and  C_23
REMARK    8  A    between atoms: C_13  and  C_15
REMARK    9  A    between atoms: C_26  and  C_27
REMARK                            x       y       z     vdW  Elec       q    Type
REMARK                         _______ _______ _______ _____ _____    ______ ____
ROOT
ATOM      1  N   UNL     1       1.139  13.235  20.507  0.00  0.00    +0.000 N 
ATOM      2  C   UNL     1       0.868  14.013  21.680  0.00  0.00    +0.000 C 
ATOM      3  O   UNL     1       1.723  14.693  22.245  0.00  0.00    +0.000 OA
ATOM      4  N   UNL     1      -0.482  14.002  22.071  0.00  0.00    +0.000 N 
ATOM      5  C   UNL     1      -1.034  14.381  23.289  0.00  0.00    +0.000 C 
ATOM      6  O   UNL     1      -0.433  14.968  24.176  0.00  0.00    +0.000 OA
ATOM      7  H   UNL     1      -1.133  13.653  21.386  0.00  0.00    +0.000 HD
ENDROOT
BRANCH   5   8
ATOM      8  C   UNL     1      -2.473  14.031  23.491  0.00  0.00    +0.000 A 
ATOM      9  C   UNL     1      -2.865  12.693  23.601  0.00  0.00    +0.000 A 
ATOM     10  F   UNL     1      -1.974  11.698  23.507  0.00  0.00    +0.000 F 
ATOM     11  C   UNL     1      -4.209  12.338  23.766  0.00  0.00    +0.000 A 
ATOM     12  C   UNL     1      -5.195  13.322  23.833  0.00  0.00    +0.000 A 
ATOM     13  C   UNL     1      -4.822  14.662  23.728  0.00  0.00    +0.000 A 
ATOM     14  C   UNL     1      -3.479  15.002  23.557  0.00  0.00    +0.000 A 
ATOM     15  F   UNL     1      -3.172  16.305  23.441  0.00  0.00    +0.000 F 
ENDBRANCH   5   8
BRANCH   1  16
ATOM     16  C   UNL     1       0.126  12.467  19.864  0.00  0.00    +0.000 A 
ATOM     17  C   UNL     1      -0.047  11.106  20.145  0.00  0.00    +0.000 A 
ATOM     18  C   UNL     1      -0.884  10.322  19.343  0.00  0.00    +0.000 A 
ATOM     19  C   UNL     1      -1.576  10.888  18.261  0.00  0.00    +0.000 A 
ATOM     20  C   UNL     1      -1.434  12.261  18.011  0.00  0.00    +0.000 A 
ATOM     21  C   UNL     1      -0.598  13.043  18.808  0.00  0.00    +0.000 A 
BRANCH  19  22
ATOM     22  C   UNL     1      -2.454  10.052  17.360  0.00  0.00    +0.000 C 
ATOM     23  F   UNL     1      -3.326   9.252  18.033  0.00  0.00    +0.000 F 
ATOM     24  F   UNL     1      -3.209  10.811  16.520  0.00  0.00    +0.000 F 
ATOM     25  F   UNL     1      -1.726   9.221  16.561  0.00  0.00    +0.000 F 
ENDBRANCH  19  22
ENDBRANCH   1  16
BRANCH   1  26
ATOM     26  S   UNL     1       2.580  13.591  19.612  0.00  0.00    +0.000 S 
BRANCH  26  29
ATOM     27  C   UNL     1       3.878  15.976  19.229  0.00  0.00    +0.000 C 
ATOM     28  O   UNL     1       3.978  17.126  18.806  0.00  0.00    +0.000 OA
ATOM     29  N   UNL     1       2.661  15.299  19.348  0.00  0.00    +0.000 N 
ATOM     30  C   UNL     1       1.495  15.907  18.734  0.00  0.00    +0.000 C 
BRANCH  27  31
ATOM     31  O   UNL     1       4.951  15.249  19.639  0.00  0.00    +0.000 OA
BRANCH  31  33
ATOM     32  C   UNL     1       6.357  14.541  17.807  0.00  0.00    +0.000 C 
ATOM     33  C   UNL     1       6.189  15.504  18.969  0.00  0.00    +0.000 C 
ENDBRANCH  31  33
ENDBRANCH  27  31
ENDBRANCH  26  29
ENDBRANCH   1  26
TORSDOF 7
ENDMDL
MODEL 6
REMARK VINA RESULT:      -6.8      7.141     10.347
REMARK  Name = 
REMARK  9 active torsions:
REMARK  status: ('A' for Active; 'I' for Inactive)
REMARK    1  A    between atoms: C_1  and  C_2
REMARK    2  A    between atoms: C_2  and  O_3
REMARK    3  A    between atoms: O_3  and  C_4
REMARK    4  A    between atoms: N_6  and  C_7
REMARK    5  A    between atoms: N_6  and  S_8
REMARK    6  A    between atoms: S_8  and  N_9
REMARK    7  A    between atoms: N_9  and  C_23
REMARK    8  A    between atoms: C_13  and  C_15
REMARK    9  A    between atoms: C_26  and  C_27
REMARK                            x       y       z     vdW  Elec       q    Type
REMARK                         _______ _______ _______ _____ _____    ______ ____
ROOT
ATOM      1  N   UNL     1      -1.056  11.732  18.607  0.00  0.00    +0.000 N 
ATOM      2  C   UNL     1      -0.097  12.794  18.551  0.00  0.00    +0.000 C 
ATOM      3  O   UNL     1       1.108  12.602  18.393  0.00  0.00    +0.000 OA
ATOM      4  N   UNL     1      -0.666  14.078  18.600  0.00  0.00    +0.000 N 
ATOM      5  C   UNL     1      -0.043  15.292  18.866  0.00  0.00    +0.000 C 
ATOM      6  O   UNL     1       1.166  15.459  18.925  0.00  0.00    +0.000 OA
ATOM      7  H   UNL     1      -1.660  14.123  18.443  0.00  0.00    +0.000 HD
ENDROOT
BRANCH   5   8
ATOM      8  C   UNL     1      -0.952  16.458  19.085  0.00  0.00    +0.000 A 
ATOM      9  C   UNL     1      -1.778  16.507  20.212  0.00  0.00    +0.000 A 
ATOM     10  F   UNL     1      -1.793  15.510  21.106  0.00  0.00    +0.000 F 
ATOM     11  C   UNL     1      -2.655  17.576  20.429  0.00  0.00    +0.000 A 
ATOM     12  C   UNL     1      -2.720  18.630  19.518  0.00  0.00    +0.000 A 
ATOM     13  C   UNL     1      -1.902  18.600  18.389  0.00  0.00    +0.000 A 
ATOM     14  C   UNL     1      -1.035  17.525  18.182  0.00  0.00    +0.000 A 
ATOM     15  F   UNL     1      -0.282  17.532  17.070  0.00  0.00    +0.000 F 
ENDBRANCH   5   8
BRANCH   1  16
ATOM     16  C   UNL     1      -2.448  11.984  18.778  0.00  0.00    +0.000 A 
ATOM     17  C   UNL     1      -2.949  12.539  19.961  0.00  0.00    +0.000 A 
ATOM     18  C   UNL     1      -4.329  12.563  20.199  0.00  0.00    +0.000 A 
ATOM     19  C   UNL     1      -5.228  12.053  19.251  0.00  0.00    +0.000 A 
ATOM     20  C   UNL     1      -4.724  11.538  18.047  0.00  0.00    +0.000 A 
ATOM     21  C   UNL     1      -3.349  11.511  17.810  0.00  0.00    +0.000 A 
BRANCH  19  22
ATOM     22  C   UNL     1      -6.718  12.035  19.504  0.00  0.00    +0.000 C 
ATOM     23  F   UNL     1      -7.158  10.901  20.114  0.00  0.00    +0.000 F 
ATOM     24  F   UNL     1      -7.123  13.069  20.291  0.00  0.00    +0.000 F 
ATOM     25  F   UNL     1      -7.435  12.141  18.350  0.00  0.00    +0.000 F 
ENDBRANCH  19  22
ENDBRANCH   1  16
BRANCH   1  26
ATOM     26  S   UNL     1      -0.580  10.175  18.012  0.00  0.00    +0.000 S 
BRANCH  26  29
ATOM     27  C   UNL     1       0.735   9.222  20.222  0.00  0.00    +0.000 C 
ATOM     28  O   UNL     1       1.639   8.619  20.797  0.00  0.00    +0.000 OA
ATOM     29  N   UNL     1       0.812   9.647  18.892  0.00  0.00    +0.000 N 
ATOM     30  C   UNL     1       1.924   9.157  18.098  0.00  0.00    +0.000 C 
BRANCH  27  31
ATOM     31  O   UNL     1      -0.435   9.548  20.832  0.00  0.00    +0.000 OA
BRANCH  31  33
ATOM     32  C   UNL     1      -0.519   9.838  23.229  0.00  0.00    +0.000 C 
ATOM     33  C   UNL     1      -0.359  10.518  21.881  0.00  0.00    +0.000 C 
ENDBRANCH  31  33
ENDBRANCH  27  31
ENDBRANCH  26  29
ENDBRANCH   1  26
TORSDOF 7
ENDMDL
MODEL 7
REMARK VINA RESULT:      -6.8      6.528     11.236
REMARK  Name = 
REMARK  9 active torsions:
REMARK  status: ('A' for Active; 'I' for Inactive)
REMARK    1  A    between atoms: C_1  and  C_2
REMARK    2  A    between atoms: C_2  and  O_3
REMARK    3  A    between atoms: O_3  and  C_4
REMARK    4  A    between atoms: N_6  and  C_7
REMARK    5  A    between atoms: N_6  and  S_8
REMARK    6  A    between atoms: S_8  and  N_9
REMARK    7  A    between atoms: N_9  and  C_23
REMARK    8  A    between atoms: C_13  and  C_15
REMARK    9  A    between atoms: C_26  and  C_27
REMARK                            x       y       z     vdW  Elec       q    Type
REMARK                         _______ _______ _______ _____ _____    ______ ____
ROOT
ATOM      1  N   UNL     1      -2.824  12.565  19.823  0.00  0.00    +0.000 N 
ATOM      2  C   UNL     1      -1.753  12.307  20.738  0.00  0.00    +0.000 C 
ATOM      3  O   UNL     1      -1.580  12.957  21.768  0.00  0.00    +0.000 OA
ATOM      4  N   UNL     1      -0.972  11.188  20.400  0.00  0.00    +0.000 N 
ATOM      5  C   UNL     1       0.287  10.835  20.872  0.00  0.00    +0.000 C 
ATOM      6  O   UNL     1       0.853  11.365  21.816  0.00  0.00    +0.000 OA
ATOM      7  H   UNL     1      -1.368  10.572  19.709  0.00  0.00    +0.000 HD
ENDROOT
BRANCH   5   8
ATOM      8  C   UNL     1       0.965   9.717  20.150  0.00  0.00    +0.000 A 
ATOM      9  C   UNL     1       1.202   8.500  20.798  0.00  0.00    +0.000 A 
ATOM     10  F   UNL     1       0.851   8.313  22.077  0.00  0.00    +0.000 F 
ATOM     11  C   UNL     1       1.856   7.445  20.151  0.00  0.00    +0.000 A 
ATOM     12  C   UNL     1       2.283   7.583  18.831  0.00  0.00    +0.000 A 
ATOM     13  C   UNL     1       2.054   8.788  18.168  0.00  0.00    +0.000 A 
ATOM     14  C   UNL     1       1.406   9.836  18.827  0.00  0.00    +0.000 A 
ATOM     15  F   UNL     1       1.224  10.983  18.153  0.00  0.00    +0.000 F 
ENDBRANCH   5   8
BRANCH   1  16
ATOM     16  C   UNL     1      -3.009  11.788  18.643  0.00  0.00    +0.000 A 
ATOM     17  C   UNL     1      -1.927  11.184  17.991  0.00  0.00    +0.000 A 
ATOM     18  C   UNL     1      -2.095  10.626  16.718  0.00  0.00    +0.000 A 
ATOM     19  C   UNL     1      -3.348  10.644  16.087  0.00  0.00    +0.000 A 
ATOM     20  C   UNL     1      -4.439  11.210  16.763  0.00  0.00    +0.000 A 
ATOM     21  C   UNL     1      -4.272  11.770  18.031  0.00  0.00    +0.000 A 
BRANCH  19  22
ATOM     22  C   UNL     1      -3.542  10.080  14.699  0.00  0.00    +0.000 C 
ATOM     23  F   UNL     1      -4.359   8.993  14.657  0.00  0.00    +0.000 F 
ATOM     24  F   UNL     1      -4.078  10.989  13.839  0.00  0.00    +0.000 F 
ATOM     25  F   UNL     1      -2.364   9.684  14.137  0.00  0.00    +0.000 F 
ENDBRANCH  19  22
ENDBRANCH   1  16
BRANCH   1  26
ATOM     26  S   UNL     1      -4.157  13.522  20.382  0.00  0.00    +0.000 S 
BRANCH  26  29
ATOM     27  C   UNL     1      -5.125  12.883  22.867  0.00  0.00    +0.000 C 
ATOM     28  O   UNL     1      -5.947  12.399  23.644  0.00  0.00    +0.000 OA
ATOM     29  N   UNL     1      -5.082  12.583  21.503  0.00  0.00    +0.000 N 
ATOM     30  C   UNL     1      -6.197  11.839  20.946  0.00  0.00    +0.000 C 
BRANCH  27  31
ATOM     31  O   UNL     1      -4.162  13.754  23.266  0.00  0.00    +0.000 OA
BRANCH  31  33
ATOM     32  C   UNL     1      -3.122  14.873  25.138  0.00  0.00    +0.000 C 
ATOM     33  C   UNL     1      -3.624  13.555  24.577  0.00  0.00    +0.000 C 
ENDBRANCH  31  33
ENDBRANCH  27  31
ENDBRANCH  26  29
ENDBRANCH   1  26
TORSDOF 7
ENDMDL
MODEL 8
REMARK VINA RESULT:      -6.8      6.183      9.064
REMARK  Name = 
REMARK  9 active torsions:
REMARK  status: ('A' for Active; 'I' for Inactive)
REMARK    1  A    between atoms: C_1  and  C_2
REMARK    2  A    between atoms: C_2  and  O_3
REMARK    3  A    between atoms: O_3  and  C_4
REMARK    4  A    between atoms: N_6  and  C_7
REMARK    5  A    between atoms: N_6  and  S_8
REMARK    6  A    between atoms: S_8  and  N_9
REMARK    7  A    between atoms: N_9  and  C_23
REMARK    8  A    between atoms: C_13  and  C_15
REMARK    9  A    between atoms: C_26  and  C_27
REMARK                            x       y       z     vdW  Elec       q    Type
REMARK                         _______ _______ _______ _____ _____    ______ ____
ROOT
ATOM      1  N   UNL     1      -0.120  10.879  20.282  0.00  0.00    +0.000 N 
ATOM      2  C   UNL     1       0.864  11.868  20.606  0.00  0.00    +0.000 C 
ATOM      3  O   UNL     1       1.816  11.647  21.352  0.00  0.00    +0.000 OA
ATOM      4  N   UNL     1       0.694  13.085  19.924  0.00  0.00    +0.000 N 
ATOM      5  C   UNL     1       1.258  14.324  20.208  0.00  0.00    +0.000 C 
ATOM      6  O   UNL     1       2.156  14.514  21.015  0.00  0.00    +0.000 OA
ATOM      7  H   UNL     1       0.065  13.062  19.138  0.00  0.00    +0.000 HD
ENDROOT
BRANCH   5   8
ATOM      8  C   UNL     1       0.702  15.484  19.448  0.00  0.00    +0.000 A 
ATOM      9  C   UNL     1       1.520  16.214  18.578  0.00  0.00    +0.000 A 
ATOM     10  F   UNL     1       2.815  15.910  18.422  0.00  0.00    +0.000 F 
ATOM     11  C   UNL     1       1.030  17.319  17.872  0.00  0.00    +0.000 A 
ATOM     12  C   UNL     1      -0.299  17.715  18.016  0.00  0.00    +0.000 A 
ATOM     13  C   UNL     1      -1.130  16.999  18.877  0.00  0.00    +0.000 A 
ATOM     14  C   UNL     1      -0.627  15.902  19.581  0.00  0.00    +0.000 A 
ATOM     15  F   UNL     1      -1.460  15.254  20.412  0.00  0.00    +0.000 F 
ENDBRANCH   5   8
BRANCH   1  16
ATOM     16  C   UNL     1      -1.206  11.159  19.403  0.00  0.00    +0.000 A 
ATOM     17  C   UNL     1      -2.248  12.015  19.781  0.00  0.00    +0.000 A 
ATOM     18  C   UNL     1      -3.411  12.094  19.005  0.00  0.00    +0.000 A 
ATOM     19  C   UNL     1      -3.543  11.336  17.832  0.00  0.00    +0.000 A 
ATOM     20  C   UNL     1      -2.478  10.513  17.434  0.00  0.00    +0.000 A 
ATOM     21  C   UNL     1      -1.319  10.432  18.208  0.00  0.00    +0.000 A 
BRANCH  19  22
ATOM     22  C   UNL     1      -4.804  11.379  17.001  0.00  0.00    +0.000 C 
ATOM     23  F   UNL     1      -5.262  12.638  16.764  0.00  0.00    +0.000 F 
ATOM     24  F   UNL     1      -4.641  10.799  15.780  0.00  0.00    +0.000 F 
ATOM     25  F   UNL     1      -5.833  10.712  17.597  0.00  0.00    +0.000 F 
ENDBRANCH  19  22
ENDBRANCH   1  16
BRANCH   1  26
ATOM     26  S   UNL     1       0.266   9.218  20.593  0.00  0.00    +0.000 S 
BRANCH  26  29
ATOM     27  C   UNL     1       2.110   7.458  19.582  0.00  0.00    +0.000 C 
ATOM     28  O   UNL     1       2.863   7.022  18.713  0.00  0.00    +0.000 OA
ATOM     29  N   UNL     1       1.575   8.750  19.565  0.00  0.00    +0.000 N 
ATOM     30  C   UNL     1       1.745   9.528  18.351  0.00  0.00    +0.000 C 
BRANCH  27  31
ATOM     31  O   UNL     1       1.730   6.724  20.660  0.00  0.00    +0.000 OA
BRANCH  31  33
ATOM     32  C   UNL     1       1.040   4.423  20.396  0.00  0.00    +0.000 C 
ATOM     33  C   UNL     1       2.188   5.369  20.703  0.00  0.00    +0.000 C 
ENDBRANCH  31  33
ENDBRANCH  27  31
ENDBRANCH  26  29
ENDBRANCH   1  26
TORSDOF 7
ENDMDL
MODEL 9
REMARK VINA RESULT:      -6.8      6.027      9.635
REMARK  Name = 
REMARK  9 active torsions:
REMARK  status: ('A' for Active; 'I' for Inactive)
REMARK    1  A    between atoms: C_1  and  C_2
REMARK    2  A    between atoms: C_2  and  O_3
REMARK    3  A    between atoms: O_3  and  C_4
REMARK    4  A    between atoms: N_6  and  C_7
REMARK    5  A    between atoms: N_6  and  S_8
REMARK    6  A    between atoms: S_8  and  N_9
REMARK    7  A    between atoms: N_9  and  C_23
REMARK    8  A    between atoms: C_13  and  C_15
REMARK    9  A    between atoms: C_26  and  C_27
REMARK                            x       y       z     vdW  Elec       q    Type
REMARK                         _______ _______ _______ _____ _____    ______ ____
ROOT
ATOM      1  N   UNL     1       0.078  11.887  18.878  0.00  0.00    +0.000 N 
ATOM      2  C   UNL     1       0.897  13.062  18.917  0.00  0.00    +0.000 C 
ATOM      3  O   UNL     1       2.118  13.023  19.060  0.00  0.00    +0.000 OA
ATOM      4  N   UNL     1       0.191  14.255  18.684  0.00  0.00    +0.000 N 
ATOM      5  C   UNL     1       0.592  15.562  18.941  0.00  0.00    +0.000 C 
ATOM      6  O   UNL     1       1.724  15.897  19.253  0.00  0.00    +0.000 OA
ATOM      7  H   UNL     1      -0.734  14.149  18.302  0.00  0.00    +0.000 HD
ENDROOT
BRANCH   5   8
ATOM      8  C   UNL     1      -0.468  16.607  18.809  0.00  0.00    +0.000 A 
ATOM      9  C   UNL     1      -0.369  17.591  17.821  0.00  0.00    +0.000 A 
ATOM     10  F   UNL     1       0.679  17.637  16.988  0.00  0.00    +0.000 F 
ATOM     11  C   UNL     1      -1.336  18.595  17.691  0.00  0.00    +0.000 A 
ATOM     12  C   UNL     1      -2.434  18.630  18.550  0.00  0.00    +0.000 A 
ATOM     13  C   UNL     1      -2.551  17.656  19.540  0.00  0.00    +0.000 A 
ATOM     14  C   UNL     1      -1.576  16.663  19.662  0.00  0.00    +0.000 A 
ATOM     15  F   UNL     1      -1.723  15.758  20.643  0.00  0.00    +0.000 F 
ENDBRANCH   5   8
BRANCH   1  16
ATOM     16  C   UNL     1      -1.334  11.960  18.698  0.00  0.00    +0.000 A 
ATOM     17  C   UNL     1      -2.178  12.407  19.721  0.00  0.00    +0.000 A 
ATOM     18  C   UNL     1      -3.565  12.253  19.608  0.00  0.00    +0.000 A 
ATOM     19  C   UNL     1      -4.130  11.670  18.464  0.00  0.00    +0.000 A 
ATOM     20  C   UNL     1      -3.283  11.264  17.422  0.00  0.00    +0.000 A 
ATOM     21  C   UNL     1      -1.900  11.414  17.535  0.00  0.00    +0.000 A 
BRANCH  19  22
ATOM     22  C   UNL     1      -5.621  11.460  18.338  0.00  0.00    +0.000 C 
ATOM     23  F   UNL     1      -6.353  12.170  19.240  0.00  0.00    +0.000 F 
ATOM     24  F   UNL     1      -6.092  11.809  17.110  0.00  0.00    +0.000 F 
ATOM     25  F   UNL     1      -5.972  10.155  18.517  0.00  0.00    +0.000 F 
ENDBRANCH  19  22
ENDBRANCH   1  16
BRANCH   1  26
ATOM     26  S   UNL     1       0.855  10.364  18.594  0.00  0.00    +0.000 S 
BRANCH  26  29
ATOM     27  C   UNL     1       1.526   8.255  20.214  0.00  0.00    +0.000 C 
ATOM     28  O   UNL     1       1.676   7.699  21.300  0.00  0.00    +0.000 OA
ATOM     29  N   UNL     1       0.770   9.419  20.040  0.00  0.00    +0.000 N 
ATOM     30  C   UNL     1       0.332  10.116  21.235  0.00  0.00    +0.000 C 
BRANCH  27  31
ATOM     31  O   UNL     1       2.074   7.782  19.064  0.00  0.00    +0.000 OA
BRANCH  31  33
ATOM     32  C   UNL     1       3.595   6.307  17.904  0.00  0.00    +0.000 C 
ATOM     33  C   UNL     1       2.759   6.529  19.152  0.00  0.00    +0.000 C 
ENDBRANCH  31  33
ENDBRANCH  27  31
ENDBRANCH  26  29
ENDBRANCH   1  26
TORSDOF 7
ENDMDL
