MODEL 1
REMARK VINA RESULT:      -8.4      0.000      0.000
REMARK  Name = 
REMARK  15 active torsions:
REMARK  status: ('A' for Active; 'I' for Inactive)
REMARK    1  A    between atoms: C_1  and  C_2
REMARK    2  A    between atoms: C_2  and  C_3
REMARK    3  A    between atoms: C_3  and  C_4
REMARK    4  A    between atoms: C_5  and  C_6
REMARK    5  A    between atoms: C_6  and  O_8
REMARK    6  A    between atoms: O_8  and  C_9
REMARK    7  A    between atoms: C_9  and  C_10
REMARK    8  A    between atoms: C_11  and  C_12
REMARK    9  A    between atoms: C_15  and  O_16
REMARK   10  A    between atoms: O_16  and  C_17
REMARK   11  A    between atoms: C_18  and  C_19
REMARK   12  A    between atoms: C_19  and  S_20
REMARK   13  A    between atoms: S_20  and  C_21
REMARK   14  A    between atoms: C_28  and  C_29
REMARK   15  A    between atoms: C_31  and  N_32
REMARK                            x       y       z     vdW  Elec       q    Type
REMARK                         _______ _______ _______ _____ _____    ______ ____
ROOT
ATOM      1  C   UNL     1       6.006   4.668  18.089  0.00  0.00    +0.000 C 
ATOM      2  C   UNL     1       5.066   5.381  17.433  0.00  0.00    +0.000 C 
ATOM      3  C   UNL     1       3.598   5.076  17.661  0.00  0.00    +0.000 C 
ATOM      4  C   UNL     1       3.361   3.720  18.286  0.00  0.00    +0.000 C 
ATOM      5  C   UNL     1       4.364   3.061  18.887  0.00  0.00    +0.000 C 
ATOM      6  O   UNL     1       5.643   3.614  18.932  0.00  0.00    +0.000 OA
ENDROOT
BRANCH   3   7
ATOM      7  C   UNL     1       2.924   6.159  18.510  0.00  0.00    +0.000 A 
ATOM      8  C   UNL     1       2.640   5.994  19.864  0.00  0.00    +0.000 A 
ATOM      9  C   UNL     1       2.018   7.024  20.569  0.00  0.00    +0.000 A 
ATOM     10  C   UNL     1       1.650   8.233  19.949  0.00  0.00    +0.000 A 
ATOM     11  C   UNL     1       1.896   8.408  18.577  0.00  0.00    +0.000 A 
ATOM     12  C   UNL     1       2.576   7.372  17.901  0.00  0.00    +0.000 A 
BRANCH  10  13
ATOM     13  O   UNL     1       0.980   9.060  20.808  0.00  0.00    +0.000 OA
ATOM     14  C   UNL     1       1.302   9.047  22.190  0.00  0.00    +0.000 C 
ENDBRANCH  10  13
BRANCH  11  15
ATOM     15  C   UNL     1       1.494   9.636  17.786  0.00  0.00    +0.000 C 
BRANCH  15  16
ATOM     16  S   UNL     1       0.839  11.028  18.785  0.00  0.00    +0.000 S 
BRANCH  16  17
ATOM     17  C   UNL     1      -0.882  10.943  18.369  0.00  0.00    +0.000 A 
ATOM     18  C   UNL     1      -1.305   9.956  17.487  0.00  0.00    +0.000 A 
ATOM     19  C   UNL     1      -2.663   9.846  17.214  0.00  0.00    +0.000 A 
ATOM     20  C   UNL     1      -3.554  10.719  17.830  0.00  0.00    +0.000 A 
ATOM     21  C   UNL     1      -3.042  11.681  18.681  0.00  0.00    +0.000 A 
ATOM     22  N   UNL     1      -1.728  11.817  18.959  0.00  0.00    +0.000 NA
ENDBRANCH  16  17
ENDBRANCH  15  16
ENDBRANCH  11  15
ENDBRANCH   3   7
BRANCH   5  23
ATOM     23  N   UNL     1       4.279   1.860  19.542  0.00  0.00    +0.000 N 
ATOM     24  H   UNL     1       4.883   1.126  19.181  0.00  0.00    +0.000 HD
ATOM     25  H   UNL     1       3.315   1.555  19.662  0.00  0.00    +0.000 HD
ENDBRANCH   5  23
BRANCH   2  26
ATOM     26  C   UNL     1       5.400   6.502  16.500  0.00  0.00    +0.000 C 
ATOM     27  O   UNL     1       5.683   7.642  16.832  0.00  0.00    +0.000 OA
BRANCH  26  28
ATOM     28  O   UNL     1       5.269   6.086  15.220  0.00  0.00    +0.000 OA
BRANCH  28  29
ATOM     29  C   UNL     1       6.307   5.235  14.714  0.00  0.00    +0.000 C 
ATOM     30  C   UNL     1       5.653   4.082  13.968  0.00  0.00    +0.000 C 
ENDBRANCH  28  29
ENDBRANCH  26  28
ENDBRANCH   2  26
BRANCH   4  31
ATOM     31  C   UNL     1       2.044   3.168  18.235  0.00  0.00    +0.000 C 
ATOM     32  N   UNL     1       0.977   2.720  18.182  0.00  0.00    +0.000 NA
ENDBRANCH   4  31
BRANCH   1  33
ATOM     33  C   UNL     1       7.499   4.890  18.114  0.00  0.00    +0.000 C 
BRANCH  33  35
ATOM     34  C   UNL     1       8.285   7.220  18.688  0.00  0.00    +0.000 C 
ATOM     35  C   UNL     1       7.910   5.851  19.232  0.00  0.00    +0.000 C 
ENDBRANCH  33  35
ENDBRANCH   1  33
TORSDOF 12
ENDMDL
MODEL 2
REMARK VINA RESULT:      -8.0      0.940      1.213
REMARK  Name = 
REMARK  15 active torsions:
REMARK  status: ('A' for Active; 'I' for Inactive)
REMARK    1  A    between atoms: C_1  and  C_2
REMARK    2  A    between atoms: C_2  and  C_3
REMARK    3  A    between atoms: C_3  and  C_4
REMARK    4  A    between atoms: C_5  and  C_6
REMARK    5  A    between atoms: C_6  and  O_8
REMARK    6  A    between atoms: O_8  and  C_9
REMARK    7  A    between atoms: C_9  and  C_10
REMARK    8  A    between atoms: C_11  and  C_12
REMARK    9  A    between atoms: C_15  and  O_16
REMARK   10  A    between atoms: O_16  and  C_17
REMARK   11  A    between atoms: C_18  and  C_19
REMARK   12  A    between atoms: C_19  and  S_20
REMARK   13  A    between atoms: S_20  and  C_21
REMARK   14  A    between atoms: C_28  and  C_29
REMARK   15  A    between atoms: C_31  and  N_32
REMARK                            x       y       z     vdW  Elec       q    Type
REMARK                         _______ _______ _______ _____ _____    ______ ____
ROOT
ATOM      1  C   UNL     1       6.009   4.674  18.040  0.00  0.00    +0.000 C 
ATOM      2  C   UNL     1       5.068   5.400  17.399  0.00  0.00    +0.000 C 
ATOM      3  C   UNL     1       3.600   5.109  17.643  0.00  0.00    +0.000 C 
ATOM      4  C   UNL     1       3.356   3.753  18.263  0.00  0.00    +0.000 C 
ATOM      5  C   UNL     1       4.359   3.080  18.849  0.00  0.00    +0.000 C 
ATOM      6  O   UNL     1       5.645   3.619  18.881  0.00  0.00    +0.000 OA
ENDROOT
BRANCH   3   7
ATOM      7  C   UNL     1       2.948   6.195  18.506  0.00  0.00    +0.000 A 
ATOM      8  C   UNL     1       2.771   6.066  19.882  0.00  0.00    +0.000 A 
ATOM      9  C   UNL     1       2.162   7.094  20.600  0.00  0.00    +0.000 A 
ATOM     10  C   UNL     1       1.701   8.267  19.972  0.00  0.00    +0.000 A 
ATOM     11  C   UNL     1       1.838   8.404  18.580  0.00  0.00    +0.000 A 
ATOM     12  C   UNL     1       2.508   7.373  17.887  0.00  0.00    +0.000 A 
BRANCH  10  13
ATOM     13  O   UNL     1       1.064   9.097  20.852  0.00  0.00    +0.000 OA
ATOM     14  C   UNL     1      -0.236   8.765  21.315  0.00  0.00    +0.000 C 
ENDBRANCH  10  13
BRANCH  11  15
ATOM     15  C   UNL     1       1.330   9.588  17.784  0.00  0.00    +0.000 C 
BRANCH  15  16
ATOM     16  S   UNL     1       1.816  11.234  18.434  0.00  0.00    +0.000 S 
BRANCH  16  17
ATOM     17  C   UNL     1       0.270  11.787  19.102  0.00  0.00    +0.000 A 
ATOM     18  C   UNL     1      -0.904  11.418  18.456  0.00  0.00    +0.000 A 
ATOM     19  C   UNL     1      -2.118  11.794  19.017  0.00  0.00    +0.000 A 
ATOM     20  C   UNL     1      -2.124  12.521  20.203  0.00  0.00    +0.000 A 
ATOM     21  C   UNL     1      -0.907  12.859  20.767  0.00  0.00    +0.000 A 
ATOM     22  N   UNL     1       0.287  12.515  20.241  0.00  0.00    +0.000 NA
ENDBRANCH  16  17
ENDBRANCH  15  16
ENDBRANCH  11  15
ENDBRANCH   3   7
BRANCH   5  23
ATOM     23  N   UNL     1       4.270   1.876  19.497  0.00  0.00    +0.000 N 
ATOM     24  H   UNL     1       3.327   1.510  19.604  0.00  0.00    +0.000 HD
ATOM     25  H   UNL     1       4.798   1.869  20.368  0.00  0.00    +0.000 HD
ENDBRANCH   5  23
BRANCH   2  26
ATOM     26  C   UNL     1       5.402   6.524  16.468  0.00  0.00    +0.000 C 
ATOM     27  O   UNL     1       5.788   7.632  16.803  0.00  0.00    +0.000 OA
BRANCH  26  28
ATOM     28  O   UNL     1       5.143   6.154  15.194  0.00  0.00    +0.000 OA
BRANCH  28  29
ATOM     29  C   UNL     1       5.592   4.849  14.801  0.00  0.00    +0.000 C 
ATOM     30  C   UNL     1       7.032   4.966  14.326  0.00  0.00    +0.000 C 
ENDBRANCH  28  29
ENDBRANCH  26  28
ENDBRANCH   2  26
BRANCH   4  31
ATOM     31  C   UNL     1       2.033   3.215  18.225  0.00  0.00    +0.000 C 
ATOM     32  N   UNL     1       0.965   2.769  18.190  0.00  0.00    +0.000 NA
ENDBRANCH   4  31
BRANCH   1  33
ATOM     33  C   UNL     1       7.504   4.881  18.047  0.00  0.00    +0.000 C 
BRANCH  33  35
ATOM     34  C   UNL     1       8.294   7.190  18.696  0.00  0.00    +0.000 C 
ATOM     35  C   UNL     1       7.943   5.797  19.193  0.00  0.00    +0.000 C 
ENDBRANCH  33  35
ENDBRANCH   1  33
TORSDOF 12
ENDMDL
MODEL 3
REMARK VINA RESULT:      -7.9      1.238      1.730
REMARK  Name = 
REMARK  15 active torsions:
REMARK  status: ('A' for Active; 'I' for Inactive)
REMARK    1  A    between atoms: C_1  and  C_2
REMARK    2  A    between atoms: C_2  and  C_3
REMARK    3  A    between atoms: C_3  and  C_4
REMARK    4  A    between atoms: C_5  and  C_6
REMARK    5  A    between atoms: C_6  and  O_8
REMARK    6  A    between atoms: O_8  and  C_9
REMARK    7  A    between atoms: C_9  and  C_10
REMARK    8  A    between atoms: C_11  and  C_12
REMARK    9  A    between atoms: C_15  and  O_16
REMARK   10  A    between atoms: O_16  and  C_17
REMARK   11  A    between atoms: C_18  and  C_19
REMARK   12  A    between atoms: C_19  and  S_20
REMARK   13  A    between atoms: S_20  and  C_21
REMARK   14  A    between atoms: C_28  and  C_29
REMARK   15  A    between atoms: C_31  and  N_32
REMARK                            x       y       z     vdW  Elec       q    Type
REMARK                         _______ _______ _______ _____ _____    ______ ____
ROOT
ATOM      1  C   UNL     1       5.984   4.629  18.094  0.00  0.00    +0.000 C 
ATOM      2  C   UNL     1       5.026   5.325  17.446  0.00  0.00    +0.000 C 
ATOM      3  C   UNL     1       3.565   5.012  17.706  0.00  0.00    +0.000 C 
ATOM      4  C   UNL     1       3.350   3.664  18.355  0.00  0.00    +0.000 C 
ATOM      5  C   UNL     1       4.370   3.021  18.946  0.00  0.00    +0.000 C 
ATOM      6  O   UNL     1       5.646   3.583  18.958  0.00  0.00    +0.000 OA
ENDROOT
BRANCH   3   7
ATOM      7  C   UNL     1       2.900   6.102  18.553  0.00  0.00    +0.000 A 
ATOM      8  C   UNL     1       2.593   5.934  19.902  0.00  0.00    +0.000 A 
ATOM      9  C   UNL     1       1.980   6.970  20.605  0.00  0.00    +0.000 A 
ATOM     10  C   UNL     1       1.643   8.190  19.989  0.00  0.00    +0.000 A 
ATOM     11  C   UNL     1       1.913   8.370  18.622  0.00  0.00    +0.000 A 
ATOM     12  C   UNL     1       2.584   7.326  17.948  0.00  0.00    +0.000 A 
BRANCH  10  13
ATOM     13  O   UNL     1       0.977   9.024  20.843  0.00  0.00    +0.000 OA
ATOM     14  C   UNL     1       1.395   9.123  22.196  0.00  0.00    +0.000 C 
ENDBRANCH  10  13
BRANCH  11  15
ATOM     15  C   UNL     1       1.546   9.610  17.834  0.00  0.00    +0.000 C 
BRANCH  15  16
ATOM     16  S   UNL     1      -0.200  10.149  17.995  0.00  0.00    +0.000 S 
BRANCH  16  17
ATOM     17  C   UNL     1       0.022  11.754  18.716  0.00  0.00    +0.000 A 
ATOM     18  C   UNL     1       1.304  12.285  18.774  0.00  0.00    +0.000 A 
ATOM     19  C   UNL     1       1.470  13.570  19.276  0.00  0.00    +0.000 A 
ATOM     20  C   UNL     1       0.353  14.284  19.700  0.00  0.00    +0.000 A 
ATOM     21  C   UNL     1      -0.883  13.670  19.620  0.00  0.00    +0.000 A 
ATOM     22  N   UNL     1      -1.073  12.421  19.144  0.00  0.00    +0.000 NA
ENDBRANCH  16  17
ENDBRANCH  15  16
ENDBRANCH  11  15
ENDBRANCH   3   7
BRANCH   5  23
ATOM     23  N   UNL     1       4.307   1.828  19.618  0.00  0.00    +0.000 N 
ATOM     24  H   UNL     1       3.855   1.867  20.529  0.00  0.00    +0.000 HD
ATOM     25  H   UNL     1       5.207   1.354  19.644  0.00  0.00    +0.000 HD
ENDBRANCH   5  23
BRANCH   2  26
ATOM     26  C   UNL     1       5.333   6.436  16.491  0.00  0.00    +0.000 C 
ATOM     27  O   UNL     1       5.742   7.544  16.799  0.00  0.00    +0.000 OA
BRANCH  26  28
ATOM     28  O   UNL     1       5.020   6.056  15.232  0.00  0.00    +0.000 OA
BRANCH  28  29
ATOM     29  C   UNL     1       5.524   4.783  14.802  0.00  0.00    +0.000 C 
ATOM     30  C   UNL     1       6.986   4.957  14.421  0.00  0.00    +0.000 C 
ENDBRANCH  28  29
ENDBRANCH  26  28
ENDBRANCH   2  26
BRANCH   4  31
ATOM     31  C   UNL     1       2.037   3.101  18.337  0.00  0.00    +0.000 C 
ATOM     32  N   UNL     1       0.975   2.639  18.313  0.00  0.00    +0.000 NA
ENDBRANCH   4  31
BRANCH   1  33
ATOM     33  C   UNL     1       7.476   4.862  18.086  0.00  0.00    +0.000 C 
BRANCH  33  35
ATOM     34  C   UNL     1       8.256   7.178  18.724  0.00  0.00    +0.000 C 
ATOM     35  C   UNL     1       7.910   5.786  19.228  0.00  0.00    +0.000 C 
ENDBRANCH  33  35
ENDBRANCH   1  33
TORSDOF 12
ENDMDL
MODEL 4
REMARK VINA RESULT:      -7.9      1.316      1.806
REMARK  Name = 
REMARK  15 active torsions:
REMARK  status: ('A' for Active; 'I' for Inactive)
REMARK    1  A    between atoms: C_1  and  C_2
REMARK    2  A    between atoms: C_2  and  C_3
REMARK    3  A    between atoms: C_3  and  C_4
REMARK    4  A    between atoms: C_5  and  C_6
REMARK    5  A    between atoms: C_6  and  O_8
REMARK    6  A    between atoms: O_8  and  C_9
REMARK    7  A    between atoms: C_9  and  C_10
REMARK    8  A    between atoms: C_11  and  C_12
REMARK    9  A    between atoms: C_15  and  O_16
REMARK   10  A    between atoms: O_16  and  C_17
REMARK   11  A    between atoms: C_18  and  C_19
REMARK   12  A    between atoms: C_19  and  S_20
REMARK   13  A    between atoms: S_20  and  C_21
REMARK   14  A    between atoms: C_28  and  C_29
REMARK   15  A    between atoms: C_31  and  N_32
REMARK                            x       y       z     vdW  Elec       q    Type
REMARK                         _______ _______ _______ _____ _____    ______ ____
ROOT
ATOM      1  C   UNL     1       6.053   4.612  18.185  0.00  0.00    +0.000 C 
ATOM      2  C   UNL     1       5.027   5.214  17.545  0.00  0.00    +0.000 C 
ATOM      3  C   UNL     1       3.602   4.812  17.869  0.00  0.00    +0.000 C 
ATOM      4  C   UNL     1       3.503   3.480  18.576  0.00  0.00    +0.000 C 
ATOM      5  C   UNL     1       4.584   2.933  19.155  0.00  0.00    +0.000 C 
ATOM      6  O   UNL     1       5.817   3.582  19.100  0.00  0.00    +0.000 OA
ENDROOT
BRANCH   3   7
ATOM      7  C   UNL     1       2.889   5.887  18.696  0.00  0.00    +0.000 A 
ATOM      8  C   UNL     1       2.466   5.680  20.008  0.00  0.00    +0.000 A 
ATOM      9  C   UNL     1       1.817   6.705  20.695  0.00  0.00    +0.000 A 
ATOM     10  C   UNL     1       1.559   7.953  20.097  0.00  0.00    +0.000 A 
ATOM     11  C   UNL     1       1.946   8.173  18.764  0.00  0.00    +0.000 A 
ATOM     12  C   UNL     1       2.650   7.138  18.111  0.00  0.00    +0.000 A 
BRANCH  10  13
ATOM     13  O   UNL     1       0.839   8.772  20.922  0.00  0.00    +0.000 OA
ATOM     14  C   UNL     1       1.407   9.208  22.148  0.00  0.00    +0.000 C 
ENDBRANCH  10  13
BRANCH  11  15
ATOM     15  C   UNL     1       1.672   9.448  17.994  0.00  0.00    +0.000 C 
BRANCH  15  16
ATOM     16  S   UNL     1      -0.064  10.039  18.054  0.00  0.00    +0.000 S 
BRANCH  16  17
ATOM     17  C   UNL     1       0.080  11.345  19.245  0.00  0.00    +0.000 A 
ATOM     18  C   UNL     1      -1.065  11.768  19.909  0.00  0.00    +0.000 A 
ATOM     19  C   UNL     1      -0.942  12.743  20.892  0.00  0.00    +0.000 A 
ATOM     20  C   UNL     1       0.316  13.261  21.182  0.00  0.00    +0.000 A 
ATOM     21  C   UNL     1       1.398  12.792  20.460  0.00  0.00    +0.000 A 
ATOM     22  N   UNL     1       1.307  11.852  19.495  0.00  0.00    +0.000 NA
ENDBRANCH  16  17
ENDBRANCH  15  16
ENDBRANCH  11  15
ENDBRANCH   3   7
BRANCH   5  23
ATOM     23  N   UNL     1       4.627   1.767  19.875  0.00  0.00    +0.000 N 
ATOM     24  H   UNL     1       4.873   0.937  19.341  0.00  0.00    +0.000 HD
ATOM     25  H   UNL     1       3.794   1.638  20.446  0.00  0.00    +0.000 HD
ENDBRANCH   5  23
BRANCH   2  26
ATOM     26  C   UNL     1       5.225   6.303  16.538  0.00  0.00    +0.000 C 
ATOM     27  O   UNL     1       5.406   7.483  16.794  0.00  0.00    +0.000 OA
BRANCH  26  28
ATOM     28  O   UNL     1       5.099   5.799  15.290  0.00  0.00    +0.000 OA
BRANCH  28  29
ATOM     29  C   UNL     1       6.286   5.256  14.695  0.00  0.00    +0.000 C 
ATOM     30  C   UNL     1       5.951   3.881  14.138  0.00  0.00    +0.000 C 
ENDBRANCH  28  29
ENDBRANCH  26  28
ENDBRANCH   2  26
BRANCH   4  31
ATOM     31  C   UNL     1       2.233   2.828  18.626  0.00  0.00    +0.000 C 
ATOM     32  N   UNL     1       1.197   2.310  18.667  0.00  0.00    +0.000 NA
ENDBRANCH   4  31
BRANCH   1  33
ATOM     33  C   UNL     1       7.523   4.947  18.116  0.00  0.00    +0.000 C 
BRANCH  33  35
ATOM     34  C   UNL     1       8.218   7.343  18.510  0.00  0.00    +0.000 C 
ATOM     35  C   UNL     1       7.913   6.001  19.156  0.00  0.00    +0.000 C 
ENDBRANCH  33  35
ENDBRANCH   1  33
TORSDOF 12
ENDMDL
MODEL 5
REMARK VINA RESULT:      -7.3      2.093      3.868
REMARK  Name = 
REMARK  15 active torsions:
REMARK  status: ('A' for Active; 'I' for Inactive)
REMARK    1  A    between atoms: C_1  and  C_2
REMARK    2  A    between atoms: C_2  and  C_3
REMARK    3  A    between atoms: C_3  and  C_4
REMARK    4  A    between atoms: C_5  and  C_6
REMARK    5  A    between atoms: C_6  and  O_8
REMARK    6  A    between atoms: O_8  and  C_9
REMARK    7  A    between atoms: C_9  and  C_10
REMARK    8  A    between atoms: C_11  and  C_12
REMARK    9  A    between atoms: C_15  and  O_16
REMARK   10  A    between atoms: O_16  and  C_17
REMARK   11  A    between atoms: C_18  and  C_19
REMARK   12  A    between atoms: C_19  and  S_20
REMARK   13  A    between atoms: S_20  and  C_21
REMARK   14  A    between atoms: C_28  and  C_29
REMARK   15  A    between atoms: C_31  and  N_32
REMARK                            x       y       z     vdW  Elec       q    Type
REMARK                         _______ _______ _______ _____ _____    ______ ____
ROOT
ATOM      1  C   UNL     1       5.040   4.584  15.719  0.00  0.00    +0.000 C 
ATOM      2  C   UNL     1       4.506   4.116  16.868  0.00  0.00    +0.000 C 
ATOM      3  C   UNL     1       4.979   4.673  18.197  0.00  0.00    +0.000 C 
ATOM      4  C   UNL     1       6.302   5.398  18.103  0.00  0.00    +0.000 C 
ATOM      5  C   UNL     1       6.779   5.796  16.912  0.00  0.00    +0.000 C 
ATOM      6  O   UNL     1       6.065   5.534  15.744  0.00  0.00    +0.000 OA
ENDROOT
BRANCH   3   7
ATOM      7  C   UNL     1       3.930   5.597  18.824  0.00  0.00    +0.000 A 
ATOM      8  C   UNL     1       3.374   5.370  20.082  0.00  0.00    +0.000 A 
ATOM      9  C   UNL     1       2.418   6.253  20.583  0.00  0.00    +0.000 A 
ATOM     10  C   UNL     1       1.980   7.370  19.848  0.00  0.00    +0.000 A 
ATOM     11  C   UNL     1       2.502   7.600  18.564  0.00  0.00    +0.000 A 
ATOM     12  C   UNL     1       3.508   6.723  18.104  0.00  0.00    +0.000 A 
BRANCH  10  13
ATOM     13  O   UNL     1       0.981   8.044  20.495  0.00  0.00    +0.000 OA
ATOM     14  C   UNL     1       1.284   8.803  21.656  0.00  0.00    +0.000 C 
ENDBRANCH  10  13
BRANCH  11  15
ATOM     15  C   UNL     1       2.068   8.731  17.654  0.00  0.00    +0.000 C 
BRANCH  15  16
ATOM     16  S   UNL     1       2.104  10.401  18.412  0.00  0.00    +0.000 S 
BRANCH  16  17
ATOM     17  C   UNL     1       0.383  10.819  18.358  0.00  0.00    +0.000 A 
ATOM     18  C   UNL     1      -0.519   9.865  17.902  0.00  0.00    +0.000 A 
ATOM     19  C   UNL     1      -1.875  10.167  17.924  0.00  0.00    +0.000 A 
ATOM     20  C   UNL     1      -2.288  11.407  18.402  0.00  0.00    +0.000 A 
ATOM     21  C   UNL     1      -1.319  12.301  18.820  0.00  0.00    +0.000 A 
ATOM     22  N   UNL     1       0.004  12.038  18.803  0.00  0.00    +0.000 NA
ENDBRANCH  16  17
ENDBRANCH  15  16
ENDBRANCH  11  15
ENDBRANCH   3   7
BRANCH   5  23
ATOM     23  N   UNL     1       7.928   6.509  16.686  0.00  0.00    +0.000 N 
ATOM     24  H   UNL     1       7.797   7.410  16.234  0.00  0.00    +0.000 HD
ATOM     25  H   UNL     1       8.649   5.944  16.242  0.00  0.00    +0.000 HD
ENDBRANCH   5  23
BRANCH   2  26
ATOM     26  C   UNL     1       3.426   3.081  16.900  0.00  0.00    +0.000 C 
ATOM     27  O   UNL     1       2.265   3.256  16.565  0.00  0.00    +0.000 OA
BRANCH  26  28
ATOM     28  O   UNL     1       3.907   1.935  17.429  0.00  0.00    +0.000 OA
BRANCH  28  29
ATOM     29  C   UNL     1       3.308   1.493  18.656  0.00  0.00    +0.000 C 
ATOM     30  C   UNL     1       4.260   1.823  19.794  0.00  0.00    +0.000 C 
ENDBRANCH  28  29
ENDBRANCH  26  28
ENDBRANCH   2  26
BRANCH   4  31
ATOM     31  C   UNL     1       7.022   5.661  19.308  0.00  0.00    +0.000 C 
ATOM     32  N   UNL     1       7.611   5.865  20.285  0.00  0.00    +0.000 NA
ENDBRANCH   4  31
BRANCH   1  33
ATOM     33  C   UNL     1       4.626   4.271  14.301  0.00  0.00    +0.000 C 
BRANCH  33  35
ATOM     34  C   UNL     1       5.369   3.361  12.066  0.00  0.00    +0.000 C 
ATOM     35  C   UNL     1       5.800   3.743  13.473  0.00  0.00    +0.000 C 
ENDBRANCH  33  35
ENDBRANCH   1  33
TORSDOF 12
ENDMDL
MODEL 6
REMARK VINA RESULT:      -7.1      1.078      1.870
REMARK  Name = 
REMARK  15 active torsions:
REMARK  status: ('A' for Active; 'I' for Inactive)
REMARK    1  A    between atoms: C_1  and  C_2
REMARK    2  A    between atoms: C_2  and  C_3
REMARK    3  A    between atoms: C_3  and  C_4
REMARK    4  A    between atoms: C_5  and  C_6
REMARK    5  A    between atoms: C_6  and  O_8
REMARK    6  A    between atoms: O_8  and  C_9
REMARK    7  A    between atoms: C_9  and  C_10
REMARK    8  A    between atoms: C_11  and  C_12
REMARK    9  A    between atoms: C_15  and  O_16
REMARK   10  A    between atoms: O_16  and  C_17
REMARK   11  A    between atoms: C_18  and  C_19
REMARK   12  A    between atoms: C_19  and  S_20
REMARK   13  A    between atoms: S_20  and  C_21
REMARK   14  A    between atoms: C_28  and  C_29
REMARK   15  A    between atoms: C_31  and  N_32
REMARK                            x       y       z     vdW  Elec       q    Type
REMARK                         _______ _______ _______ _____ _____    ______ ____
ROOT
ATOM      1  C   UNL     1       5.780   5.020  18.633  0.00  0.00    +0.000 C 
ATOM      2  C   UNL     1       4.929   5.771  17.901  0.00  0.00    +0.000 C 
ATOM      3  C   UNL     1       3.440   5.489  17.959  0.00  0.00    +0.000 C 
ATOM      4  C   UNL     1       3.114   4.120  18.511  0.00  0.00    +0.000 C 
ATOM      5  C   UNL     1       4.034   3.424  19.197  0.00  0.00    +0.000 C 
ATOM      6  O   UNL     1       5.310   3.949  19.397  0.00  0.00    +0.000 OA
ENDROOT
BRANCH   3   7
ATOM      7  C   UNL     1       2.696   6.560  18.763  0.00  0.00    +0.000 A 
ATOM      8  C   UNL     1       2.325   6.387  20.096  0.00  0.00    +0.000 A 
ATOM      9  C   UNL     1       1.643   7.405  20.760  0.00  0.00    +0.000 A 
ATOM     10  C   UNL     1       1.299   8.610  20.119  0.00  0.00    +0.000 A 
ATOM     11  C   UNL     1       1.633   8.793  18.767  0.00  0.00    +0.000 A 
ATOM     12  C   UNL     1       2.372   7.770  18.135  0.00  0.00    +0.000 A 
BRANCH  10  13
ATOM     13  O   UNL     1       0.561   9.425  20.933  0.00  0.00    +0.000 OA
ATOM     14  C   UNL     1      -0.229   8.857  21.966  0.00  0.00    +0.000 C 
ENDBRANCH  10  13
BRANCH  11  15
ATOM     15  C   UNL     1       1.267  10.018  17.954  0.00  0.00    +0.000 C 
BRANCH  15  16
ATOM     16  S   UNL     1       1.142  11.580  18.908  0.00  0.00    +0.000 S 
BRANCH  16  17
ATOM     17  C   UNL     1      -0.618  11.790  18.955  0.00  0.00    +0.000 A 
ATOM     18  C   UNL     1      -1.396  11.088  18.042  0.00  0.00    +0.000 A 
ATOM     19  C   UNL     1      -2.779  11.199  18.123  0.00  0.00    +0.000 A 
ATOM     20  C   UNL     1      -3.340  12.001  19.112  0.00  0.00    +0.000 A 
ATOM     21  C   UNL     1      -2.488  12.674  19.968  0.00  0.00    +0.000 A 
ATOM     22  N   UNL     1      -1.143  12.592  19.908  0.00  0.00    +0.000 NA
ENDBRANCH  16  17
ENDBRANCH  15  16
ENDBRANCH  11  15
ENDBRANCH   3   7
BRANCH   5  23
ATOM     23  N   UNL     1       3.858   2.206  19.800  0.00  0.00    +0.000 N 
ATOM     24  H   UNL     1       4.692   1.808  20.226  0.00  0.00    +0.000 HD
ATOM     25  H   UNL     1       3.369   1.546  19.198  0.00  0.00    +0.000 HD
ENDBRANCH   5  23
BRANCH   2  26
ATOM     26  C   UNL     1       5.381   6.913  17.046  0.00  0.00    +0.000 C 
ATOM     27  O   UNL     1       5.112   7.066  15.865  0.00  0.00    +0.000 OA
BRANCH  26  28
ATOM     28  O   UNL     1       6.200   7.719  17.757  0.00  0.00    +0.000 OA
BRANCH  28  29
ATOM     29  C   UNL     1       7.475   8.017  17.171  0.00  0.00    +0.000 C 
ATOM     30  C   UNL     1       8.215   8.965  18.101  0.00  0.00    +0.000 C 
ENDBRANCH  28  29
ENDBRANCH  26  28
ENDBRANCH   2  26
BRANCH   4  31
ATOM     31  C   UNL     1       1.801   3.596  18.300  0.00  0.00    +0.000 C 
ATOM     32  N   UNL     1       0.733   3.183  18.128  0.00  0.00    +0.000 NA
ENDBRANCH   4  31
BRANCH   1  33
ATOM     33  C   UNL     1       7.265   5.212  18.826  0.00  0.00    +0.000 C 
BRANCH  33  35
ATOM     34  C   UNL     1       7.374   4.320  16.466  0.00  0.00    +0.000 C 
ATOM     35  C   UNL     1       8.077   4.402  17.811  0.00  0.00    +0.000 C 
ENDBRANCH  33  35
ENDBRANCH   1  33
TORSDOF 12
ENDMDL
MODEL 7
REMARK VINA RESULT:      -7.1      1.651      2.469
REMARK  Name = 
REMARK  15 active torsions:
REMARK  status: ('A' for Active; 'I' for Inactive)
REMARK    1  A    between atoms: C_1  and  C_2
REMARK    2  A    between atoms: C_2  and  C_3
REMARK    3  A    between atoms: C_3  and  C_4
REMARK    4  A    between atoms: C_5  and  C_6
REMARK    5  A    between atoms: C_6  and  O_8
REMARK    6  A    between atoms: O_8  and  C_9
REMARK    7  A    between atoms: C_9  and  C_10
REMARK    8  A    between atoms: C_11  and  C_12
REMARK    9  A    between atoms: C_15  and  O_16
REMARK   10  A    between atoms: O_16  and  C_17
REMARK   11  A    between atoms: C_18  and  C_19
REMARK   12  A    between atoms: C_19  and  S_20
REMARK   13  A    between atoms: S_20  and  C_21
REMARK   14  A    between atoms: C_28  and  C_29
REMARK   15  A    between atoms: C_31  and  N_32
REMARK                            x       y       z     vdW  Elec       q    Type
REMARK                         _______ _______ _______ _____ _____    ______ ____
ROOT
ATOM      1  C   UNL     1       6.048   4.717  18.188  0.00  0.00    +0.000 C 
ATOM      2  C   UNL     1       5.146   5.473  17.525  0.00  0.00    +0.000 C 
ATOM      3  C   UNL     1       3.666   5.185  17.682  0.00  0.00    +0.000 C 
ATOM      4  C   UNL     1       3.382   3.809  18.238  0.00  0.00    +0.000 C 
ATOM      5  C   UNL     1       4.349   3.107  18.851  0.00  0.00    +0.000 C 
ATOM      6  O   UNL     1       5.634   3.635  18.969  0.00  0.00    +0.000 OA
ENDROOT
BRANCH   3   7
ATOM      7  C   UNL     1       2.976   6.243  18.549  0.00  0.00    +0.000 A 
ATOM      8  C   UNL     1       2.655   6.035  19.889  0.00  0.00    +0.000 A 
ATOM      9  C   UNL     1       2.020   7.044  20.612  0.00  0.00    +0.000 A 
ATOM     10  C   UNL     1       1.675   8.275  20.024  0.00  0.00    +0.000 A 
ATOM     11  C   UNL     1       1.959   8.495  18.665  0.00  0.00    +0.000 A 
ATOM     12  C   UNL     1       2.651   7.479  17.973  0.00  0.00    +0.000 A 
BRANCH  10  13
ATOM     13  O   UNL     1       0.987   9.078  20.892  0.00  0.00    +0.000 OA
ATOM     14  C   UNL     1      -0.156   8.569  21.562  0.00  0.00    +0.000 C 
ENDBRANCH  10  13
BRANCH  11  15
ATOM     15  C   UNL     1       1.585   9.752  17.906  0.00  0.00    +0.000 C 
BRANCH  15  16
ATOM     16  S   UNL     1      -0.091  10.409  18.260  0.00  0.00    +0.000 S 
BRANCH  16  17
ATOM     17  C   UNL     1       0.310  12.055  18.781  0.00  0.00    +0.000 A 
ATOM     18  C   UNL     1      -0.513  13.099  18.377  0.00  0.00    +0.000 A 
ATOM     19  C   UNL     1      -0.239  14.380  18.841  0.00  0.00    +0.000 A 
ATOM     20  C   UNL     1       0.843  14.578  19.693  0.00  0.00    +0.000 A 
ATOM     21  C   UNL     1       1.617  13.483  20.030  0.00  0.00    +0.000 A 
ATOM     22  N   UNL     1       1.380  12.230  19.588  0.00  0.00    +0.000 NA
ENDBRANCH  16  17
ENDBRANCH  15  16
ENDBRANCH  11  15
ENDBRANCH   3   7
BRANCH   5  23
ATOM     23  N   UNL     1       4.219   1.881  19.449  0.00  0.00    +0.000 N 
ATOM     24  H   UNL     1       3.374   1.369  19.208  0.00  0.00    +0.000 HD
ATOM     25  H   UNL     1       4.382   1.925  20.453  0.00  0.00    +0.000 HD
ENDBRANCH   5  23
BRANCH   2  26
ATOM     26  C   UNL     1       5.535   6.627  16.655  0.00  0.00    +0.000 C 
ATOM     27  O   UNL     1       5.389   6.684  15.444  0.00  0.00    +0.000 OA
BRANCH  26  28
ATOM     28  O   UNL     1       6.145   7.575  17.400  0.00  0.00    +0.000 OA
BRANCH  28  29
ATOM     29  C   UNL     1       7.495   7.903  17.041  0.00  0.00    +0.000 C 
ATOM     30  C   UNL     1       7.934   9.091  17.882  0.00  0.00    +0.000 C 
ENDBRANCH  28  29
ENDBRANCH  26  28
ENDBRANCH   2  26
BRANCH   4  31
ATOM     31  C   UNL     1       2.059   3.283  18.112  0.00  0.00    +0.000 C 
ATOM     32  N   UNL     1       0.992   2.846  18.006  0.00  0.00    +0.000 NA
ENDBRANCH   4  31
BRANCH   1  33
ATOM     33  C   UNL     1       7.542   4.912  18.280  0.00  0.00    +0.000 C 
BRANCH  33  35
ATOM     34  C   UNL     1       8.663   5.027  20.540  0.00  0.00    +0.000 C 
ATOM     35  C   UNL     1       7.924   5.805  19.464  0.00  0.00    +0.000 C 
ENDBRANCH  33  35
ENDBRANCH   1  33
TORSDOF 12
ENDMDL
MODEL 8
REMARK VINA RESULT:      -7.1      4.053      7.964
REMARK  Name = 
REMARK  15 active torsions:
REMARK  status: ('A' for Active; 'I' for Inactive)
REMARK    1  A    between atoms: C_1  and  C_2
REMARK    2  A    between atoms: C_2  and  C_3
REMARK    3  A    between atoms: C_3  and  C_4
REMARK    4  A    between atoms: C_5  and  C_6
REMARK    5  A    between atoms: C_6  and  O_8
REMARK    6  A    between atoms: O_8  and  C_9
REMARK    7  A    between atoms: C_9  and  C_10
REMARK    8  A    between atoms: C_11  and  C_12
REMARK    9  A    between atoms: C_15  and  O_16
REMARK   10  A    between atoms: O_16  and  C_17
REMARK   11  A    between atoms: C_18  and  C_19
REMARK   12  A    between atoms: C_19  and  S_20
REMARK   13  A    between atoms: S_20  and  C_21
REMARK   14  A    between atoms: C_28  and  C_29
REMARK   15  A    between atoms: C_31  and  N_32
REMARK                            x       y       z     vdW  Elec       q    Type
REMARK                         _______ _______ _______ _____ _____    ______ ____
ROOT
ATOM      1  C   UNL     1       1.546   9.256  19.221  0.00  0.00    +0.000 C 
ATOM      2  C   UNL     1       0.618   9.770  20.058  0.00  0.00    +0.000 C 
ATOM      3  C   UNL     1       0.087  11.170  19.822  0.00  0.00    +0.000 C 
ATOM      4  C   UNL     1       0.968  11.996  18.913  0.00  0.00    +0.000 C 
ATOM      5  C   UNL     1       1.894  11.407  18.140  0.00  0.00    +0.000 C 
ATOM      6  O   UNL     1       2.065  10.024  18.175  0.00  0.00    +0.000 OA
ENDROOT
BRANCH   3   7
ATOM      7  C   UNL     1      -1.341  11.143  19.268  0.00  0.00    +0.000 A 
ATOM      8  C   UNL     1      -1.756  10.251  18.281  0.00  0.00    +0.000 A 
ATOM      9  C   UNL     1      -3.072  10.292  17.821  0.00  0.00    +0.000 A 
ATOM     10  C   UNL     1      -4.003  11.225  18.316  0.00  0.00    +0.000 A 
ATOM     11  C   UNL     1      -3.598  12.156  19.288  0.00  0.00    +0.000 A 
ATOM     12  C   UNL     1      -2.277  12.056  19.774  0.00  0.00    +0.000 A 
BRANCH  10  13
ATOM     13  O   UNL     1      -5.202  11.140  17.664  0.00  0.00    +0.000 OA
ATOM     14  C   UNL     1      -6.356  10.707  18.370  0.00  0.00    +0.000 C 
ENDBRANCH  10  13
BRANCH  11  15
ATOM     15  C   UNL     1      -4.488  13.243  19.853  0.00  0.00    +0.000 C 
BRANCH  15  16
ATOM     16  S   UNL     1      -3.809  14.132  21.307  0.00  0.00    +0.000 S 
BRANCH  16  17
ATOM     17  C   UNL     1      -4.700  13.338  22.617  0.00  0.00    +0.000 A 
ATOM     18  C   UNL     1      -3.994  12.896  23.730  0.00  0.00    +0.000 A 
ATOM     19  C   UNL     1      -4.701  12.336  24.787  0.00  0.00    +0.000 A 
ATOM     20  C   UNL     1      -6.086  12.237  24.703  0.00  0.00    +0.000 A 
ATOM     21  C   UNL     1      -6.704  12.688  23.550  0.00  0.00    +0.000 A 
ATOM     22  N   UNL     1      -6.043  13.228  22.505  0.00  0.00    +0.000 NA
ENDBRANCH  16  17
ENDBRANCH  15  16
ENDBRANCH  11  15
ENDBRANCH   3   7
BRANCH   5  23
ATOM     23  N   UNL     1       2.717  12.023  17.233  0.00  0.00    +0.000 N 
ATOM     24  H   UNL     1       3.571  12.417  17.620  0.00  0.00    +0.000 HD
ATOM     25  H   UNL     1       2.212  12.678  16.640  0.00  0.00    +0.000 HD
ENDBRANCH   5  23
BRANCH   2  26
ATOM     26  C   UNL     1       0.048   9.001  21.209  0.00  0.00    +0.000 C 
ATOM     27  O   UNL     1      -0.808   8.134  21.130  0.00  0.00    +0.000 OA
BRANCH  26  28
ATOM     28  O   UNL     1       0.568   9.462  22.368  0.00  0.00    +0.000 OA
BRANCH  28  29
ATOM     29  C   UNL     1      -0.348   9.638  23.458  0.00  0.00    +0.000 C 
ATOM     30  C   UNL     1      -1.183  10.878  23.179  0.00  0.00    +0.000 C 
ENDBRANCH  28  29
ENDBRANCH  26  28
ENDBRANCH   2  26
BRANCH   4  31
ATOM     31  C   UNL     1       0.780  13.412  18.887  0.00  0.00    +0.000 C 
ATOM     32  N   UNL     1       0.634  14.561  18.875  0.00  0.00    +0.000 NA
ENDBRANCH   4  31
BRANCH   1  33
ATOM     33  C   UNL     1       2.104   7.854  19.192  0.00  0.00    +0.000 C 
BRANCH  33  35
ATOM     34  C   UNL     1       3.378   6.158  17.823  0.00  0.00    +0.000 C 
ATOM     35  C   UNL     1       2.976   7.618  17.956  0.00  0.00    +0.000 C 
ENDBRANCH  33  35
ENDBRANCH   1  33
TORSDOF 12
ENDMDL
MODEL 9
REMARK VINA RESULT:      -7.0      2.911      9.223
REMARK  Name = 
REMARK  15 active torsions:
REMARK  status: ('A' for Active; 'I' for Inactive)
REMARK    1  A    between atoms: C_1  and  C_2
REMARK    2  A    between atoms: C_2  and  C_3
REMARK    3  A    between atoms: C_3  and  C_4
REMARK    4  A    between atoms: C_5  and  C_6
REMARK    5  A    between atoms: C_6  and  O_8
REMARK    6  A    between atoms: O_8  and  C_9
REMARK    7  A    between atoms: C_9  and  C_10
REMARK    8  A    between atoms: C_11  and  C_12
REMARK    9  A    between atoms: C_15  and  O_16
REMARK   10  A    between atoms: O_16  and  C_17
REMARK   11  A    between atoms: C_18  and  C_19
REMARK   12  A    between atoms: C_19  and  S_20
REMARK   13  A    between atoms: S_20  and  C_21
REMARK   14  A    between atoms: C_28  and  C_29
REMARK   15  A    between atoms: C_31  and  N_32
REMARK                            x       y       z     vdW  Elec       q    Type
REMARK                         _______ _______ _______ _____ _____    ______ ____
ROOT
ATOM      1  C   UNL     1      -2.249  12.164  19.213  0.00  0.00    +0.000 C 
ATOM      2  C   UNL     1      -1.631  11.316  18.362  0.00  0.00    +0.000 C 
ATOM      3  C   UNL     1      -0.118  11.317  18.267  0.00  0.00    +0.000 C 
ATOM      4  C   UNL     1       0.514  12.567  18.835  0.00  0.00    +0.000 C 
ATOM      5  C   UNL     1      -0.186  13.378  19.645  0.00  0.00    +0.000 C 
ATOM      6  O   UNL     1      -1.511  13.084  19.963  0.00  0.00    +0.000 OA
ENDROOT
BRANCH   3   7
ATOM      7  C   UNL     1       0.489  10.082  18.942  0.00  0.00    +0.000 A 
ATOM      8  C   UNL     1       0.129   9.663  20.222  0.00  0.00    +0.000 A 
ATOM      9  C   UNL     1       0.731   8.532  20.772  0.00  0.00    +0.000 A 
ATOM     10  C   UNL     1       1.712   7.800  20.078  0.00  0.00    +0.000 A 
ATOM     11  C   UNL     1       2.114   8.224  18.800  0.00  0.00    +0.000 A 
ATOM     12  C   UNL     1       1.449   9.338  18.245  0.00  0.00    +0.000 A 
BRANCH  10  13
ATOM     13  O   UNL     1       2.223   6.786  20.840  0.00  0.00    +0.000 OA
ATOM     14  C   UNL     1       1.615   5.503  20.801  0.00  0.00    +0.000 C 
ENDBRANCH  10  13
BRANCH  11  15
ATOM     15  C   UNL     1       3.199   7.556  17.980  0.00  0.00    +0.000 C 
BRANCH  15  16
ATOM     16  S   UNL     1       3.020   5.741  17.779  0.00  0.00    +0.000 S 
BRANCH  16  17
ATOM     17  C   UNL     1       4.601   5.335  17.087  0.00  0.00    +0.000 A 
ATOM     18  C   UNL     1       4.702   4.213  16.273  0.00  0.00    +0.000 A 
ATOM     19  C   UNL     1       5.925   3.933  15.676  0.00  0.00    +0.000 A 
ATOM     20  C   UNL     1       7.005   4.780  15.905  0.00  0.00    +0.000 A 
ATOM     21  C   UNL     1       6.816   5.865  16.742  0.00  0.00    +0.000 A 
ATOM     22  N   UNL     1       5.643   6.157  17.343  0.00  0.00    +0.000 NA
ENDBRANCH  16  17
ENDBRANCH  15  16
ENDBRANCH  11  15
ENDBRANCH   3   7
BRANCH   5  23
ATOM     23  N   UNL     1       0.275  14.506  20.273  0.00  0.00    +0.000 N 
ATOM     24  H   UNL     1      -0.296  14.835  21.048  0.00  0.00    +0.000 HD
ATOM     25  H   UNL     1       0.510  15.244  19.613  0.00  0.00    +0.000 HD
ENDBRANCH   5  23
BRANCH   2  26
ATOM     26  C   UNL     1      -2.374  10.329  17.517  0.00  0.00    +0.000 C 
ATOM     27  O   UNL     1      -2.983   9.355  17.931  0.00  0.00    +0.000 OA
BRANCH  26  28
ATOM     28  O   UNL     1      -2.210  10.632  16.210  0.00  0.00    +0.000 OA
BRANCH  28  29
ATOM     29  C   UNL     1      -3.392  10.993  15.483  0.00  0.00    +0.000 C 
ATOM     30  C   UNL     1      -3.546  10.027  14.319  0.00  0.00    +0.000 C 
ENDBRANCH  28  29
ENDBRANCH  26  28
ENDBRANCH   2  26
BRANCH   4  31
ATOM     31  C   UNL     1       1.873  12.855  18.502  0.00  0.00    +0.000 C 
ATOM     32  N   UNL     1       2.979  13.079  18.239  0.00  0.00    +0.000 NA
ENDBRANCH   4  31
BRANCH   1  33
ATOM     33  C   UNL     1      -3.716  12.235  19.560  0.00  0.00    +0.000 C 
BRANCH  33  35
ATOM     34  C   UNL     1      -5.409  12.686  21.379  0.00  0.00    +0.000 C 
ATOM     35  C   UNL     1      -3.933  12.649  21.018  0.00  0.00    +0.000 C 
ENDBRANCH  33  35
ENDBRANCH   1  33
TORSDOF 12
ENDMDL
