MODEL 1
REMARK VINA RESULT:      -7.6      0.000      0.000
REMARK  Name = 
REMARK  13 active torsions:
REMARK  status: ('A' for Active; 'I' for Inactive)
REMARK    1  A    between atoms: C_1  and  S_2
REMARK    2  A    between atoms: S_2  and  C_3
REMARK    3  A    between atoms: C_7  and  C_8
REMARK    4  A    between atoms: N_10  and  C_11
REMARK    5  A    between atoms: C_11  and  C_12
REMARK    6  A    between atoms: C_12  and  C_13
REMARK    7  A    between atoms: C_14  and  C_15
REMARK    8  A    between atoms: C_17  and  C_18
REMARK    9  A    between atoms: C_18  and  C_19
REMARK   10  A    between atoms: C_18  and  C_20
REMARK   11  A    between atoms: C_18  and  C_21
REMARK   12  A    between atoms: C_23  and  C_24
REMARK   13  A    between atoms: C_26  and  C_27
REMARK                            x       y       z     vdW  Elec       q    Type
REMARK                         _______ _______ _______ _____ _____    ______ ____
ROOT
ATOM      1  C   UNL     1       1.230   8.633  20.633  0.00  0.00    +0.000 C 
ATOM      2  O   UNL     1       1.269   8.854  21.839  0.00  0.00    +0.000 OA
ATOM      3  N   UNL     1       0.701   9.519  19.728  0.00  0.00    +0.000 N 
ATOM      4  H   UNL     1       0.545   9.213  18.763  0.00  0.00    +0.000 HD
ENDROOT
BRANCH   1   9
ATOM      5  C   UNL     1       2.953   4.955  19.245  0.00  0.00    +0.000 A 
ATOM      6  N   UNL     1       3.091   6.076  18.475  0.00  0.00    +0.000 N 
ATOM      7  C   UNL     1       2.579   7.312  18.804  0.00  0.00    +0.000 A 
ATOM      8  O   UNL     1       2.768   8.291  18.091  0.00  0.00    +0.000 OA
ATOM      9  C   UNL     1       1.801   7.380  20.072  0.00  0.00    +0.000 A 
ATOM     10  C   UNL     1       1.625   6.251  20.789  0.00  0.00    +0.000 A 
ATOM     11  C   UNL     1       2.224   4.999  20.380  0.00  0.00    +0.000 A 
ATOM     12  H   UNL     1       3.623   6.011  17.615  0.00  0.00    +0.000 HD
BRANCH   5  14
ATOM     13  C   UNL     1       5.473   4.211  18.528  0.00  0.00    +0.000 C 
ATOM     14  S   UNL     1       3.781   3.568  18.630  0.00  0.00    +0.000 S 
ENDBRANCH   5  14
BRANCH  11  15
ATOM     15  C   UNL     1       2.162   3.794  21.303  0.00  0.00    +0.000 C 
ATOM     16  N   UNL     1       2.111   2.794  22.070  0.00  0.00    +0.000 NA
ENDBRANCH  11  15
ENDBRANCH   1   9
BRANCH   3  17
ATOM     17  C   UNL     1       0.087  10.735  20.216  0.00  0.00    +0.000 C 
BRANCH  17  18
ATOM     18  C   UNL     1      -0.398  11.669  19.111  0.00  0.00    +0.000 C 
BRANCH  18  19
ATOM     19  C   UNL     1      -1.915  11.663  19.038  0.00  0.00    +0.000 A 
ATOM     20  C   UNL     1      -2.604  10.884  18.086  0.00  0.00    +0.000 A 
ATOM     21  C   UNL     1      -1.967   9.973  17.070  0.00  0.00    +0.000 C 
ATOM     22  C   UNL     1      -4.008  10.959  18.014  0.00  0.00    +0.000 A 
ATOM     23  C   UNL     1      -4.775  11.773  18.853  0.00  0.00    +0.000 A 
ATOM     24  C   UNL     1      -4.075  12.549  19.788  0.00  0.00    +0.000 A 
ATOM     25  C   UNL     1      -2.667  12.510  19.893  0.00  0.00    +0.000 A 
ATOM     26  C   UNL     1      -2.007  13.389  20.928  0.00  0.00    +0.000 C 
BRANCH  23  27
ATOM     27  C   UNL     1      -6.310  11.797  18.768  0.00  0.00    +0.000 C 
ATOM     28  C   UNL     1      -6.837  12.443  17.463  0.00  0.00    +0.000 C 
ATOM     29  C   UNL     1      -6.853  10.354  18.816  0.00  0.00    +0.000 C 
ATOM     30  C   UNL     1      -6.906  12.603  19.941  0.00  0.00    +0.000 C 
ENDBRANCH  23  27
ENDBRANCH  18  19
ENDBRANCH  17  18
ENDBRANCH   3  17
TORSDOF 7
ENDMDL
MODEL 2
REMARK VINA RESULT:      -7.5      4.328      9.526
REMARK  Name = 
REMARK  13 active torsions:
REMARK  status: ('A' for Active; 'I' for Inactive)
REMARK    1  A    between atoms: C_1  and  S_2
REMARK    2  A    between atoms: S_2  and  C_3
REMARK    3  A    between atoms: C_7  and  C_8
REMARK    4  A    between atoms: N_10  and  C_11
REMARK    5  A    between atoms: C_11  and  C_12
REMARK    6  A    between atoms: C_12  and  C_13
REMARK    7  A    between atoms: C_14  and  C_15
REMARK    8  A    between atoms: C_17  and  C_18
REMARK    9  A    between atoms: C_18  and  C_19
REMARK   10  A    between atoms: C_18  and  C_20
REMARK   11  A    between atoms: C_18  and  C_21
REMARK   12  A    between atoms: C_23  and  C_24
REMARK   13  A    between atoms: C_26  and  C_27
REMARK                            x       y       z     vdW  Elec       q    Type
REMARK                         _______ _______ _______ _____ _____    ______ ____
ROOT
ATOM      1  C   UNL     1       0.170  10.026  22.443  0.00  0.00    +0.000 C 
ATOM      2  O   UNL     1       0.556   9.656  23.546  0.00  0.00    +0.000 OA
ATOM      3  N   UNL     1       0.546   9.409  21.275  0.00  0.00    +0.000 N 
ATOM      4  H   UNL     1       0.330   9.859  20.381  0.00  0.00    +0.000 HD
ENDROOT
BRANCH   1   9
ATOM      5  C   UNL     1      -2.746  13.158  22.120  0.00  0.00    +0.000 A 
ATOM      6  N   UNL     1      -1.727  13.114  21.210  0.00  0.00    +0.000 N 
ATOM      7  C   UNL     1      -0.727  12.167  21.210  0.00  0.00    +0.000 A 
ATOM      8  O   UNL     1       0.141  12.156  20.344  0.00  0.00    +0.000 OA
ATOM      9  C   UNL     1      -0.775  11.165  22.311  0.00  0.00    +0.000 A 
ATOM     10  C   UNL     1      -1.755  11.260  23.233  0.00  0.00    +0.000 A 
ATOM     11  C   UNL     1      -2.782  12.274  23.138  0.00  0.00    +0.000 A 
ATOM     12  H   UNL     1      -1.710  13.805  20.468  0.00  0.00    +0.000 HD
BRANCH   5  14
ATOM     13  C   UNL     1      -3.115  15.808  22.636  0.00  0.00    +0.000 C 
ATOM     14  S   UNL     1      -3.911  14.399  21.818  0.00  0.00    +0.000 S 
ENDBRANCH   5  14
BRANCH  11  15
ATOM     15  C   UNL     1      -3.970  12.237  24.085  0.00  0.00    +0.000 C 
ATOM     16  N   UNL     1      -4.956  12.206  24.871  0.00  0.00    +0.000 NA
ENDBRANCH  11  15
ENDBRANCH   1   9
BRANCH   3  17
ATOM     17  C   UNL     1       1.501   8.325  21.332  0.00  0.00    +0.000 C 
BRANCH  17  18
ATOM     18  C   UNL     1       1.110   7.110  20.494  0.00  0.00    +0.000 C 
BRANCH  18  19
ATOM     19  C   UNL     1       2.241   6.726  19.556  0.00  0.00    +0.000 A 
ATOM     20  C   UNL     1       2.588   7.530  18.451  0.00  0.00    +0.000 A 
ATOM     21  C   UNL     1       1.934   8.834  18.075  0.00  0.00    +0.000 C 
ATOM     22  C   UNL     1       3.601   7.101  17.573  0.00  0.00    +0.000 A 
ATOM     23  C   UNL     1       4.302   5.904  17.739  0.00  0.00    +0.000 A 
ATOM     24  C   UNL     1       3.940   5.110  18.837  0.00  0.00    +0.000 A 
ATOM     25  C   UNL     1       2.926   5.497  19.741  0.00  0.00    +0.000 A 
ATOM     26  C   UNL     1       2.605   4.570  20.888  0.00  0.00    +0.000 C 
BRANCH  23  27
ATOM     27  C   UNL     1       5.430   5.490  16.779  0.00  0.00    +0.000 C 
ATOM     28  C   UNL     1       5.415   3.979  16.440  0.00  0.00    +0.000 C 
ATOM     29  C   UNL     1       5.284   6.258  15.449  0.00  0.00    +0.000 C 
ATOM     30  C   UNL     1       6.809   5.798  17.395  0.00  0.00    +0.000 C 
ENDBRANCH  23  27
ENDBRANCH  18  19
ENDBRANCH  17  18
ENDBRANCH   3  17
TORSDOF 7
ENDMDL
MODEL 3
REMARK VINA RESULT:      -7.5      0.689      2.016
REMARK  Name = 
REMARK  13 active torsions:
REMARK  status: ('A' for Active; 'I' for Inactive)
REMARK    1  A    between atoms: C_1  and  S_2
REMARK    2  A    between atoms: S_2  and  C_3
REMARK    3  A    between atoms: C_7  and  C_8
REMARK    4  A    between atoms: N_10  and  C_11
REMARK    5  A    between atoms: C_11  and  C_12
REMARK    6  A    between atoms: C_12  and  C_13
REMARK    7  A    between atoms: C_14  and  C_15
REMARK    8  A    between atoms: C_17  and  C_18
REMARK    9  A    between atoms: C_18  and  C_19
REMARK   10  A    between atoms: C_18  and  C_20
REMARK   11  A    between atoms: C_18  and  C_21
REMARK   12  A    between atoms: C_23  and  C_24
REMARK   13  A    between atoms: C_26  and  C_27
REMARK                            x       y       z     vdW  Elec       q    Type
REMARK                         _______ _______ _______ _____ _____    ______ ____
ROOT
ATOM      1  C   UNL     1       1.325   8.427  20.497  0.00  0.00    +0.000 C 
ATOM      2  O   UNL     1       1.351   8.663  21.699  0.00  0.00    +0.000 OA
ATOM      3  N   UNL     1       0.789   9.294  19.577  0.00  0.00    +0.000 N 
ATOM      4  H   UNL     1       0.644   8.974  18.615  0.00  0.00    +0.000 HD
ENDROOT
BRANCH   1   9
ATOM      5  C   UNL     1       3.120   4.763  19.164  0.00  0.00    +0.000 A 
ATOM      6  N   UNL     1       3.209   5.867  18.362  0.00  0.00    +0.000 N 
ATOM      7  C   UNL     1       2.670   7.096  18.671  0.00  0.00    +0.000 A 
ATOM      8  O   UNL     1       2.815   8.061  17.929  0.00  0.00    +0.000 OA
ATOM      9  C   UNL     1       1.918   7.176  19.954  0.00  0.00    +0.000 A 
ATOM     10  C   UNL     1       1.791   6.061  20.704  0.00  0.00    +0.000 A 
ATOM     11  C   UNL     1       2.416   4.816  20.313  0.00  0.00    +0.000 A 
ATOM     12  H   UNL     1       3.724   5.794  17.492  0.00  0.00    +0.000 HD
BRANCH   5  14
ATOM     13  C   UNL     1       2.629   2.494  17.738  0.00  0.00    +0.000 C 
ATOM     14  S   UNL     1       3.974   3.384  18.565  0.00  0.00    +0.000 S 
ENDBRANCH   5  14
BRANCH  11  15
ATOM     15  C   UNL     1       2.409   3.635  21.269  0.00  0.00    +0.000 C 
ATOM     16  N   UNL     1       2.403   2.654  22.062  0.00  0.00    +0.000 NA
ENDBRANCH  11  15
ENDBRANCH   1   9
BRANCH   3  17
ATOM     17  C   UNL     1       0.154  10.506  20.046  0.00  0.00    +0.000 C 
BRANCH  17  18
ATOM     18  C   UNL     1      -0.272  11.454  18.927  0.00  0.00    +0.000 C 
BRANCH  18  19
ATOM     19  C   UNL     1      -1.775  11.670  18.958  0.00  0.00    +0.000 A 
ATOM     20  C   UNL     1      -2.374  12.545  19.887  0.00  0.00    +0.000 A 
ATOM     21  C   UNL     1      -1.644  13.368  20.916  0.00  0.00    +0.000 C 
ATOM     22  C   UNL     1      -3.777  12.665  19.922  0.00  0.00    +0.000 A 
ATOM     23  C   UNL     1      -4.626  11.959  19.066  0.00  0.00    +0.000 A 
ATOM     24  C   UNL     1      -4.017  11.085  18.154  0.00  0.00    +0.000 A 
ATOM     25  C   UNL     1      -2.614  10.929  18.087  0.00  0.00    +0.000 A 
ATOM     26  C   UNL     1      -2.055   9.958  17.075  0.00  0.00    +0.000 C 
BRANCH  23  27
ATOM     27  C   UNL     1      -6.152  12.148  19.109  0.00  0.00    +0.000 C 
ATOM     28  C   UNL     1      -6.877  11.050  19.924  0.00  0.00    +0.000 C 
ATOM     29  C   UNL     1      -6.487  13.502  19.766  0.00  0.00    +0.000 C 
ATOM     30  C   UNL     1      -6.744  12.114  17.684  0.00  0.00    +0.000 C 
ENDBRANCH  23  27
ENDBRANCH  18  19
ENDBRANCH  17  18
ENDBRANCH   3  17
TORSDOF 7
ENDMDL
MODEL 4
REMARK VINA RESULT:      -7.5      2.733      4.073
REMARK  Name = 
REMARK  13 active torsions:
REMARK  status: ('A' for Active; 'I' for Inactive)
REMARK    1  A    between atoms: C_1  and  S_2
REMARK    2  A    between atoms: S_2  and  C_3
REMARK    3  A    between atoms: C_7  and  C_8
REMARK    4  A    between atoms: N_10  and  C_11
REMARK    5  A    between atoms: C_11  and  C_12
REMARK    6  A    between atoms: C_12  and  C_13
REMARK    7  A    between atoms: C_14  and  C_15
REMARK    8  A    between atoms: C_17  and  C_18
REMARK    9  A    between atoms: C_18  and  C_19
REMARK   10  A    between atoms: C_18  and  C_20
REMARK   11  A    between atoms: C_18  and  C_21
REMARK   12  A    between atoms: C_23  and  C_24
REMARK   13  A    between atoms: C_26  and  C_27
REMARK                            x       y       z     vdW  Elec       q    Type
REMARK                         _______ _______ _______ _____ _____    ______ ____
ROOT
ATOM      1  C   UNL     1       1.926   8.652  18.553  0.00  0.00    +0.000 C 
ATOM      2  O   UNL     1       1.978   9.248  17.483  0.00  0.00    +0.000 OA
ATOM      3  N   UNL     1       1.255   9.139  19.647  0.00  0.00    +0.000 N 
ATOM      4  H   UNL     1       1.384   8.683  20.555  0.00  0.00    +0.000 HD
ENDROOT
BRANCH   1   9
ATOM      5  C   UNL     1       3.753   4.774  18.771  0.00  0.00    +0.000 A 
ATOM      6  N   UNL     1       2.926   5.168  19.786  0.00  0.00    +0.000 N 
ATOM      7  C   UNL     1       2.287   6.387  19.838  0.00  0.00    +0.000 A 
ATOM      8  O   UNL     1       1.525   6.670  20.756  0.00  0.00    +0.000 OA
ATOM      9  C   UNL     1       2.570   7.322  18.714  0.00  0.00    +0.000 A 
ATOM     10  C   UNL     1       3.435   6.939  17.752  0.00  0.00    +0.000 A 
ATOM     11  C   UNL     1       4.040   5.624  17.764  0.00  0.00    +0.000 A 
ATOM     12  H   UNL     1       2.745   4.519  20.543  0.00  0.00    +0.000 HD
BRANCH   5  14
ATOM     13  C   UNL     1       2.846   2.221  18.489  0.00  0.00    +0.000 C 
ATOM     14  S   UNL     1       4.338   3.154  18.924  0.00  0.00    +0.000 S 
ENDBRANCH   5  14
BRANCH  11  15
ATOM     15  C   UNL     1       4.860   5.159  16.572  0.00  0.00    +0.000 C 
ATOM     16  N   UNL     1       5.540   4.773  15.583  0.00  0.00    +0.000 NA
ENDBRANCH  11  15
ENDBRANCH   1   9
BRANCH   3  17
ATOM     17  C   UNL     1       0.647  10.449  19.569  0.00  0.00    +0.000 C 
BRANCH  17  18
ATOM     18  C   UNL     1       0.942  11.341  20.773  0.00  0.00    +0.000 C 
BRANCH  18  19
ATOM     19  C   UNL     1      -0.352  11.798  21.424  0.00  0.00    +0.000 A 
ATOM     20  C   UNL     1      -1.018  12.966  20.999  0.00  0.00    +0.000 A 
ATOM     21  C   UNL     1      -0.576  13.870  19.878  0.00  0.00    +0.000 C 
ATOM     22  C   UNL     1      -2.180  13.387  21.674  0.00  0.00    +0.000 A 
ATOM     23  C   UNL     1      -2.726  12.696  22.759  0.00  0.00    +0.000 A 
ATOM     24  C   UNL     1      -2.048  11.542  23.177  0.00  0.00    +0.000 A 
ATOM     25  C   UNL     1      -0.877  11.085  22.533  0.00  0.00    +0.000 A 
ATOM     26  C   UNL     1      -0.216   9.835  23.062  0.00  0.00    +0.000 C 
BRANCH  23  27
ATOM     27  C   UNL     1      -4.020  13.166  23.445  0.00  0.00    +0.000 C 
ATOM     28  C   UNL     1      -4.366  12.350  24.715  0.00  0.00    +0.000 C 
ATOM     29  C   UNL     1      -3.869  14.640  23.876  0.00  0.00    +0.000 C 
ATOM     30  C   UNL     1      -5.221  13.037  22.487  0.00  0.00    +0.000 C 
ENDBRANCH  23  27
ENDBRANCH  18  19
ENDBRANCH  17  18
ENDBRANCH   3  17
TORSDOF 7
ENDMDL
MODEL 5
REMARK VINA RESULT:      -7.4      2.956      4.178
REMARK  Name = 
REMARK  13 active torsions:
REMARK  status: ('A' for Active; 'I' for Inactive)
REMARK    1  A    between atoms: C_1  and  S_2
REMARK    2  A    between atoms: S_2  and  C_3
REMARK    3  A    between atoms: C_7  and  C_8
REMARK    4  A    between atoms: N_10  and  C_11
REMARK    5  A    between atoms: C_11  and  C_12
REMARK    6  A    between atoms: C_12  and  C_13
REMARK    7  A    between atoms: C_14  and  C_15
REMARK    8  A    between atoms: C_17  and  C_18
REMARK    9  A    between atoms: C_18  and  C_19
REMARK   10  A    between atoms: C_18  and  C_20
REMARK   11  A    between atoms: C_18  and  C_21
REMARK   12  A    between atoms: C_23  and  C_24
REMARK   13  A    between atoms: C_26  and  C_27
REMARK                            x       y       z     vdW  Elec       q    Type
REMARK                         _______ _______ _______ _____ _____    ______ ____
ROOT
ATOM      1  C   UNL     1       1.776   8.971  18.500  0.00  0.00    +0.000 C 
ATOM      2  O   UNL     1       1.838   9.722  17.533  0.00  0.00    +0.000 OA
ATOM      3  N   UNL     1       0.940   9.192  19.566  0.00  0.00    +0.000 N 
ATOM      4  H   UNL     1       1.050   8.628  20.413  0.00  0.00    +0.000 HD
ENDROOT
BRANCH   1   9
ATOM      5  C   UNL     1       4.108   5.368  18.405  0.00  0.00    +0.000 A 
ATOM      6  N   UNL     1       3.266   5.578  19.462  0.00  0.00    +0.000 N 
ATOM      7  C   UNL     1       2.472   6.693  19.613  0.00  0.00    +0.000 A 
ATOM      8  O   UNL     1       1.707   6.808  20.565  0.00  0.00    +0.000 OA
ATOM      9  C   UNL     1       2.596   7.732  18.553  0.00  0.00    +0.000 A 
ATOM     10  C   UNL     1       3.475   7.534  17.549  0.00  0.00    +0.000 A 
ATOM     11  C   UNL     1       4.249   6.316  17.456  0.00  0.00    +0.000 A 
ATOM     12  H   UNL     1       3.195   4.860  20.175  0.00  0.00    +0.000 HD
BRANCH   5  14
ATOM     13  C   UNL     1       3.597   2.768  17.775  0.00  0.00    +0.000 C 
ATOM     14  S   UNL     1       4.907   3.835  18.431  0.00  0.00    +0.000 S 
ENDBRANCH   5  14
BRANCH  11  15
ATOM     15  C   UNL     1       5.088   6.047  16.218  0.00  0.00    +0.000 C 
ATOM     16  N   UNL     1       5.785   5.823  15.190  0.00  0.00    +0.000 NA
ENDBRANCH  11  15
ENDBRANCH   1   9
BRANCH   3  17
ATOM     17  C   UNL     1       0.151  10.405  19.596  0.00  0.00    +0.000 C 
BRANCH  17  18
ATOM     18  C   UNL     1       0.602  11.410  20.653  0.00  0.00    +0.000 C 
BRANCH  18  19
ATOM     19  C   UNL     1      -0.593  11.931  21.433  0.00  0.00    +0.000 A 
ATOM     20  C   UNL     1      -1.236  13.135  21.079  0.00  0.00    +0.000 A 
ATOM     21  C   UNL     1      -0.865  14.020  19.918  0.00  0.00    +0.000 C 
ATOM     22  C   UNL     1      -2.299  13.612  21.870  0.00  0.00    +0.000 A 
ATOM     23  C   UNL     1      -2.767  12.945  23.005  0.00  0.00    +0.000 A 
ATOM     24  C   UNL     1      -2.111  11.754  23.351  0.00  0.00    +0.000 A 
ATOM     25  C   UNL     1      -1.038  11.241  22.590  0.00  0.00    +0.000 A 
ATOM     26  C   UNL     1      -0.393   9.955  23.048  0.00  0.00    +0.000 C 
BRANCH  23  27
ATOM     27  C   UNL     1      -3.957  13.479  23.820  0.00  0.00    +0.000 C 
ATOM     28  C   UNL     1      -5.122  13.984  22.935  0.00  0.00    +0.000 C 
ATOM     29  C   UNL     1      -4.517  12.353  24.714  0.00  0.00    +0.000 C 
ATOM     30  C   UNL     1      -3.520  14.662  24.707  0.00  0.00    +0.000 C 
ENDBRANCH  23  27
ENDBRANCH  18  19
ENDBRANCH  17  18
ENDBRANCH   3  17
TORSDOF 7
ENDMDL
MODEL 6
REMARK VINA RESULT:      -7.4      0.596      1.070
REMARK  Name = 
REMARK  13 active torsions:
REMARK  status: ('A' for Active; 'I' for Inactive)
REMARK    1  A    between atoms: C_1  and  S_2
REMARK    2  A    between atoms: S_2  and  C_3
REMARK    3  A    between atoms: C_7  and  C_8
REMARK    4  A    between atoms: N_10  and  C_11
REMARK    5  A    between atoms: C_11  and  C_12
REMARK    6  A    between atoms: C_12  and  C_13
REMARK    7  A    between atoms: C_14  and  C_15
REMARK    8  A    between atoms: C_17  and  C_18
REMARK    9  A    between atoms: C_18  and  C_19
REMARK   10  A    between atoms: C_18  and  C_20
REMARK   11  A    between atoms: C_18  and  C_21
REMARK   12  A    between atoms: C_23  and  C_24
REMARK   13  A    between atoms: C_26  and  C_27
REMARK                            x       y       z     vdW  Elec       q    Type
REMARK                         _______ _______ _______ _____ _____    ______ ____
ROOT
ATOM      1  C   UNL     1       1.350   8.500  20.564  0.00  0.00    +0.000 C 
ATOM      2  O   UNL     1       1.350   8.702  21.773  0.00  0.00    +0.000 OA
ATOM      3  N   UNL     1       0.889   9.419  19.654  0.00  0.00    +0.000 N 
ATOM      4  H   UNL     1       0.759   9.134  18.679  0.00  0.00    +0.000 HD
ENDROOT
BRANCH   1   9
ATOM      5  C   UNL     1       3.001   4.788  19.181  0.00  0.00    +0.000 A 
ATOM      6  N   UNL     1       3.157   5.904  18.407  0.00  0.00    +0.000 N 
ATOM      7  C   UNL     1       2.669   7.150  18.734  0.00  0.00    +0.000 A 
ATOM      8  O   UNL     1       2.874   8.123  18.018  0.00  0.00    +0.000 OA
ATOM      9  C   UNL     1       1.896   7.236  20.004  0.00  0.00    +0.000 A 
ATOM     10  C   UNL     1       1.702   6.112  20.725  0.00  0.00    +0.000 A 
ATOM     11  C   UNL     1       2.277   4.848  20.318  0.00  0.00    +0.000 A 
ATOM     12  H   UNL     1       3.686   5.826  17.546  0.00  0.00    +0.000 HD
BRANCH   5  14
ATOM     13  C   UNL     1       4.437   4.026  16.995  0.00  0.00    +0.000 C 
ATOM     14  S   UNL     1       3.802   3.384  18.567  0.00  0.00    +0.000 S 
ENDBRANCH   5  14
BRANCH  11  15
ATOM     15  C   UNL     1       2.195   3.647  21.245  0.00  0.00    +0.000 C 
ATOM     16  N   UNL     1       2.128   2.651  22.015  0.00  0.00    +0.000 NA
ENDBRANCH  11  15
ENDBRANCH   1   9
BRANCH   3  17
ATOM     17  C   UNL     1       0.301  10.649  20.137  0.00  0.00    +0.000 C 
BRANCH  17  18
ATOM     18  C   UNL     1      -0.203  11.571  19.030  0.00  0.00    +0.000 C 
BRANCH  18  19
ATOM     19  C   UNL     1      -1.715  11.700  19.095  0.00  0.00    +0.000 A 
ATOM     20  C   UNL     1      -2.555  10.997  18.207  0.00  0.00    +0.000 A 
ATOM     21  C   UNL     1      -2.095  10.044  17.134  0.00  0.00    +0.000 C 
ATOM     22  C   UNL     1      -3.947  11.198  18.262  0.00  0.00    +0.000 A 
ATOM     23  C   UNL     1      -4.559  12.066  19.170  0.00  0.00    +0.000 A 
ATOM     24  C   UNL     1      -3.712  12.766  20.041  0.00  0.00    +0.000 A 
ATOM     25  C   UNL     1      -2.309  12.600  20.018  0.00  0.00    +0.000 A 
ATOM     26  C   UNL     1      -1.482  13.405  20.991  0.00  0.00    +0.000 C 
BRANCH  23  27
ATOM     27  C   UNL     1      -6.088  12.228  19.225  0.00  0.00    +0.000 C 
ATOM     28  C   UNL     1      -6.706  11.709  20.546  0.00  0.00    +0.000 C 
ATOM     29  C   UNL     1      -6.453  13.722  19.105  0.00  0.00    +0.000 C 
ATOM     30  C   UNL     1      -6.758  11.446  18.077  0.00  0.00    +0.000 C 
ENDBRANCH  23  27
ENDBRANCH  18  19
ENDBRANCH  17  18
ENDBRANCH   3  17
TORSDOF 7
ENDMDL
MODEL 7
REMARK VINA RESULT:      -7.4      2.711      3.933
REMARK  Name = 
REMARK  13 active torsions:
REMARK  status: ('A' for Active; 'I' for Inactive)
REMARK    1  A    between atoms: C_1  and  S_2
REMARK    2  A    between atoms: S_2  and  C_3
REMARK    3  A    between atoms: C_7  and  C_8
REMARK    4  A    between atoms: N_10  and  C_11
REMARK    5  A    between atoms: C_11  and  C_12
REMARK    6  A    between atoms: C_12  and  C_13
REMARK    7  A    between atoms: C_14  and  C_15
REMARK    8  A    between atoms: C_17  and  C_18
REMARK    9  A    between atoms: C_18  and  C_19
REMARK   10  A    between atoms: C_18  and  C_20
REMARK   11  A    between atoms: C_18  and  C_21
REMARK   12  A    between atoms: C_23  and  C_24
REMARK   13  A    between atoms: C_26  and  C_27
REMARK                            x       y       z     vdW  Elec       q    Type
REMARK                         _______ _______ _______ _____ _____    ______ ____
ROOT
ATOM      1  C   UNL     1       1.899   8.562  18.553  0.00  0.00    +0.000 C 
ATOM      2  O   UNL     1       2.081   9.184  17.512  0.00  0.00    +0.000 OA
ATOM      3  N   UNL     1       1.086   9.016  19.562  0.00  0.00    +0.000 N 
ATOM      4  H   UNL     1       1.102   8.541  20.469  0.00  0.00    +0.000 HD
ENDROOT
BRANCH   1   9
ATOM      5  C   UNL     1       3.704   4.686  18.925  0.00  0.00    +0.000 A 
ATOM      6  N   UNL     1       2.871   5.120  19.919  0.00  0.00    +0.000 N 
ATOM      7  C   UNL     1       2.238   6.344  19.922  0.00  0.00    +0.000 A 
ATOM      8  O   UNL     1       1.472   6.663  20.824  0.00  0.00    +0.000 OA
ATOM      9  C   UNL     1       2.535   7.236  18.767  0.00  0.00    +0.000 A 
ATOM     10  C   UNL     1       3.405   6.813  17.826  0.00  0.00    +0.000 A 
ATOM     11  C   UNL     1       4.002   5.498  17.890  0.00  0.00    +0.000 A 
ATOM     12  H   UNL     1       2.681   4.500  20.698  0.00  0.00    +0.000 HD
BRANCH   5  14
ATOM     13  C   UNL     1       2.813   2.127  18.641  0.00  0.00    +0.000 C 
ATOM     14  S   UNL     1       4.279   3.069  19.140  0.00  0.00    +0.000 S 
ENDBRANCH   5  14
BRANCH  11  15
ATOM     15  C   UNL     1       4.828   4.985  16.722  0.00  0.00    +0.000 C 
ATOM     16  N   UNL     1       5.514   4.560  15.752  0.00  0.00    +0.000 NA
ENDBRANCH  11  15
ENDBRANCH   1   9
BRANCH   3  17
ATOM     17  C   UNL     1       0.476  10.321  19.435  0.00  0.00    +0.000 C 
BRANCH  17  18
ATOM     18  C   UNL     1       0.902  11.312  20.516  0.00  0.00    +0.000 C 
BRANCH  18  19
ATOM     19  C   UNL     1      -0.308  11.809  21.287  0.00  0.00    +0.000 A 
ATOM     20  C   UNL     1      -0.792  11.124  22.420  0.00  0.00    +0.000 A 
ATOM     21  C   UNL     1      -0.193   9.875  23.014  0.00  0.00    +0.000 C 
ATOM     22  C   UNL     1      -1.955  11.585  23.066  0.00  0.00    +0.000 A 
ATOM     23  C   UNL     1      -2.669  12.710  22.644  0.00  0.00    +0.000 A 
ATOM     24  C   UNL     1      -2.182  13.376  21.510  0.00  0.00    +0.000 A 
ATOM     25  C   UNL     1      -1.022  12.946  20.828  0.00  0.00    +0.000 A 
ATOM     26  C   UNL     1      -0.582  13.726  19.612  0.00  0.00    +0.000 C 
BRANCH  23  27
ATOM     27  C   UNL     1      -3.914  13.205  23.400  0.00  0.00    +0.000 C 
ATOM     28  C   UNL     1      -5.183  13.252  22.515  0.00  0.00    +0.000 C 
ATOM     29  C   UNL     1      -4.213  12.257  24.579  0.00  0.00    +0.000 C 
ATOM     30  C   UNL     1      -3.689  14.632  23.940  0.00  0.00    +0.000 C 
ENDBRANCH  23  27
ENDBRANCH  18  19
ENDBRANCH  17  18
ENDBRANCH   3  17
TORSDOF 7
ENDMDL
MODEL 8
REMARK VINA RESULT:      -7.3      2.670      3.549
REMARK  Name = 
REMARK  13 active torsions:
REMARK  status: ('A' for Active; 'I' for Inactive)
REMARK    1  A    between atoms: C_1  and  S_2
REMARK    2  A    between atoms: S_2  and  C_3
REMARK    3  A    between atoms: C_7  and  C_8
REMARK    4  A    between atoms: N_10  and  C_11
REMARK    5  A    between atoms: C_11  and  C_12
REMARK    6  A    between atoms: C_12  and  C_13
REMARK    7  A    between atoms: C_14  and  C_15
REMARK    8  A    between atoms: C_17  and  C_18
REMARK    9  A    between atoms: C_18  and  C_19
REMARK   10  A    between atoms: C_18  and  C_20
REMARK   11  A    between atoms: C_18  and  C_21
REMARK   12  A    between atoms: C_23  and  C_24
REMARK   13  A    between atoms: C_26  and  C_27
REMARK                            x       y       z     vdW  Elec       q    Type
REMARK                         _______ _______ _______ _____ _____    ______ ____
ROOT
ATOM      1  C   UNL     1       2.061   8.271  18.571  0.00  0.00    +0.000 C 
ATOM      2  O   UNL     1       2.139   8.905  17.524  0.00  0.00    +0.000 OA
ATOM      3  N   UNL     1       1.410   8.744  19.683  0.00  0.00    +0.000 N 
ATOM      4  H   UNL     1       1.519   8.249  20.573  0.00  0.00    +0.000 HD
ENDROOT
BRANCH   1   9
ATOM      5  C   UNL     1       3.751   4.367  19.141  0.00  0.00    +0.000 A 
ATOM      6  N   UNL     1       4.244   5.156  18.139  0.00  0.00    +0.000 N 
ATOM      7  C   UNL     1       3.784   6.421  17.849  0.00  0.00    +0.000 A 
ATOM      8  O   UNL     1       4.292   7.097  16.962  0.00  0.00    +0.000 OA
ATOM      9  C   UNL     1       2.650   6.911  18.681  0.00  0.00    +0.000 A 
ATOM     10  C   UNL     1       2.138   6.095  19.627  0.00  0.00    +0.000 A 
ATOM     11  C   UNL     1       2.705   4.789  19.881  0.00  0.00    +0.000 A 
ATOM     12  H   UNL     1       5.016   4.806  17.582  0.00  0.00    +0.000 HD
BRANCH   5  14
ATOM     13  C   UNL     1       3.519   1.765  18.370  0.00  0.00    +0.000 C 
ATOM     14  S   UNL     1       4.587   2.866  19.336  0.00  0.00    +0.000 S 
ENDBRANCH   5  14
BRANCH  11  15
ATOM     15  C   UNL     1       2.225   3.976  21.071  0.00  0.00    +0.000 C 
ATOM     16  N   UNL     1       1.827   3.301  22.060  0.00  0.00    +0.000 NA
ENDBRANCH  11  15
ENDBRANCH   1   9
BRANCH   3  17
ATOM     17  C   UNL     1       0.857  10.080  19.656  0.00  0.00    +0.000 C 
BRANCH  17  18
ATOM     18  C   UNL     1       1.143  10.894  20.915  0.00  0.00    +0.000 C 
BRANCH  18  19
ATOM     19  C   UNL     1      -0.148  11.451  21.490  0.00  0.00    +0.000 A 
ATOM     20  C   UNL     1      -0.739  12.623  20.976  0.00  0.00    +0.000 A 
ATOM     21  C   UNL     1      -0.214  13.438  19.822  0.00  0.00    +0.000 C 
ATOM     22  C   UNL     1      -1.900  13.138  21.582  0.00  0.00    +0.000 A 
ATOM     23  C   UNL     1      -2.518  12.539  22.683  0.00  0.00    +0.000 A 
ATOM     24  C   UNL     1      -1.914  11.380  23.191  0.00  0.00    +0.000 A 
ATOM     25  C   UNL     1      -0.746  10.830  22.617  0.00  0.00    +0.000 A 
ATOM     26  C   UNL     1      -0.168   9.583  23.241  0.00  0.00    +0.000 C 
BRANCH  23  27
ATOM     27  C   UNL     1      -3.809  13.111  23.293  0.00  0.00    +0.000 C 
ATOM     28  C   UNL     1      -4.221  12.411  24.611  0.00  0.00    +0.000 C 
ATOM     29  C   UNL     1      -3.610  14.607  23.613  0.00  0.00    +0.000 C 
ATOM     30  C   UNL     1      -4.990  12.953  22.313  0.00  0.00    +0.000 C 
ENDBRANCH  23  27
ENDBRANCH  18  19
ENDBRANCH  17  18
ENDBRANCH   3  17
TORSDOF 7
ENDMDL
MODEL 9
REMARK VINA RESULT:      -7.2      4.087      9.609
REMARK  Name = 
REMARK  13 active torsions:
REMARK  status: ('A' for Active; 'I' for Inactive)
REMARK    1  A    between atoms: C_1  and  S_2
REMARK    2  A    between atoms: S_2  and  C_3
REMARK    3  A    between atoms: C_7  and  C_8
REMARK    4  A    between atoms: N_10  and  C_11
REMARK    5  A    between atoms: C_11  and  C_12
REMARK    6  A    between atoms: C_12  and  C_13
REMARK    7  A    between atoms: C_14  and  C_15
REMARK    8  A    between atoms: C_17  and  C_18
REMARK    9  A    between atoms: C_18  and  C_19
REMARK   10  A    between atoms: C_18  and  C_20
REMARK   11  A    between atoms: C_18  and  C_21
REMARK   12  A    between atoms: C_23  and  C_24
REMARK   13  A    between atoms: C_26  and  C_27
REMARK                            x       y       z     vdW  Elec       q    Type
REMARK                         _______ _______ _______ _____ _____    ______ ____
ROOT
ATOM      1  C   UNL     1       0.618   9.745  21.989  0.00  0.00    +0.000 C 
ATOM      2  O   UNL     1       1.396   9.710  22.936  0.00  0.00    +0.000 OA
ATOM      3  N   UNL     1       0.551   8.755  21.040  0.00  0.00    +0.000 N 
ATOM      4  H   UNL     1       0.005   8.915  20.188  0.00  0.00    +0.000 HD
ENDROOT
BRANCH   1   9
ATOM      5  C   UNL     1      -2.334  12.841  21.633  0.00  0.00    +0.000 A 
ATOM      6  N   UNL     1      -1.399  12.709  20.644  0.00  0.00    +0.000 N 
ATOM      7  C   UNL     1      -0.398  11.763  20.644  0.00  0.00    +0.000 A 
ATOM      8  O   UNL     1       0.390  11.667  19.709  0.00  0.00    +0.000 OA
ATOM      9  C   UNL     1      -0.342  10.870  21.834  0.00  0.00    +0.000 A 
ATOM     10  C   UNL     1      -1.236  11.054  22.828  0.00  0.00    +0.000 A 
ATOM     11  C   UNL     1      -2.274  12.057  22.729  0.00  0.00    +0.000 A 
ATOM     12  H   UNL     1      -1.452  13.326  19.841  0.00  0.00    +0.000 HD
BRANCH   5  14
ATOM     13  C   UNL     1      -2.727  15.505  22.048  0.00  0.00    +0.000 C 
ATOM     14  S   UNL     1      -3.528  14.051  21.320  0.00  0.00    +0.000 S 
ENDBRANCH   5  14
BRANCH  11  15
ATOM     15  C   UNL     1      -3.373  12.113  23.777  0.00  0.00    +0.000 C 
ATOM     16  N   UNL     1      -4.285  12.159  24.647  0.00  0.00    +0.000 NA
ENDBRANCH  11  15
ENDBRANCH   1   9
BRANCH   3  17
ATOM     17  C   UNL     1       1.490   7.657  21.107  0.00  0.00    +0.000 C 
BRANCH  17  18
ATOM     18  C   UNL     1       1.341   6.644  19.975  0.00  0.00    +0.000 C 
BRANCH  18  19
ATOM     19  C   UNL     1       2.667   6.448  19.261  0.00  0.00    +0.000 A 
ATOM     20  C   UNL     1       3.085   7.315  18.231  0.00  0.00    +0.000 A 
ATOM     21  C   UNL     1       2.325   8.517  17.732  0.00  0.00    +0.000 C 
ATOM     22  C   UNL     1       4.292   7.057  17.553  0.00  0.00    +0.000 A 
ATOM     23  C   UNL     1       5.120   5.971  17.852  0.00  0.00    +0.000 A 
ATOM     24  C   UNL     1       4.687   5.112  18.872  0.00  0.00    +0.000 A 
ATOM     25  C   UNL     1       3.481   5.329  19.575  0.00  0.00    +0.000 A 
ATOM     26  C   UNL     1       3.098   4.342  20.652  0.00  0.00    +0.000 C 
BRANCH  23  27
ATOM     27  C   UNL     1       6.450   5.745  17.115  0.00  0.00    +0.000 C 
ATOM     28  C   UNL     1       7.369   6.991  17.124  0.00  0.00    +0.000 C 
ATOM     29  C   UNL     1       7.228   4.599  17.793  0.00  0.00    +0.000 C 
ATOM     30  C   UNL     1       6.198   5.384  15.637  0.00  0.00    +0.000 C 
ENDBRANCH  23  27
ENDBRANCH  18  19
ENDBRANCH  17  18
ENDBRANCH   3  17
TORSDOF 7
ENDMDL
