MODEL 1
REMARK VINA RESULT:      -7.4      0.000      0.000
REMARK  Name = 
REMARK  4 active torsions:
REMARK  status: ('A' for Active; 'I' for Inactive)
REMARK    1  A    between atoms: C_1  and  S_2
REMARK    2  A    between atoms: S_2  and  C_3
REMARK    3  A    between atoms: N_5  and  C_6
REMARK    4  A    between atoms: C_15  and  C_16
REMARK                            x       y       z     vdW  Elec       q    Type
REMARK                         _______ _______ _______ _____ _____    ______ ____
ROOT
ATOM      1  C   UNL     1       3.300   3.687  20.063  0.00  0.00    +0.000 A 
ATOM      2  N   UNL     1       4.062   3.479  18.992  0.00  0.00    +0.000 NA
ATOM      3  N   UNL     1       4.161   4.699  18.409  0.00  0.00    +0.000 N 
ATOM      4  C   UNL     1       3.336   5.640  19.013  0.00  0.00    +0.000 A 
ATOM      5  C   UNL     1       2.978   6.958  18.670  0.00  0.00    +0.000 A 
ATOM      6  C   UNL     1       2.067   7.662  19.475  0.00  0.00    +0.000 A 
ATOM      7  C   UNL     1       1.531   7.020  20.599  0.00  0.00    +0.000 A 
ATOM      8  C   UNL     1       1.878   5.703  20.936  0.00  0.00    +0.000 A 
ATOM      9  C   UNL     1       2.776   4.997  20.115  0.00  0.00    +0.000 A 
ENDROOT
BRANCH   3  10
ATOM     10  C   UNL     1       5.022   4.870  17.291  0.00  0.00    +0.000 A 
ATOM     11  C   UNL     1       6.211   5.598  17.449  0.00  0.00    +0.000 A 
ATOM     12  C   UNL     1       7.092   5.748  16.376  0.00  0.00    +0.000 A 
ATOM     13  C   UNL     1       6.771   5.202  15.132  0.00  0.00    +0.000 A 
ATOM     14  C   UNL     1       5.571   4.518  14.976  0.00  0.00    +0.000 A 
ATOM     15  F   UNL     1       5.250   4.020  13.773  0.00  0.00    +0.000 F 
ATOM     16  C   UNL     1       4.695   4.341  16.039  0.00  0.00    +0.000 A 
ENDBRANCH   3  10
BRANCH   6  17
ATOM     17  C   UNL     1       1.650   9.032  19.090  0.00  0.00    +0.000 C 
ATOM     18  C   UNL     1       2.282   9.736  18.129  0.00  0.00    +0.000 C 
ATOM     19  C   UNL     1       1.902  11.133  17.732  0.00  0.00    +0.000 C 
ATOM     20  N   UNL     1       0.616  11.589  18.258  0.00  0.00    +0.000 NA
ATOM     21  C   UNL     1       0.465  11.189  19.661  0.00  0.00    +0.000 C 
ATOM     22  C   UNL     1       0.477   9.662  19.812  0.00  0.00    +0.000 C 
ATOM     23  H   UNL     1      -0.123  11.146  17.712  0.00  0.00    +0.000 HD
ENDBRANCH   6  17
BRANCH   1  25
ATOM     24  C   UNL     1       1.175   2.574  21.405  0.00  0.00    +0.000 C 
ATOM     25  S   UNL     1       2.965   2.422  21.224  0.00  0.00    +0.000 S 
ENDBRANCH   1  25
TORSDOF 3
ENDMDL
MODEL 2
REMARK VINA RESULT:      -7.3      2.692      4.809
REMARK  Name = 
REMARK  4 active torsions:
REMARK  status: ('A' for Active; 'I' for Inactive)
REMARK    1  A    between atoms: C_1  and  S_2
REMARK    2  A    between atoms: S_2  and  C_3
REMARK    3  A    between atoms: N_5  and  C_6
REMARK    4  A    between atoms: C_15  and  C_16
REMARK                            x       y       z     vdW  Elec       q    Type
REMARK                         _______ _______ _______ _____ _____    ______ ____
ROOT
ATOM      1  C   UNL     1       4.108   6.496  17.213  0.00  0.00    +0.000 A 
ATOM      2  N   UNL     1       4.265   5.383  17.925  0.00  0.00    +0.000 NA
ATOM      3  N   UNL     1       3.379   5.508  18.944  0.00  0.00    +0.000 N 
ATOM      4  C   UNL     1       2.783   6.763  18.971  0.00  0.00    +0.000 A 
ATOM      5  C   UNL     1       1.949   7.405  19.907  0.00  0.00    +0.000 A 
ATOM      6  C   UNL     1       1.528   8.724  19.672  0.00  0.00    +0.000 A 
ATOM      7  C   UNL     1       1.964   9.369  18.506  0.00  0.00    +0.000 A 
ATOM      8  C   UNL     1       2.803   8.735  17.577  0.00  0.00    +0.000 A 
ATOM      9  C   UNL     1       3.236   7.420  17.829  0.00  0.00    +0.000 A 
ENDROOT
BRANCH   3  10
ATOM     10  C   UNL     1       3.188   4.422  19.840  0.00  0.00    +0.000 A 
ATOM     11  C   UNL     1       2.023   4.377  20.621  0.00  0.00    +0.000 A 
ATOM     12  C   UNL     1       1.794   3.301  21.482  0.00  0.00    +0.000 A 
ATOM     13  C   UNL     1       2.745   2.286  21.592  0.00  0.00    +0.000 A 
ATOM     14  C   UNL     1       3.914   2.360  20.844  0.00  0.00    +0.000 A 
ATOM     15  F   UNL     1       4.841   1.399  20.974  0.00  0.00    +0.000 F 
ATOM     16  C   UNL     1       4.147   3.413  19.968  0.00  0.00    +0.000 A 
ENDBRANCH   3  10
BRANCH   6  17
ATOM     17  C   UNL     1       0.692   9.421  20.678  0.00  0.00    +0.000 C 
ATOM     18  C   UNL     1       0.289   8.826  21.819  0.00  0.00    +0.000 C 
ATOM     19  C   UNL     1      -0.579   9.492  22.847  0.00  0.00    +0.000 C 
ATOM     20  N   UNL     1      -0.733  10.936  22.672  0.00  0.00    +0.000 NA
ATOM     21  C   UNL     1      -0.940  11.262  21.257  0.00  0.00    +0.000 C 
ATOM     22  C   UNL     1       0.269  10.851  20.406  0.00  0.00    +0.000 C 
ATOM     23  H   UNL     1       0.126  11.386  22.988  0.00  0.00    +0.000 HD
ENDBRANCH   6  17
BRANCH   1  25
ATOM     24  C   UNL     1       5.424   5.077  15.261  0.00  0.00    +0.000 C 
ATOM     25  S   UNL     1       4.961   6.764  15.710  0.00  0.00    +0.000 S 
ENDBRANCH   1  25
TORSDOF 3
ENDMDL
MODEL 3
REMARK VINA RESULT:      -7.3      2.739      4.873
REMARK  Name = 
REMARK  4 active torsions:
REMARK  status: ('A' for Active; 'I' for Inactive)
REMARK    1  A    between atoms: C_1  and  S_2
REMARK    2  A    between atoms: S_2  and  C_3
REMARK    3  A    between atoms: N_5  and  C_6
REMARK    4  A    between atoms: C_15  and  C_16
REMARK                            x       y       z     vdW  Elec       q    Type
REMARK                         _______ _______ _______ _____ _____    ______ ____
ROOT
ATOM      1  C   UNL     1       3.910   6.539  17.279  0.00  0.00    +0.000 A 
ATOM      2  N   UNL     1       3.998   5.403  17.966  0.00  0.00    +0.000 NA
ATOM      3  N   UNL     1       3.112   5.555  18.981  0.00  0.00    +0.000 N 
ATOM      4  C   UNL     1       2.586   6.841  19.031  0.00  0.00    +0.000 A 
ATOM      5  C   UNL     1       1.780   7.507  19.975  0.00  0.00    +0.000 A 
ATOM      6  C   UNL     1       1.436   8.853  19.766  0.00  0.00    +0.000 A 
ATOM      7  C   UNL     1       1.916   9.497  18.618  0.00  0.00    +0.000 A 
ATOM      8  C   UNL     1       2.727   8.838  17.682  0.00  0.00    +0.000 A 
ATOM      9  C   UNL     1       3.085   7.496  17.908  0.00  0.00    +0.000 A 
ENDROOT
BRANCH   3  10
ATOM     10  C   UNL     1       2.853   4.462  19.851  0.00  0.00    +0.000 A 
ATOM     11  C   UNL     1       1.582   4.338  20.433  0.00  0.00    +0.000 A 
ATOM     12  C   UNL     1       1.291   3.252  21.262  0.00  0.00    +0.000 A 
ATOM     13  C   UNL     1       2.279   2.307  21.541  0.00  0.00    +0.000 A 
ATOM     14  C   UNL     1       3.547   2.462  20.993  0.00  0.00    +0.000 A 
ATOM     15  F   UNL     1       4.504   1.569  21.286  0.00  0.00    +0.000 F 
ATOM     16  C   UNL     1       3.846   3.524  20.149  0.00  0.00    +0.000 A 
ENDBRANCH   3  10
BRANCH   6  17
ATOM     17  C   UNL     1       0.630   9.573  20.781  0.00  0.00    +0.000 C 
ATOM     18  C   UNL     1       0.493  10.914  20.776  0.00  0.00    +0.000 C 
ATOM     19  C   UNL     1      -0.293  11.677  21.803  0.00  0.00    +0.000 C 
ATOM     20  N   UNL     1      -1.144  10.850  22.658  0.00  0.00    +0.000 NA
ATOM     21  C   UNL     1      -0.430   9.638  23.074  0.00  0.00    +0.000 C 
ATOM     22  C   UNL     1      -0.054   8.768  21.868  0.00  0.00    +0.000 C 
ATOM     23  H   UNL     1      -1.964  10.575  22.116  0.00  0.00    +0.000 HD
ENDBRANCH   6  17
BRANCH   1  25
ATOM     24  C   UNL     1       5.909   5.374  15.794  0.00  0.00    +0.000 C 
ATOM     25  S   UNL     1       4.790   6.792  15.788  0.00  0.00    +0.000 S 
ENDBRANCH   1  25
TORSDOF 3
ENDMDL
MODEL 4
REMARK VINA RESULT:      -7.3      2.898      4.856
REMARK  Name = 
REMARK  4 active torsions:
REMARK  status: ('A' for Active; 'I' for Inactive)
REMARK    1  A    between atoms: C_1  and  S_2
REMARK    2  A    between atoms: S_2  and  C_3
REMARK    3  A    between atoms: N_5  and  C_6
REMARK    4  A    between atoms: C_15  and  C_16
REMARK                            x       y       z     vdW  Elec       q    Type
REMARK                         _______ _______ _______ _____ _____    ______ ____
ROOT
ATOM      1  C   UNL     1       4.333   6.168  17.116  0.00  0.00    +0.000 A 
ATOM      2  N   UNL     1       4.470   5.058  17.837  0.00  0.00    +0.000 NA
ATOM      3  N   UNL     1       3.571   5.198  18.842  0.00  0.00    +0.000 N 
ATOM      4  C   UNL     1       2.984   6.459  18.852  0.00  0.00    +0.000 A 
ATOM      5  C   UNL     1       2.142   7.114  19.771  0.00  0.00    +0.000 A 
ATOM      6  C   UNL     1       1.737   8.435  19.520  0.00  0.00    +0.000 A 
ATOM      7  C   UNL     1       2.194   9.068  18.356  0.00  0.00    +0.000 A 
ATOM      8  C   UNL     1       3.042   8.420  17.445  0.00  0.00    +0.000 A 
ATOM      9  C   UNL     1       3.460   7.103  17.713  0.00  0.00    +0.000 A 
ENDROOT
BRANCH   3  10
ATOM     10  C   UNL     1       3.357   4.120  19.743  0.00  0.00    +0.000 A 
ATOM     11  C   UNL     1       4.341   3.127  19.867  0.00  0.00    +0.000 A 
ATOM     12  C   UNL     1       4.172   2.078  20.773  0.00  0.00    +0.000 A 
ATOM     13  C   UNL     1       3.004   1.997  21.531  0.00  0.00    +0.000 A 
ATOM     14  C   UNL     1       2.017   2.963  21.372  0.00  0.00    +0.000 A 
ATOM     15  F   UNL     1       0.882   2.867  22.080  0.00  0.00    +0.000 F 
ATOM     16  C   UNL     1       2.180   4.025  20.491  0.00  0.00    +0.000 A 
ENDBRANCH   3  10
BRANCH   6  17
ATOM     17  C   UNL     1       0.891   9.146  20.510  0.00  0.00    +0.000 C 
ATOM     18  C   UNL     1       0.443   8.553  21.635  0.00  0.00    +0.000 C 
ATOM     19  C   UNL     1      -0.435   9.235  22.645  0.00  0.00    +0.000 C 
ATOM     20  N   UNL     1      -0.549  10.683  22.475  0.00  0.00    +0.000 NA
ATOM     21  C   UNL     1      -0.709  11.023  21.058  0.00  0.00    +0.000 C 
ATOM     22  C   UNL     1       0.511  10.587  20.236  0.00  0.00    +0.000 C 
ATOM     23  H   UNL     1       0.313  11.109  22.817  0.00  0.00    +0.000 HD
ENDBRANCH   6  17
BRANCH   1  25
ATOM     24  C   UNL     1       6.598   5.282  15.836  0.00  0.00    +0.000 C 
ATOM     25  S   UNL     1       5.211   6.418  15.624  0.00  0.00    +0.000 S 
ENDBRANCH   1  25
TORSDOF 3
ENDMDL
MODEL 5
REMARK VINA RESULT:      -7.2      1.007      1.392
REMARK  Name = 
REMARK  4 active torsions:
REMARK  status: ('A' for Active; 'I' for Inactive)
REMARK    1  A    between atoms: C_1  and  S_2
REMARK    2  A    between atoms: S_2  and  C_3
REMARK    3  A    between atoms: N_5  and  C_6
REMARK    4  A    between atoms: C_15  and  C_16
REMARK                            x       y       z     vdW  Elec       q    Type
REMARK                         _______ _______ _______ _____ _____    ______ ____
ROOT
ATOM      1  C   UNL     1       3.300   3.543  20.137  0.00  0.00    +0.000 A 
ATOM      2  N   UNL     1       4.111   3.358  19.099  0.00  0.00    +0.000 NA
ATOM      3  N   UNL     1       4.228   4.588  18.541  0.00  0.00    +0.000 N 
ATOM      4  C   UNL     1       3.368   5.513  19.122  0.00  0.00    +0.000 A 
ATOM      5  C   UNL     1       3.016   6.835  18.785  0.00  0.00    +0.000 A 
ATOM      6  C   UNL     1       2.064   7.518  19.558  0.00  0.00    +0.000 A 
ATOM      7  C   UNL     1       1.481   6.854  20.646  0.00  0.00    +0.000 A 
ATOM      8  C   UNL     1       1.823   5.534  20.977  0.00  0.00    +0.000 A 
ATOM      9  C   UNL     1       2.763   4.848  20.186  0.00  0.00    +0.000 A 
ENDROOT
BRANCH   3  10
ATOM     10  C   UNL     1       5.137   4.784  17.467  0.00  0.00    +0.000 A 
ATOM     11  C   UNL     1       5.052   3.954  16.338  0.00  0.00    +0.000 A 
ATOM     12  C   UNL     1       5.909   4.150  15.254  0.00  0.00    +0.000 A 
ATOM     13  C   UNL     1       6.878   5.152  15.308  0.00  0.00    +0.000 A 
ATOM     14  C   UNL     1       6.981   5.943  16.446  0.00  0.00    +0.000 A 
ATOM     15  F   UNL     1       7.933   6.886  16.508  0.00  0.00    +0.000 F 
ATOM     16  C   UNL     1       6.122   5.774  17.524  0.00  0.00    +0.000 A 
ENDBRANCH   3  10
BRANCH   6  17
ATOM     17  C   UNL     1       1.654   8.891  19.177  0.00  0.00    +0.000 C 
ATOM     18  C   UNL     1       2.218   9.553  18.146  0.00  0.00    +0.000 C 
ATOM     19  C   UNL     1       1.845  10.953  17.749  0.00  0.00    +0.000 C 
ATOM     20  N   UNL     1       0.624  11.460  18.375  0.00  0.00    +0.000 NA
ATOM     21  C   UNL     1       0.587  11.097  19.795  0.00  0.00    +0.000 C 
ATOM     22  C   UNL     1       0.568   9.574  19.984  0.00  0.00    +0.000 C 
ATOM     23  H   UNL     1      -0.172  11.029  17.907  0.00  0.00    +0.000 HD
ENDBRANCH   6  17
BRANCH   1  25
ATOM     24  C   UNL     1       1.182   2.593  21.610  0.00  0.00    +0.000 C 
ATOM     25  S   UNL     1       2.922   2.257  21.260  0.00  0.00    +0.000 S 
ENDBRANCH   1  25
TORSDOF 3
ENDMDL
MODEL 6
REMARK VINA RESULT:      -7.2      2.757      4.889
REMARK  Name = 
REMARK  4 active torsions:
REMARK  status: ('A' for Active; 'I' for Inactive)
REMARK    1  A    between atoms: C_1  and  S_2
REMARK    2  A    between atoms: S_2  and  C_3
REMARK    3  A    between atoms: N_5  and  C_6
REMARK    4  A    between atoms: C_15  and  C_16
REMARK                            x       y       z     vdW  Elec       q    Type
REMARK                         _______ _______ _______ _____ _____    ______ ____
ROOT
ATOM      1  C   UNL     1       3.810   6.869  17.356  0.00  0.00    +0.000 A 
ATOM      2  N   UNL     1       3.711   5.673  17.931  0.00  0.00    +0.000 NA
ATOM      3  N   UNL     1       2.722   5.821  18.846  0.00  0.00    +0.000 N 
ATOM      4  C   UNL     1       2.309   7.143  18.964  0.00  0.00    +0.000 A 
ATOM      5  C   UNL     1       1.453   7.799  19.870  0.00  0.00    +0.000 A 
ATOM      6  C   UNL     1       1.257   9.185  19.760  0.00  0.00    +0.000 A 
ATOM      7  C   UNL     1       1.933   9.879  18.747  0.00  0.00    +0.000 A 
ATOM      8  C   UNL     1       2.794   9.229  17.850  0.00  0.00    +0.000 A 
ATOM      9  C   UNL     1       3.001   7.843  17.979  0.00  0.00    +0.000 A 
ENDROOT
BRANCH   3  10
ATOM     10  C   UNL     1       2.261   4.685  19.565  0.00  0.00    +0.000 A 
ATOM     11  C   UNL     1       2.559   4.575  20.932  0.00  0.00    +0.000 A 
ATOM     12  C   UNL     1       2.085   3.487  21.670  0.00  0.00    +0.000 A 
ATOM     13  C   UNL     1       1.343   2.489  21.036  0.00  0.00    +0.000 A 
ATOM     14  C   UNL     1       1.089   2.588  19.674  0.00  0.00    +0.000 A 
ATOM     15  F   UNL     1       0.402   1.612  19.060  0.00  0.00    +0.000 F 
ATOM     16  C   UNL     1       1.535   3.673  18.931  0.00  0.00    +0.000 A 
ENDBRANCH   3  10
BRANCH   6  17
ATOM     17  C   UNL     1       0.397   9.888  20.743  0.00  0.00    +0.000 C 
ATOM     18  C   UNL     1       0.066  11.188  20.612  0.00  0.00    +0.000 C 
ATOM     19  C   UNL     1      -0.781  11.937  21.601  0.00  0.00    +0.000 C 
ATOM     20  N   UNL     1      -1.466  11.093  22.580  0.00  0.00    +0.000 NA
ATOM     21  C   UNL     1      -0.566  10.046  23.074  0.00  0.00    +0.000 C 
ATOM     22  C   UNL     1      -0.117   9.114  21.940  0.00  0.00    +0.000 C 
ATOM     23  H   UNL     1      -2.258  10.650  22.115  0.00  0.00    +0.000 HD
ENDBRANCH   6  17
BRANCH   1  25
ATOM     24  C   UNL     1       5.414   5.486  15.602  0.00  0.00    +0.000 C 
ATOM     25  S   UNL     1       4.889   7.165  16.012  0.00  0.00    +0.000 S 
ENDBRANCH   1  25
TORSDOF 3
ENDMDL
MODEL 7
REMARK VINA RESULT:      -7.2      2.902      4.809
REMARK  Name = 
REMARK  4 active torsions:
REMARK  status: ('A' for Active; 'I' for Inactive)
REMARK    1  A    between atoms: C_1  and  S_2
REMARK    2  A    between atoms: S_2  and  C_3
REMARK    3  A    between atoms: N_5  and  C_6
REMARK    4  A    between atoms: C_15  and  C_16
REMARK                            x       y       z     vdW  Elec       q    Type
REMARK                         _______ _______ _______ _____ _____    ______ ____
ROOT
ATOM      1  C   UNL     1       4.371   6.118  17.088  0.00  0.00    +0.000 A 
ATOM      2  N   UNL     1       4.501   5.011  17.814  0.00  0.00    +0.000 NA
ATOM      3  N   UNL     1       3.605   5.161  18.820  0.00  0.00    +0.000 N 
ATOM      4  C   UNL     1       3.027   6.426  18.824  0.00  0.00    +0.000 A 
ATOM      5  C   UNL     1       2.191   7.091  19.742  0.00  0.00    +0.000 A 
ATOM      6  C   UNL     1       1.794   8.413  19.486  0.00  0.00    +0.000 A 
ATOM      7  C   UNL     1       2.254   9.038  18.319  0.00  0.00    +0.000 A 
ATOM      8  C   UNL     1       3.096   8.380  17.409  0.00  0.00    +0.000 A 
ATOM      9  C   UNL     1       3.506   7.062  17.682  0.00  0.00    +0.000 A 
ENDROOT
BRANCH   3  10
ATOM     10  C   UNL     1       3.385   4.089  19.725  0.00  0.00    +0.000 A 
ATOM     11  C   UNL     1       4.365   3.092  19.855  0.00  0.00    +0.000 A 
ATOM     12  C   UNL     1       4.190   2.048  20.766  0.00  0.00    +0.000 A 
ATOM     13  C   UNL     1       3.020   1.976  21.523  0.00  0.00    +0.000 A 
ATOM     14  C   UNL     1       2.039   2.945  21.358  0.00  0.00    +0.000 A 
ATOM     15  F   UNL     1       0.902   2.858  22.064  0.00  0.00    +0.000 F 
ATOM     16  C   UNL     1       2.207   4.002  20.472  0.00  0.00    +0.000 A 
ENDBRANCH   3  10
BRANCH   6  17
ATOM     17  C   UNL     1       0.955   9.134  20.474  0.00  0.00    +0.000 C 
ATOM     18  C   UNL     1       0.491  10.381  20.254  0.00  0.00    +0.000 C 
ATOM     19  C   UNL     1      -0.339  11.149  21.243  0.00  0.00    +0.000 C 
ATOM     20  N   UNL     1      -0.857  10.352  22.354  0.00  0.00    +0.000 NA
ATOM     21  C   UNL     1       0.177   9.442  22.859  0.00  0.00    +0.000 C 
ATOM     22  C   UNL     1       0.618   8.443  21.780  0.00  0.00    +0.000 C 
ATOM     23  H   UNL     1      -1.639   9.797  22.007  0.00  0.00    +0.000 HD
ENDBRANCH   6  17
BRANCH   1  25
ATOM     24  C   UNL     1       6.639   5.226  15.816  0.00  0.00    +0.000 C 
ATOM     25  S   UNL     1       5.248   6.356  15.594  0.00  0.00    +0.000 S 
ENDBRANCH   1  25
TORSDOF 3
ENDMDL
MODEL 8
REMARK VINA RESULT:      -7.1      2.760      4.925
REMARK  Name = 
REMARK  4 active torsions:
REMARK  status: ('A' for Active; 'I' for Inactive)
REMARK    1  A    between atoms: C_1  and  S_2
REMARK    2  A    between atoms: S_2  and  C_3
REMARK    3  A    between atoms: N_5  and  C_6
REMARK    4  A    between atoms: C_15  and  C_16
REMARK                            x       y       z     vdW  Elec       q    Type
REMARK                         _______ _______ _______ _____ _____    ______ ____
ROOT
ATOM      1  C   UNL     1       3.743   6.820  17.316  0.00  0.00    +0.000 A 
ATOM      2  N   UNL     1       3.674   5.623  17.891  0.00  0.00    +0.000 NA
ATOM      3  N   UNL     1       2.734   5.769  18.857  0.00  0.00    +0.000 N 
ATOM      4  C   UNL     1       2.328   7.091  19.000  0.00  0.00    +0.000 A 
ATOM      5  C   UNL     1       1.521   7.745  19.952  0.00  0.00    +0.000 A 
ATOM      6  C   UNL     1       1.321   9.132  19.855  0.00  0.00    +0.000 A 
ATOM      7  C   UNL     1       1.943   9.828  18.810  0.00  0.00    +0.000 A 
ATOM      8  C   UNL     1       2.755   9.180  17.868  0.00  0.00    +0.000 A 
ATOM      9  C   UNL     1       2.968   7.794  17.982  0.00  0.00    +0.000 A 
ENDROOT
BRANCH   3  10
ATOM     10  C   UNL     1       2.310   4.632  19.597  0.00  0.00    +0.000 A 
ATOM     11  C   UNL     1       2.560   4.582  20.977  0.00  0.00    +0.000 A 
ATOM     12  C   UNL     1       2.120   3.493  21.733  0.00  0.00    +0.000 A 
ATOM     13  C   UNL     1       1.462   2.434  21.106  0.00  0.00    +0.000 A 
ATOM     14  C   UNL     1       1.256   2.474  19.732  0.00  0.00    +0.000 A 
ATOM     15  F   UNL     1       0.650   1.442  19.127  0.00  0.00    +0.000 F 
ATOM     16  C   UNL     1       1.668   3.560  18.971  0.00  0.00    +0.000 A 
ENDBRANCH   3  10
BRANCH   6  17
ATOM     17  C   UNL     1       0.513   9.832  20.883  0.00  0.00    +0.000 C 
ATOM     18  C   UNL     1       0.176   9.255  22.054  0.00  0.00    +0.000 C 
ATOM     19  C   UNL     1      -0.661   9.925  23.105  0.00  0.00    +0.000 C 
ATOM     20  N   UNL     1      -0.858  11.360  22.904  0.00  0.00    +0.000 NA
ATOM     21  C   UNL     1      -1.135  11.648  21.493  0.00  0.00    +0.000 C 
ATOM     22  C   UNL     1       0.044  11.245  20.598  0.00  0.00    +0.000 C 
ATOM     23  H   UNL     1       0.004  11.837  23.171  0.00  0.00    +0.000 HD
ENDBRANCH   6  17
BRANCH   1  25
ATOM     24  C   UNL     1       5.603   5.537  15.750  0.00  0.00    +0.000 C 
ATOM     25  S   UNL     1       4.751   7.120  15.918  0.00  0.00    +0.000 S 
ENDBRANCH   1  25
TORSDOF 3
ENDMDL
MODEL 9
REMARK VINA RESULT:      -7.1      1.214      1.364
REMARK  Name = 
REMARK  4 active torsions:
REMARK  status: ('A' for Active; 'I' for Inactive)
REMARK    1  A    between atoms: C_1  and  S_2
REMARK    2  A    between atoms: S_2  and  C_3
REMARK    3  A    between atoms: N_5  and  C_6
REMARK    4  A    between atoms: C_15  and  C_16
REMARK                            x       y       z     vdW  Elec       q    Type
REMARK                         _______ _______ _______ _____ _____    ______ ____
ROOT
ATOM      1  C   UNL     1       2.578   4.759  20.357  0.00  0.00    +0.000 A 
ATOM      2  N   UNL     1       3.239   4.414  19.255  0.00  0.00    +0.000 NA
ATOM      3  N   UNL     1       3.360   5.571  18.560  0.00  0.00    +0.000 N 
ATOM      4  C   UNL     1       2.640   6.610  19.138  0.00  0.00    +0.000 A 
ATOM      5  C   UNL     1       2.331   7.915  18.707  0.00  0.00    +0.000 A 
ATOM      6  C   UNL     1       1.528   8.740  19.511  0.00  0.00    +0.000 A 
ATOM      7  C   UNL     1       1.047   8.230  20.724  0.00  0.00    +0.000 A 
ATOM      8  C   UNL     1       1.345   6.927  21.150  0.00  0.00    +0.000 A 
ATOM      9  C   UNL     1       2.134   6.099  20.330  0.00  0.00    +0.000 A 
ENDROOT
BRANCH   3  10
ATOM     10  C   UNL     1       4.137   5.593  17.370  0.00  0.00    +0.000 A 
ATOM     11  C   UNL     1       4.387   6.821  16.738  0.00  0.00    +0.000 A 
ATOM     12  C   UNL     1       5.179   6.874  15.590  0.00  0.00    +0.000 A 
ATOM     13  C   UNL     1       5.695   5.696  15.048  0.00  0.00    +0.000 A 
ATOM     14  C   UNL     1       5.409   4.480  15.658  0.00  0.00    +0.000 A 
ATOM     15  F   UNL     1       5.881   3.346  15.119  0.00  0.00    +0.000 F 
ATOM     16  C   UNL     1       4.640   4.414  16.813  0.00  0.00    +0.000 A 
ENDBRANCH   3  10
BRANCH   6  17
ATOM     17  C   UNL     1       1.159  10.096  19.037  0.00  0.00    +0.000 C 
ATOM     18  C   UNL     1       2.082  11.011  18.677  0.00  0.00    +0.000 C 
ATOM     19  C   UNL     1       1.745  12.400  18.218  0.00  0.00    +0.000 C 
ATOM     20  N   UNL     1       0.331  12.616  17.913  0.00  0.00    +0.000 NA
ATOM     21  C   UNL     1      -0.515  11.985  18.931  0.00  0.00    +0.000 C 
ATOM     22  C   UNL     1      -0.309  10.465  18.968  0.00  0.00    +0.000 C 
ATOM     23  H   UNL     1       0.134  12.183  17.011  0.00  0.00    +0.000 HD
ENDBRANCH   6  17
BRANCH   1  25
ATOM     24  C   UNL     1       1.192   2.430  20.814  0.00  0.00    +0.000 C 
ATOM     25  S   UNL     1       2.265   3.620  21.646  0.00  0.00    +0.000 S 
ENDBRANCH   1  25
TORSDOF 3
ENDMDL
