MODEL 1
REMARK VINA RESULT:      -7.1      0.000      0.000
REMARK  Name = 
REMARK  5 active torsions:
REMARK  status: ('A' for Active; 'I' for Inactive)
REMARK    1  A    between atoms: C_2  and  C_10
REMARK    2  A    between atoms: N_3  and  C_4
REMARK    3  A    between atoms: C_13  and  C_14
REMARK    4  A    between atoms: C_14  and  O_15
REMARK    5  A    between atoms: O_15  and  N_16
REMARK                            x       y       z     vdW  Elec       q    Type
REMARK                         _______ _______ _______ _____ _____    ______ ____
ROOT
ATOM      1  C   UNL     1       2.322   7.618  18.649  0.00  0.00    +0.000 A 
ATOM      2  C   UNL     1       1.857   8.741  17.957  0.00  0.00    +0.000 A 
ATOM      3  C   UNL     1       1.079   9.697  18.619  0.00  0.00    +0.000 A 
ATOM      4  C   UNL     1       0.778   9.556  19.982  0.00  0.00    +0.000 A 
ATOM      5  C   UNL     1       1.253   8.435  20.673  0.00  0.00    +0.000 A 
ATOM      6  C   UNL     1       2.025   7.479  20.012  0.00  0.00    +0.000 A 
ENDROOT
BRANCH   1   8
ATOM      7  O   UNL     1       2.701   5.414  18.008  0.00  0.00    +0.000 OA
ATOM      8  C   UNL     1       3.156   6.554  18.018  0.00  0.00    +0.000 C 
ATOM      9  N   UNL     1       4.376   6.950  17.497  0.00  0.00    +0.000 N 
ATOM     10  H   UNL     1       4.668   7.907  17.626  0.00  0.00    +0.000 HD
BRANCH   9  11
ATOM     11  C   UNL     1       5.291   6.123  16.810  0.00  0.00    +0.000 A 
ATOM     12  C   UNL     1       5.255   5.921  15.428  0.00  0.00    +0.000 A 
ATOM     13  C   UNL     1       6.178   5.077  14.807  0.00  0.00    +0.000 A 
ATOM     14  C   UNL     1       7.144   4.423  15.564  0.00  0.00    +0.000 A 
ATOM     15  C   UNL     1       7.202   4.629  16.940  0.00  0.00    +0.000 A 
ATOM     16  C   UNL     1       6.288   5.487  17.560  0.00  0.00    +0.000 A 
ENDBRANCH   9  11
ENDBRANCH   1   8
BRANCH   4  17
ATOM     17  C   UNL     1      -0.081  10.577  20.687  0.00  0.00    +0.000 C 
BRANCH  17  18
ATOM     18  O   UNL     1       0.518  10.838  21.946  0.00  0.00    +0.000 OA
BRANCH  18  19
ATOM     19  N   UNL     1      -0.315  10.455  23.019  0.00  0.00    +0.000 N 
ATOM     20  O   UNL     1      -1.456  10.917  23.038  0.00  0.00    +0.000 OA
ATOM     21  O   UNL     1       0.241   9.690  23.804  0.00  0.00    +0.000 OA
ENDBRANCH  18  19
ENDBRANCH  17  18
ENDBRANCH   4  17
TORSDOF 5
ENDMDL
MODEL 2
REMARK VINA RESULT:      -7.0      0.424      1.161
REMARK  Name = 
REMARK  5 active torsions:
REMARK  status: ('A' for Active; 'I' for Inactive)
REMARK    1  A    between atoms: C_2  and  C_10
REMARK    2  A    between atoms: N_3  and  C_4
REMARK    3  A    between atoms: C_13  and  C_14
REMARK    4  A    between atoms: C_14  and  O_15
REMARK    5  A    between atoms: O_15  and  N_16
REMARK                            x       y       z     vdW  Elec       q    Type
REMARK                         _______ _______ _______ _____ _____    ______ ____
ROOT
ATOM      1  C   UNL     1       2.377   7.495  18.753  0.00  0.00    +0.000 A 
ATOM      2  C   UNL     1       2.026   7.379  20.103  0.00  0.00    +0.000 A 
ATOM      3  C   UNL     1       1.284   8.391  20.721  0.00  0.00    +0.000 A 
ATOM      4  C   UNL     1       0.865   9.516  19.996  0.00  0.00    +0.000 A 
ATOM      5  C   UNL     1       1.210   9.624  18.644  0.00  0.00    +0.000 A 
ATOM      6  C   UNL     1       1.954   8.618  18.028  0.00  0.00    +0.000 A 
ENDROOT
BRANCH   1   8
ATOM      7  O   UNL     1       2.647   5.361  17.868  0.00  0.00    +0.000 OA
ATOM      8  C   UNL     1       3.166   6.463  18.020  0.00  0.00    +0.000 C 
ATOM      9  N   UNL     1       4.420   6.843  17.574  0.00  0.00    +0.000 N 
ATOM     10  H   UNL     1       4.763   7.760  17.819  0.00  0.00    +0.000 HD
BRANCH   9  11
ATOM     11  C   UNL     1       5.305   6.048  16.813  0.00  0.00    +0.000 A 
ATOM     12  C   UNL     1       5.209   5.902  15.428  0.00  0.00    +0.000 A 
ATOM     13  C   UNL     1       6.105   5.087  14.732  0.00  0.00    +0.000 A 
ATOM     14  C   UNL     1       7.104   4.406  15.419  0.00  0.00    +0.000 A 
ATOM     15  C   UNL     1       7.222   4.556  16.798  0.00  0.00    +0.000 A 
ATOM     16  C   UNL     1       6.335   5.385  17.492  0.00  0.00    +0.000 A 
ENDBRANCH   9  11
ENDBRANCH   1   8
BRANCH   4  17
ATOM     17  C   UNL     1       0.085  10.616  20.672  0.00  0.00    +0.000 C 
BRANCH  17  18
ATOM     18  O   UNL     1      -0.711  10.014  21.681  0.00  0.00    +0.000 OA
BRANCH  18  19
ATOM     19  N   UNL     1      -0.482  10.590  22.950  0.00  0.00    +0.000 N 
ATOM     20  O   UNL     1      -0.915  11.726  23.139  0.00  0.00    +0.000 OA
ATOM     21  O   UNL     1       0.138   9.844  23.705  0.00  0.00    +0.000 OA
ENDBRANCH  18  19
ENDBRANCH  17  18
ENDBRANCH   4  17
TORSDOF 5
ENDMDL
MODEL 3
REMARK VINA RESULT:      -7.0      4.037      5.122
REMARK  Name = 
REMARK  5 active torsions:
REMARK  status: ('A' for Active; 'I' for Inactive)
REMARK    1  A    between atoms: C_2  and  C_10
REMARK    2  A    between atoms: N_3  and  C_4
REMARK    3  A    between atoms: C_13  and  C_14
REMARK    4  A    between atoms: C_14  and  O_15
REMARK    5  A    between atoms: O_15  and  N_16
REMARK                            x       y       z     vdW  Elec       q    Type
REMARK                         _______ _______ _______ _____ _____    ______ ____
ROOT
ATOM      1  C   UNL     1       4.308   5.564  17.379  0.00  0.00    +0.000 A 
ATOM      2  C   UNL     1       3.410   6.524  17.859  0.00  0.00    +0.000 A 
ATOM      3  C   UNL     1       2.746   6.315  19.073  0.00  0.00    +0.000 A 
ATOM      4  C   UNL     1       2.989   5.161  19.832  0.00  0.00    +0.000 A 
ATOM      5  C   UNL     1       3.895   4.207  19.353  0.00  0.00    +0.000 A 
ATOM      6  C   UNL     1       4.553   4.412  18.141  0.00  0.00    +0.000 A 
ENDROOT
BRANCH   1   8
ATOM      7  O   UNL     1       5.361   6.846  15.749  0.00  0.00    +0.000 OA
ATOM      8  C   UNL     1       5.055   5.709  16.097  0.00  0.00    +0.000 C 
ATOM      9  N   UNL     1       5.336   4.541  15.408  0.00  0.00    +0.000 N 
ATOM     10  H   UNL     1       4.972   3.671  15.766  0.00  0.00    +0.000 HD
BRANCH   9  11
ATOM     11  C   UNL     1       6.078   4.443  14.211  0.00  0.00    +0.000 A 
ATOM     12  C   UNL     1       7.240   5.179  13.965  0.00  0.00    +0.000 A 
ATOM     13  C   UNL     1       7.920   5.051  12.752  0.00  0.00    +0.000 A 
ATOM     14  C   UNL     1       7.442   4.189  11.771  0.00  0.00    +0.000 A 
ATOM     15  C   UNL     1       6.295   3.437  12.011  0.00  0.00    +0.000 A 
ATOM     16  C   UNL     1       5.622   3.553  13.231  0.00  0.00    +0.000 A 
ENDBRANCH   9  11
ENDBRANCH   1   8
BRANCH   4  17
ATOM     17  C   UNL     1       2.254   4.928  21.129  0.00  0.00    +0.000 C 
BRANCH  17  18
ATOM     18  O   UNL     1       1.090   4.175  20.829  0.00  0.00    +0.000 OA
BRANCH  18  19
ATOM     19  N   UNL     1       1.272   2.797  21.077  0.00  0.00    +0.000 N 
ATOM     20  O   UNL     1       1.497   2.460  22.240  0.00  0.00    +0.000 OA
ATOM     21  O   UNL     1       1.175   2.114  20.061  0.00  0.00    +0.000 OA
ENDBRANCH  18  19
ENDBRANCH  17  18
ENDBRANCH   4  17
TORSDOF 5
ENDMDL
MODEL 4
REMARK VINA RESULT:      -7.0      0.465      1.590
REMARK  Name = 
REMARK  5 active torsions:
REMARK  status: ('A' for Active; 'I' for Inactive)
REMARK    1  A    between atoms: C_2  and  C_10
REMARK    2  A    between atoms: N_3  and  C_4
REMARK    3  A    between atoms: C_13  and  C_14
REMARK    4  A    between atoms: C_14  and  O_15
REMARK    5  A    between atoms: O_15  and  N_16
REMARK                            x       y       z     vdW  Elec       q    Type
REMARK                         _______ _______ _______ _____ _____    ______ ____
ROOT
ATOM      1  C   UNL     1       2.414   7.357  18.872  0.00  0.00    +0.000 A 
ATOM      2  C   UNL     1       2.031   7.225  20.211  0.00  0.00    +0.000 A 
ATOM      3  C   UNL     1       1.274   8.230  20.823  0.00  0.00    +0.000 A 
ATOM      4  C   UNL     1       0.871   9.364  20.102  0.00  0.00    +0.000 A 
ATOM      5  C   UNL     1       1.249   9.488  18.759  0.00  0.00    +0.000 A 
ATOM      6  C   UNL     1       2.008   8.489  18.150  0.00  0.00    +0.000 A 
ENDROOT
BRANCH   1   8
ATOM      7  O   UNL     1       2.739   5.211  18.036  0.00  0.00    +0.000 OA
ATOM      8  C   UNL     1       3.221   6.334  18.145  0.00  0.00    +0.000 C 
ATOM      9  N   UNL     1       4.450   6.746  17.658  0.00  0.00    +0.000 N 
ATOM     10  H   UNL     1       4.765   7.681  17.870  0.00  0.00    +0.000 HD
BRANCH   9  11
ATOM     11  C   UNL     1       5.343   5.963  16.896  0.00  0.00    +0.000 A 
ATOM     12  C   UNL     1       6.389   5.225  17.457  0.00  0.00    +0.000 A 
ATOM     13  C   UNL     1       7.251   4.482  16.649  0.00  0.00    +0.000 A 
ATOM     14  C   UNL     1       7.079   4.474  15.269  0.00  0.00    +0.000 A 
ATOM     15  C   UNL     1       6.030   5.191  14.698  0.00  0.00    +0.000 A 
ATOM     16  C   UNL     1       5.157   5.922  15.509  0.00  0.00    +0.000 A 
ENDBRANCH   9  11
ENDBRANCH   1   8
BRANCH   4  17
ATOM     17  C   UNL     1       0.074  10.455  20.771  0.00  0.00    +0.000 C 
BRANCH  17  18
ATOM     18  O   UNL     1      -0.704   9.849  21.791  0.00  0.00    +0.000 OA
BRANCH  18  19
ATOM     19  N   UNL     1      -0.467  10.431  23.055  0.00  0.00    +0.000 N 
ATOM     20  O   UNL     1      -1.024  11.502  23.295  0.00  0.00    +0.000 OA
ATOM     21  O   UNL     1       0.288   9.759  23.754  0.00  0.00    +0.000 OA
ENDBRANCH  18  19
ENDBRANCH  17  18
ENDBRANCH   4  17
TORSDOF 5
ENDMDL
MODEL 5
REMARK VINA RESULT:      -6.9      4.141      5.238
REMARK  Name = 
REMARK  5 active torsions:
REMARK  status: ('A' for Active; 'I' for Inactive)
REMARK    1  A    between atoms: C_2  and  C_10
REMARK    2  A    between atoms: N_3  and  C_4
REMARK    3  A    between atoms: C_13  and  C_14
REMARK    4  A    between atoms: C_14  and  O_15
REMARK    5  A    between atoms: O_15  and  N_16
REMARK                            x       y       z     vdW  Elec       q    Type
REMARK                         _______ _______ _______ _____ _____    ______ ____
ROOT
ATOM      1  C   UNL     1       4.415   5.399  17.460  0.00  0.00    +0.000 A 
ATOM      2  C   UNL     1       4.894   4.579  18.488  0.00  0.00    +0.000 A 
ATOM      3  C   UNL     1       4.157   4.437  19.669  0.00  0.00    +0.000 A 
ATOM      4  C   UNL     1       2.926   5.090  19.828  0.00  0.00    +0.000 A 
ATOM      5  C   UNL     1       2.446   5.902  18.793  0.00  0.00    +0.000 A 
ATOM      6  C   UNL     1       3.183   6.048  17.618  0.00  0.00    +0.000 A 
ENDROOT
BRANCH   1   8
ATOM      7  O   UNL     1       5.444   6.755  15.875  0.00  0.00    +0.000 OA
ATOM      8  C   UNL     1       5.139   5.604  16.172  0.00  0.00    +0.000 C 
ATOM      9  N   UNL     1       5.400   4.471  15.421  0.00  0.00    +0.000 N 
ATOM     10  H   UNL     1       5.038   3.585  15.741  0.00  0.00    +0.000 HD
BRANCH   9  11
ATOM     11  C   UNL     1       6.118   4.429  14.206  0.00  0.00    +0.000 A 
ATOM     12  C   UNL     1       7.273   5.178  13.970  0.00  0.00    +0.000 A 
ATOM     13  C   UNL     1       7.930   5.108  12.740  0.00  0.00    +0.000 A 
ATOM     14  C   UNL     1       7.434   4.290  11.731  0.00  0.00    +0.000 A 
ATOM     15  C   UNL     1       6.293   3.525  11.958  0.00  0.00    +0.000 A 
ATOM     16  C   UNL     1       5.645   3.583  13.196  0.00  0.00    +0.000 A 
ENDBRANCH   9  11
ENDBRANCH   1   8
BRANCH   4  17
ATOM     17  C   UNL     1       2.146   4.953  21.111  0.00  0.00    +0.000 C 
BRANCH  17  18
ATOM     18  O   UNL     1       1.045   4.096  20.850  0.00  0.00    +0.000 OA
BRANCH  18  19
ATOM     19  N   UNL     1       1.359   2.742  21.094  0.00  0.00    +0.000 N 
ATOM     20  O   UNL     1       1.561   2.413  22.263  0.00  0.00    +0.000 OA
ATOM     21  O   UNL     1       1.384   2.067  20.067  0.00  0.00    +0.000 OA
ENDBRANCH  18  19
ENDBRANCH  17  18
ENDBRANCH   4  17
TORSDOF 5
ENDMDL
MODEL 6
REMARK VINA RESULT:      -6.9      4.026      5.064
REMARK  Name = 
REMARK  5 active torsions:
REMARK  status: ('A' for Active; 'I' for Inactive)
REMARK    1  A    between atoms: C_2  and  C_10
REMARK    2  A    between atoms: N_3  and  C_4
REMARK    3  A    between atoms: C_13  and  C_14
REMARK    4  A    between atoms: C_14  and  O_15
REMARK    5  A    between atoms: O_15  and  N_16
REMARK                            x       y       z     vdW  Elec       q    Type
REMARK                         _______ _______ _______ _____ _____    ______ ____
ROOT
ATOM      1  C   UNL     1       4.290   5.536  17.349  0.00  0.00    +0.000 A 
ATOM      2  C   UNL     1       3.474   6.540  17.882  0.00  0.00    +0.000 A 
ATOM      3  C   UNL     1       2.837   6.344  19.113  0.00  0.00    +0.000 A 
ATOM      4  C   UNL     1       3.026   5.157  19.835  0.00  0.00    +0.000 A 
ATOM      5  C   UNL     1       3.850   4.158  19.303  0.00  0.00    +0.000 A 
ATOM      6  C   UNL     1       4.481   4.351  18.074  0.00  0.00    +0.000 A 
ENDROOT
BRANCH   1   8
ATOM      7  O   UNL     1       5.288   6.798  15.669  0.00  0.00    +0.000 OA
ATOM      8  C   UNL     1       5.003   5.665  16.046  0.00  0.00    +0.000 C 
ATOM      9  N   UNL     1       5.281   4.487  15.373  0.00  0.00    +0.000 N 
ATOM     10  H   UNL     1       4.936   3.619  15.755  0.00  0.00    +0.000 HD
BRANCH   9  11
ATOM     11  C   UNL     1       5.994   4.374  14.159  0.00  0.00    +0.000 A 
ATOM     12  C   UNL     1       5.589   3.554  13.104  0.00  0.00    +0.000 A 
ATOM     13  C   UNL     1       6.346   3.472  11.934  0.00  0.00    +0.000 A 
ATOM     14  C   UNL     1       7.520   4.207  11.810  0.00  0.00    +0.000 A 
ATOM     15  C   UNL     1       7.926   5.042  12.848  0.00  0.00    +0.000 A 
ATOM     16  C   UNL     1       7.159   5.137  14.013  0.00  0.00    +0.000 A 
ENDBRANCH   9  11
ENDBRANCH   1   8
BRANCH   4  17
ATOM     17  C   UNL     1       2.320   4.939  21.150  0.00  0.00    +0.000 C 
BRANCH  17  18
ATOM     18  O   UNL     1       1.118   4.238  20.876  0.00  0.00    +0.000 OA
BRANCH  18  19
ATOM     19  N   UNL     1       1.256   2.848  21.082  0.00  0.00    +0.000 N 
ATOM     20  O   UNL     1       1.521   2.472  22.223  0.00  0.00    +0.000 OA
ATOM     21  O   UNL     1       1.086   2.196  20.054  0.00  0.00    +0.000 OA
ENDBRANCH  18  19
ENDBRANCH  17  18
ENDBRANCH   4  17
TORSDOF 5
ENDMDL
MODEL 7
REMARK VINA RESULT:      -6.9      2.923      8.262
REMARK  Name = 
REMARK  5 active torsions:
REMARK  status: ('A' for Active; 'I' for Inactive)
REMARK    1  A    between atoms: C_2  and  C_10
REMARK    2  A    between atoms: N_3  and  C_4
REMARK    3  A    between atoms: C_13  and  C_14
REMARK    4  A    between atoms: C_14  and  O_15
REMARK    5  A    between atoms: O_15  and  N_16
REMARK                            x       y       z     vdW  Elec       q    Type
REMARK                         _______ _______ _______ _____ _____    ______ ____
ROOT
ATOM      1  C   UNL     1       2.804   6.959  18.141  0.00  0.00    +0.000 A 
ATOM      2  C   UNL     1       2.451   5.606  18.197  0.00  0.00    +0.000 A 
ATOM      3  C   UNL     1       3.267   4.646  17.590  0.00  0.00    +0.000 A 
ATOM      4  C   UNL     1       4.454   5.021  16.941  0.00  0.00    +0.000 A 
ATOM      5  C   UNL     1       4.808   6.374  16.895  0.00  0.00    +0.000 A 
ATOM      6  C   UNL     1       3.992   7.333  17.496  0.00  0.00    +0.000 A 
ENDROOT
BRANCH   1   8
ATOM      7  O   UNL     1       1.846   8.015  19.979  0.00  0.00    +0.000 OA
ATOM      8  C   UNL     1       1.990   8.045  18.761  0.00  0.00    +0.000 C 
ATOM      9  N   UNL     1       1.466   8.995  17.900  0.00  0.00    +0.000 N 
ATOM     10  H   UNL     1       1.600   8.873  16.907  0.00  0.00    +0.000 HD
BRANCH   9  11
ATOM     11  C   UNL     1       0.720  10.132  18.277  0.00  0.00    +0.000 A 
ATOM     12  C   UNL     1      -0.676  10.180  18.246  0.00  0.00    +0.000 A 
ATOM     13  C   UNL     1      -1.358  11.341  18.616  0.00  0.00    +0.000 A 
ATOM     14  C   UNL     1      -0.648  12.469  19.015  0.00  0.00    +0.000 A 
ATOM     15  C   UNL     1       0.743  12.429  19.068  0.00  0.00    +0.000 A 
ATOM     16  C   UNL     1       1.425  11.261  18.713  0.00  0.00    +0.000 A 
ENDBRANCH   9  11
ENDBRANCH   1   8
BRANCH   4  17
ATOM     17  C   UNL     1       5.319   3.985  16.268  0.00  0.00    +0.000 C 
BRANCH  17  18
ATOM     18  O   UNL     1       5.873   4.584  15.107  0.00  0.00    +0.000 OA
BRANCH  18  19
ATOM     19  N   UNL     1       7.260   4.809  15.238  0.00  0.00    +0.000 N 
ATOM     20  O   UNL     1       7.802   4.405  16.268  0.00  0.00    +0.000 OA
ATOM     21  O   UNL     1       7.740   5.397  14.272  0.00  0.00    +0.000 OA
ENDBRANCH  18  19
ENDBRANCH  17  18
ENDBRANCH   4  17
TORSDOF 5
ENDMDL
MODEL 8
REMARK VINA RESULT:      -6.9      2.966      8.370
REMARK  Name = 
REMARK  5 active torsions:
REMARK  status: ('A' for Active; 'I' for Inactive)
REMARK    1  A    between atoms: C_2  and  C_10
REMARK    2  A    between atoms: N_3  and  C_4
REMARK    3  A    between atoms: C_13  and  C_14
REMARK    4  A    between atoms: C_14  and  O_15
REMARK    5  A    between atoms: O_15  and  N_16
REMARK                            x       y       z     vdW  Elec       q    Type
REMARK                         _______ _______ _______ _____ _____    ______ ____
ROOT
ATOM      1  C   UNL     1       3.010   6.820  18.025  0.00  0.00    +0.000 A 
ATOM      2  C   UNL     1       2.668   5.465  18.095  0.00  0.00    +0.000 A 
ATOM      3  C   UNL     1       3.480   4.507  17.478  0.00  0.00    +0.000 A 
ATOM      4  C   UNL     1       4.652   4.887  16.808  0.00  0.00    +0.000 A 
ATOM      5  C   UNL     1       4.996   6.242  16.749  0.00  0.00    +0.000 A 
ATOM      6  C   UNL     1       4.184   7.199  17.359  0.00  0.00    +0.000 A 
ENDROOT
BRANCH   1   8
ATOM      7  O   UNL     1       1.992   7.823  19.861  0.00  0.00    +0.000 OA
ATOM      8  C   UNL     1       2.199   7.903  18.654  0.00  0.00    +0.000 C 
ATOM      9  N   UNL     1       1.750   8.907  17.813  0.00  0.00    +0.000 N 
ATOM     10  H   UNL     1       1.931   8.826  16.824  0.00  0.00    +0.000 HD
BRANCH   9  11
ATOM     11  C   UNL     1       1.020  10.051  18.205  0.00  0.00    +0.000 A 
ATOM     12  C   UNL     1       1.622  11.236  18.634  0.00  0.00    +0.000 A 
ATOM     13  C   UNL     1       0.846  12.329  19.025  0.00  0.00    +0.000 A 
ATOM     14  C   UNL     1      -0.542  12.245  18.996  0.00  0.00    +0.000 A 
ATOM     15  C   UNL     1      -1.155  11.075  18.553  0.00  0.00    +0.000 A 
ATOM     16  C   UNL     1      -0.377   9.986  18.146  0.00  0.00    +0.000 A 
ENDBRANCH   9  11
ENDBRANCH   1   8
BRANCH   4  17
ATOM     17  C   UNL     1       5.514   3.853  16.125  0.00  0.00    +0.000 C 
BRANCH  17  18
ATOM     18  O   UNL     1       6.774   4.452  15.871  0.00  0.00    +0.000 OA
BRANCH  18  19
ATOM     19  N   UNL     1       7.012   4.620  14.490  0.00  0.00    +0.000 N 
ATOM     20  O   UNL     1       7.797   5.509  14.158  0.00  0.00    +0.000 OA
ATOM     21  O   UNL     1       6.379   3.826  13.798  0.00  0.00    +0.000 OA
ENDBRANCH  18  19
ENDBRANCH  17  18
ENDBRANCH   4  17
TORSDOF 5
ENDMDL
MODEL 9
REMARK VINA RESULT:      -6.8      2.912      8.242
REMARK  Name = 
REMARK  5 active torsions:
REMARK  status: ('A' for Active; 'I' for Inactive)
REMARK    1  A    between atoms: C_2  and  C_10
REMARK    2  A    between atoms: N_3  and  C_4
REMARK    3  A    between atoms: C_13  and  C_14
REMARK    4  A    between atoms: C_14  and  O_15
REMARK    5  A    between atoms: O_15  and  N_16
REMARK                            x       y       z     vdW  Elec       q    Type
REMARK                         _______ _______ _______ _____ _____    ______ ____
ROOT
ATOM      1  C   UNL     1       2.857   7.130  18.124  0.00  0.00    +0.000 A 
ATOM      2  C   UNL     1       4.003   7.458  17.391  0.00  0.00    +0.000 A 
ATOM      3  C   UNL     1       4.783   6.444  16.824  0.00  0.00    +0.000 A 
ATOM      4  C   UNL     1       4.417   5.097  16.961  0.00  0.00    +0.000 A 
ATOM      5  C   UNL     1       3.265   4.774  17.688  0.00  0.00    +0.000 A 
ATOM      6  C   UNL     1       2.489   5.784  18.258  0.00  0.00    +0.000 A 
ENDROOT
BRANCH   1   8
ATOM      7  O   UNL     1       1.775   8.048  19.968  0.00  0.00    +0.000 OA
ATOM      8  C   UNL     1       1.972   8.149  18.761  0.00  0.00    +0.000 C 
ATOM      9  N   UNL     1       1.449   9.122  17.926  0.00  0.00    +0.000 N 
ATOM     10  H   UNL     1       1.632   9.059  16.936  0.00  0.00    +0.000 HD
BRANCH   9  11
ATOM     11  C   UNL     1       0.640  10.208  18.326  0.00  0.00    +0.000 A 
ATOM     12  C   UNL     1      -0.756  10.187  18.273  0.00  0.00    +0.000 A 
ATOM     13  C   UNL     1      -1.501  11.300  18.666  0.00  0.00    +0.000 A 
ATOM     14  C   UNL     1      -0.856  12.448  19.113  0.00  0.00    +0.000 A 
ATOM     15  C   UNL     1       0.534  12.476  19.188  0.00  0.00    +0.000 A 
ATOM     16  C   UNL     1       1.280  11.356  18.809  0.00  0.00    +0.000 A 
ENDBRANCH   9  11
ENDBRANCH   1   8
BRANCH   4  17
ATOM     17  C   UNL     1       5.273   4.006  16.368  0.00  0.00    +0.000 C 
BRANCH  17  18
ATOM     18  O   UNL     1       5.830   4.510  15.164  0.00  0.00    +0.000 OA
BRANCH  18  19
ATOM     19  N   UNL     1       7.212   4.769  15.288  0.00  0.00    +0.000 N 
ATOM     20  O   UNL     1       7.766   4.389  16.320  0.00  0.00    +0.000 OA
ATOM     21  O   UNL     1       7.674   5.357  14.313  0.00  0.00    +0.000 OA
ENDBRANCH  18  19
ENDBRANCH  17  18
ENDBRANCH   4  17
TORSDOF 5
ENDMDL
