MODEL 1
REMARK VINA RESULT:      -7.4      0.000      0.000
REMARK  Name = 
REMARK  8 active torsions:
REMARK  status: ('A' for Active; 'I' for Inactive)
REMARK    1  A    between atoms: C_1  and  C_2
REMARK    2  A    between atoms: C_5  and  C_6
REMARK    3  A    between atoms: C_6  and  N_7
REMARK    4  A    between atoms: C_10  and  C_11
REMARK    5  A    between atoms: C_11  and  O_12
REMARK    6  A    between atoms: O_12  and  C_13
REMARK    7  A    between atoms: C_13  and  C_15
REMARK    8  A    between atoms: C_24  and  N_25
REMARK                            x       y       z     vdW  Elec       q    Type
REMARK                         _______ _______ _______ _____ _____    ______ ____
ROOT
ATOM      1  N   UNL     1       1.269   9.913  18.742  0.00  0.00    +0.000 N 
ATOM      2  N   UNL     1       1.737   9.576  17.520  0.00  0.00    +0.000 NA
ATOM      3  N   UNL     1       2.274   8.369  17.611  0.00  0.00    +0.000 NA
ATOM      4  C   UNL     1       2.120   7.920  18.902  0.00  0.00    +0.000 A 
ATOM      5  C   UNL     1       1.417   8.867  19.616  0.00  0.00    +0.000 A 
ATOM      6  I   UNL     1       0.819   8.760  21.559  0.00  0.00    +0.000 I 
ENDROOT
BRANCH   1   7
ATOM      7  C   UNL     1       0.972  11.307  19.025  0.00  0.00    +0.000 C 
BRANCH   7  12
ATOM      8  C   UNL     1      -4.443  12.737  20.039  0.00  0.00    +0.000 C 
ATOM      9  C   UNL     1      -3.033  12.298  19.807  0.00  0.00    +0.000 A 
ATOM     10  N   UNL     1      -2.109  12.634  20.720  0.00  0.00    +0.000 NA
ATOM     11  C   UNL     1      -0.847  12.265  20.445  0.00  0.00    +0.000 A 
ATOM     12  C   UNL     1      -0.469  11.575  19.307  0.00  0.00    +0.000 A 
ATOM     13  C   UNL     1      -1.501  11.266  18.441  0.00  0.00    +0.000 A 
ATOM     14  N   UNL     1      -2.774  11.619  18.674  0.00  0.00    +0.000 NA
BRANCH  13  15
ATOM     15  N   UNL     1      -1.276  10.661  17.211  0.00  0.00    +0.000 N 
ATOM     16  H   UNL     1      -2.118  10.547  16.646  0.00  0.00    +0.000 HD
ATOM     17  H   UNL     1      -0.567  11.204  16.721  0.00  0.00    +0.000 HD
ENDBRANCH  13  15
ENDBRANCH   7  12
ENDBRANCH   1   7
BRANCH   4  18
ATOM     18  C   UNL     1       2.740   6.632  19.312  0.00  0.00    +0.000 C 
BRANCH  18  19
ATOM     19  O   UNL     1       2.765   5.669  18.252  0.00  0.00    +0.000 OA
BRANCH  19  20
ATOM     20  C   UNL     1       3.395   4.506  18.535  0.00  0.00    +0.000 C 
ATOM     21  O   UNL     1       2.963   3.599  19.221  0.00  0.00    +0.000 OA
BRANCH  20  22
ATOM     22  C   UNL     1       4.718   4.485  17.854  0.00  0.00    +0.000 A 
ATOM     23  C   UNL     1       5.913   4.731  18.550  0.00  0.00    +0.000 A 
ATOM     24  C   UNL     1       7.133   4.739  17.874  0.00  0.00    +0.000 A 
ATOM     25  C   UNL     1       7.166   4.496  16.502  0.00  0.00    +0.000 A 
ATOM     26  C   UNL     1       5.981   4.236  15.813  0.00  0.00    +0.000 A 
ATOM     27 CL   UNL     1       6.035   3.931  14.120  0.00  0.00    +0.000 Cl
ATOM     28  C   UNL     1       4.757   4.229  16.480  0.00  0.00    +0.000 A 
ENDBRANCH  20  22
ENDBRANCH  19  20
ENDBRANCH  18  19
ENDBRANCH   4  18
TORSDOF 7
ENDMDL
MODEL 2
REMARK VINA RESULT:      -7.2      4.464      9.438
REMARK  Name = 
REMARK  8 active torsions:
REMARK  status: ('A' for Active; 'I' for Inactive)
REMARK    1  A    between atoms: C_1  and  C_2
REMARK    2  A    between atoms: C_5  and  C_6
REMARK    3  A    between atoms: C_6  and  N_7
REMARK    4  A    between atoms: C_10  and  C_11
REMARK    5  A    between atoms: C_11  and  O_12
REMARK    6  A    between atoms: O_12  and  C_13
REMARK    7  A    between atoms: C_13  and  C_15
REMARK    8  A    between atoms: C_24  and  N_25
REMARK                            x       y       z     vdW  Elec       q    Type
REMARK                         _______ _______ _______ _____ _____    ______ ____
ROOT
ATOM      1  N   UNL     1       4.078   4.775  18.603  0.00  0.00    +0.000 N 
ATOM      2  N   UNL     1       4.298   6.012  18.106  0.00  0.00    +0.000 NA
ATOM      3  N   UNL     1       3.443   6.840  18.687  0.00  0.00    +0.000 NA
ATOM      4  C   UNL     1       2.688   6.124  19.587  0.00  0.00    +0.000 A 
ATOM      5  C   UNL     1       3.133   4.819  19.594  0.00  0.00    +0.000 A 
ATOM      6  I   UNL     1       2.461   3.289  20.758  0.00  0.00    +0.000 I 
ENDROOT
BRANCH   1   7
ATOM      7  C   UNL     1       4.602   3.624  17.889  0.00  0.00    +0.000 C 
BRANCH   7  12
ATOM      8  C   UNL     1       7.699   5.313  13.421  0.00  0.00    +0.000 C 
ATOM      9  C   UNL     1       6.908   4.801  14.583  0.00  0.00    +0.000 A 
ATOM     10  N   UNL     1       5.633   4.441  14.368  0.00  0.00    +0.000 NA
ATOM     11  C   UNL     1       4.945   4.037  15.449  0.00  0.00    +0.000 A 
ATOM     12  C   UNL     1       5.471   3.974  16.726  0.00  0.00    +0.000 A 
ATOM     13  C   UNL     1       6.796   4.352  16.833  0.00  0.00    +0.000 A 
ATOM     14  N   UNL     1       7.519   4.766  15.781  0.00  0.00    +0.000 NA
BRANCH  13  15
ATOM     15  N   UNL     1       7.444   4.434  18.058  0.00  0.00    +0.000 N 
ATOM     16  H   UNL     1       6.855   4.780  18.815  0.00  0.00    +0.000 HD
ATOM     17  H   UNL     1       7.827   3.515  18.271  0.00  0.00    +0.000 HD
ENDBRANCH  13  15
ENDBRANCH   7  12
ENDBRANCH   1   7
BRANCH   4  18
ATOM     18  C   UNL     1       1.564   6.790  20.299  0.00  0.00    +0.000 C 
BRANCH  18  19
ATOM     19  O   UNL     1       1.869   8.138  20.672  0.00  0.00    +0.000 OA
BRANCH  19  20
ATOM     20  C   UNL     1       1.120   9.093  20.073  0.00  0.00    +0.000 C 
ATOM     21  O   UNL     1       1.086   9.341  18.882  0.00  0.00    +0.000 OA
BRANCH  20  22
ATOM     22  C   UNL     1       0.310   9.800  21.100  0.00  0.00    +0.000 A 
ATOM     23  C   UNL     1       0.260   9.364  22.434  0.00  0.00    +0.000 A 
ATOM     24  C   UNL     1      -0.538  10.030  23.364  0.00  0.00    +0.000 A 
ATOM     25  C   UNL     1      -1.285  11.137  22.968  0.00  0.00    +0.000 A 
ATOM     26  C   UNL     1      -1.224  11.581  21.647  0.00  0.00    +0.000 A 
ATOM     27 CL   UNL     1      -2.147  12.953  21.170  0.00  0.00    +0.000 Cl
ATOM     28  C   UNL     1      -0.431  10.920  20.710  0.00  0.00    +0.000 A 
ENDBRANCH  20  22
ENDBRANCH  19  20
ENDBRANCH  18  19
ENDBRANCH   4  18
TORSDOF 7
ENDMDL
MODEL 3
REMARK VINA RESULT:      -7.2      6.402      8.240
REMARK  Name = 
REMARK  8 active torsions:
REMARK  status: ('A' for Active; 'I' for Inactive)
REMARK    1  A    between atoms: C_1  and  C_2
REMARK    2  A    between atoms: C_5  and  C_6
REMARK    3  A    between atoms: C_6  and  N_7
REMARK    4  A    between atoms: C_10  and  C_11
REMARK    5  A    between atoms: C_11  and  O_12
REMARK    6  A    between atoms: O_12  and  C_13
REMARK    7  A    between atoms: C_13  and  C_15
REMARK    8  A    between atoms: C_24  and  N_25
REMARK                            x       y       z     vdW  Elec       q    Type
REMARK                         _______ _______ _______ _____ _____    ______ ____
ROOT
ATOM      1  N   UNL     1       4.401   5.543  16.873  0.00  0.00    +0.000 N 
ATOM      2  N   UNL     1       4.113   6.567  17.704  0.00  0.00    +0.000 NA
ATOM      3  N   UNL     1       5.198   7.318  17.812  0.00  0.00    +0.000 NA
ATOM      4  C   UNL     1       6.181   6.779  17.015  0.00  0.00    +0.000 A 
ATOM      5  C   UNL     1       5.661   5.686  16.355  0.00  0.00    +0.000 A 
ATOM      6  I   UNL     1       6.600   4.504  14.988  0.00  0.00    +0.000 I 
ENDROOT
BRANCH   1   7
ATOM      7  C   UNL     1       3.536   4.375  16.864  0.00  0.00    +0.000 C 
BRANCH   7  12
ATOM      8  C   UNL     1       1.471   2.520  21.834  0.00  0.00    +0.000 C 
ATOM      9  C   UNL     1       2.027   3.072  20.560  0.00  0.00    +0.000 A 
ATOM     10  N   UNL     1       1.173   3.639  19.694  0.00  0.00    +0.000 NA
ATOM     11  C   UNL     1       1.707   4.074  18.540  0.00  0.00    +0.000 A 
ATOM     12  C   UNL     1       3.048   3.971  18.216  0.00  0.00    +0.000 A 
ATOM     13  C   UNL     1       3.840   3.385  19.185  0.00  0.00    +0.000 A 
ATOM     14  N   UNL     1       3.349   2.933  20.348  0.00  0.00    +0.000 NA
BRANCH  13  15
ATOM     15  N   UNL     1       5.188   3.122  18.978  0.00  0.00    +0.000 N 
ATOM     16  H   UNL     1       5.761   3.959  18.871  0.00  0.00    +0.000 HD
ATOM     17  H   UNL     1       5.515   2.540  19.747  0.00  0.00    +0.000 HD
ENDBRANCH  13  15
ENDBRANCH   7  12
ENDBRANCH   1   7
BRANCH   4  18
ATOM     18  C   UNL     1       7.550   7.362  17.038  0.00  0.00    +0.000 C 
BRANCH  18  19
ATOM     19  O   UNL     1       7.551   8.752  17.383  0.00  0.00    +0.000 OA
BRANCH  19  20
ATOM     20  C   UNL     1       8.475   9.124  18.299  0.00  0.00    +0.000 C 
ATOM     21  O   UNL     1       8.913   8.437  19.202  0.00  0.00    +0.000 OA
BRANCH  20  22
ATOM     22  C   UNL     1       8.902  10.523  18.027  0.00  0.00    +0.000 A 
ATOM     23  C   UNL     1      10.258  10.885  17.967  0.00  0.00    +0.000 A 
ATOM     24  C   UNL     1      10.624  12.212  17.744  0.00  0.00    +0.000 A 
ATOM     25  C   UNL     1       9.638  13.183  17.576  0.00  0.00    +0.000 A 
ATOM     26  C   UNL     1       8.291  12.822  17.620  0.00  0.00    +0.000 A 
ATOM     27 CL   UNL     1       7.083  14.028  17.404  0.00  0.00    +0.000 Cl
ATOM     28  C   UNL     1       7.917  11.497  17.843  0.00  0.00    +0.000 A 
ENDBRANCH  20  22
ENDBRANCH  19  20
ENDBRANCH  18  19
ENDBRANCH   4  18
TORSDOF 7
ENDMDL
MODEL 4
REMARK VINA RESULT:      -7.2      0.824      1.399
REMARK  Name = 
REMARK  8 active torsions:
REMARK  status: ('A' for Active; 'I' for Inactive)
REMARK    1  A    between atoms: C_1  and  C_2
REMARK    2  A    between atoms: C_5  and  C_6
REMARK    3  A    between atoms: C_6  and  N_7
REMARK    4  A    between atoms: C_10  and  C_11
REMARK    5  A    between atoms: C_11  and  O_12
REMARK    6  A    between atoms: O_12  and  C_13
REMARK    7  A    between atoms: C_13  and  C_15
REMARK    8  A    between atoms: C_24  and  N_25
REMARK                            x       y       z     vdW  Elec       q    Type
REMARK                         _______ _______ _______ _____ _____    ______ ____
ROOT
ATOM      1  N   UNL     1       1.526   9.512  18.601  0.00  0.00    +0.000 N 
ATOM      2  N   UNL     1       2.085   9.061  17.457  0.00  0.00    +0.000 NA
ATOM      3  N   UNL     1       2.589   7.861  17.699  0.00  0.00    +0.000 NA
ATOM      4  C   UNL     1       2.322   7.531  19.007  0.00  0.00    +0.000 A 
ATOM      5  C   UNL     1       1.582   8.548  19.573  0.00  0.00    +0.000 A 
ATOM      6  I   UNL     1       0.826   8.623  21.463  0.00  0.00    +0.000 I 
ENDROOT
BRANCH   1   7
ATOM      7  C   UNL     1       1.235  10.929  18.734  0.00  0.00    +0.000 C 
BRANCH   7  12
ATOM      8  C   UNL     1      -4.388  11.818  18.746  0.00  0.00    +0.000 C 
ATOM      9  C   UNL     1      -2.905  11.634  18.689  0.00  0.00    +0.000 A 
ATOM     10  N   UNL     1      -2.419  10.670  17.892  0.00  0.00    +0.000 NA
ATOM     11  C   UNL     1      -1.086  10.505  17.912  0.00  0.00    +0.000 A 
ATOM     12  C   UNL     1      -0.221  11.257  18.686  0.00  0.00    +0.000 A 
ATOM     13  C   UNL     1      -0.824  12.231  19.458  0.00  0.00    +0.000 A 
ATOM     14  N   UNL     1      -2.151  12.428  19.472  0.00  0.00    +0.000 NA
BRANCH  13  15
ATOM     15  N   UNL     1      -0.108  13.007  20.360  0.00  0.00    +0.000 N 
ATOM     16  H   UNL     1       0.844  12.680  20.523  0.00  0.00    +0.000 HD
ATOM     17  H   UNL     1      -0.121  13.969  20.024  0.00  0.00    +0.000 HD
ENDBRANCH  13  15
ENDBRANCH   7  12
ENDBRANCH   1   7
BRANCH   4  18
ATOM     18  C   UNL     1       2.881   6.278  19.580  0.00  0.00    +0.000 C 
BRANCH  18  19
ATOM     19  O   UNL     1       2.863   5.190  18.649  0.00  0.00    +0.000 OA
BRANCH  19  20
ATOM     20  C   UNL     1       3.727   4.182  18.912  0.00  0.00    +0.000 C 
ATOM     21  O   UNL     1       3.554   3.270  19.698  0.00  0.00    +0.000 OA
BRANCH  20  22
ATOM     22  C   UNL     1       4.942   4.343  18.068  0.00  0.00    +0.000 A 
ATOM     23  C   UNL     1       6.171   4.753  18.609  0.00  0.00    +0.000 A 
ATOM     24  C   UNL     1       7.281   4.928  17.783  0.00  0.00    +0.000 A 
ATOM     25  C   UNL     1       7.170   4.687  16.415  0.00  0.00    +0.000 A 
ATOM     26  C   UNL     1       5.954   4.264  15.879  0.00  0.00    +0.000 A 
ATOM     27 CL   UNL     1       5.831   3.964  14.189  0.00  0.00    +0.000 Cl
ATOM     28  C   UNL     1       4.838   4.089  16.697  0.00  0.00    +0.000 A 
ENDBRANCH  20  22
ENDBRANCH  19  20
ENDBRANCH  18  19
ENDBRANCH   4  18
TORSDOF 7
ENDMDL
MODEL 5
REMARK VINA RESULT:      -7.2      2.013      2.990
REMARK  Name = 
REMARK  8 active torsions:
REMARK  status: ('A' for Active; 'I' for Inactive)
REMARK    1  A    between atoms: C_1  and  C_2
REMARK    2  A    between atoms: C_5  and  C_6
REMARK    3  A    between atoms: C_6  and  N_7
REMARK    4  A    between atoms: C_10  and  C_11
REMARK    5  A    between atoms: C_11  and  O_12
REMARK    6  A    between atoms: O_12  and  C_13
REMARK    7  A    between atoms: C_13  and  C_15
REMARK    8  A    between atoms: C_24  and  N_25
REMARK                            x       y       z     vdW  Elec       q    Type
REMARK                         _______ _______ _______ _____ _____    ______ ____
ROOT
ATOM      1  N   UNL     1       0.788  10.007  18.710  0.00  0.00    +0.000 N 
ATOM      2  N   UNL     1       1.427   9.666  17.570  0.00  0.00    +0.000 NA
ATOM      3  N   UNL     1       2.106   8.553  17.806  0.00  0.00    +0.000 NA
ATOM      4  C   UNL     1       1.871   8.166  19.104  0.00  0.00    +0.000 A 
ATOM      5  C   UNL     1       0.974   9.048  19.670  0.00  0.00    +0.000 A 
ATOM      6  I   UNL     1       0.185   8.978  21.546  0.00  0.00    +0.000 I 
ENDROOT
BRANCH   1   7
ATOM      7  C   UNL     1       0.280  11.361  18.855  0.00  0.00    +0.000 C 
BRANCH   7  12
ATOM      8  C   UNL     1       4.239  14.722  21.187  0.00  0.00    +0.000 C 
ATOM      9  C   UNL     1       3.158  13.898  20.560  0.00  0.00    +0.000 A 
ATOM     10  N   UNL     1       2.195  13.410  21.357  0.00  0.00    +0.000 NA
ATOM     11  C   UNL     1       1.276  12.633  20.761  0.00  0.00    +0.000 A 
ATOM     12  C   UNL     1       1.273  12.326  19.413  0.00  0.00    +0.000 A 
ATOM     13  C   UNL     1       2.300  12.893  18.682  0.00  0.00    +0.000 A 
ATOM     14  N   UNL     1       3.242  13.671  19.236  0.00  0.00    +0.000 NA
BRANCH  13  15
ATOM     15  N   UNL     1       2.494  12.608  17.337  0.00  0.00    +0.000 N 
ATOM     16  H   UNL     1       2.890  11.684  17.162  0.00  0.00    +0.000 HD
ATOM     17  H   UNL     1       1.602  12.729  16.860  0.00  0.00    +0.000 HD
ENDBRANCH  13  15
ENDBRANCH   7  12
ENDBRANCH   1   7
BRANCH   4  18
ATOM     18  C   UNL     1       2.606   7.004  19.671  0.00  0.00    +0.000 C 
BRANCH  18  19
ATOM     19  O   UNL     1       3.687   6.574  18.836  0.00  0.00    +0.000 OA
BRANCH  19  20
ATOM     20  C   UNL     1       3.714   5.252  18.552  0.00  0.00    +0.000 C 
ATOM     21  O   UNL     1       2.868   4.431  18.853  0.00  0.00    +0.000 OA
BRANCH  20  22
ATOM     22  C   UNL     1       4.949   4.939  17.783  0.00  0.00    +0.000 A 
ATOM     23  C   UNL     1       6.218   4.946  18.385  0.00  0.00    +0.000 A 
ATOM     24  C   UNL     1       7.359   4.683  17.627  0.00  0.00    +0.000 A 
ATOM     25  C   UNL     1       7.237   4.406  16.266  0.00  0.00    +0.000 A 
ATOM     26  C   UNL     1       5.975   4.383  15.671  0.00  0.00    +0.000 A 
ATOM     27 CL   UNL     1       5.837   4.034  13.992  0.00  0.00    +0.000 Cl
ATOM     28  C   UNL     1       4.830   4.647  16.421  0.00  0.00    +0.000 A 
ENDBRANCH  20  22
ENDBRANCH  19  20
ENDBRANCH  18  19
ENDBRANCH   4  18
TORSDOF 7
ENDMDL
MODEL 6
REMARK VINA RESULT:      -7.1      2.440      3.300
REMARK  Name = 
REMARK  8 active torsions:
REMARK  status: ('A' for Active; 'I' for Inactive)
REMARK    1  A    between atoms: C_1  and  C_2
REMARK    2  A    between atoms: C_5  and  C_6
REMARK    3  A    between atoms: C_6  and  N_7
REMARK    4  A    between atoms: C_10  and  C_11
REMARK    5  A    between atoms: C_11  and  O_12
REMARK    6  A    between atoms: O_12  and  C_13
REMARK    7  A    between atoms: C_13  and  C_15
REMARK    8  A    between atoms: C_24  and  N_25
REMARK                            x       y       z     vdW  Elec       q    Type
REMARK                         _______ _______ _______ _____ _____    ______ ____
ROOT
ATOM      1  N   UNL     1       1.313  10.027  18.710  0.00  0.00    +0.000 N 
ATOM      2  N   UNL     1       1.827   9.780  17.486  0.00  0.00    +0.000 NA
ATOM      3  N   UNL     1       2.355   8.566  17.506  0.00  0.00    +0.000 NA
ATOM      4  C   UNL     1       2.147   8.022  18.752  0.00  0.00    +0.000 A 
ATOM      5  C   UNL     1       1.420   8.918  19.507  0.00  0.00    +0.000 A 
ATOM      6  I   UNL     1       0.744   8.669  21.412  0.00  0.00    +0.000 I 
ENDROOT
BRANCH   1   7
ATOM      7  C   UNL     1       1.010  11.398  19.085  0.00  0.00    +0.000 C 
BRANCH   7  12
ATOM      8  C   UNL     1      -4.626  12.184  19.230  0.00  0.00    +0.000 C 
ATOM      9  C   UNL     1      -3.138  12.045  19.164  0.00  0.00    +0.000 A 
ATOM     10  N   UNL     1      -2.605  11.500  18.060  0.00  0.00    +0.000 NA
ATOM     11  C   UNL     1      -1.270  11.345  18.065  0.00  0.00    +0.000 A 
ATOM     12  C   UNL     1      -0.449  11.712  19.116  0.00  0.00    +0.000 A 
ATOM     13  C   UNL     1      -1.100  12.277  20.197  0.00  0.00    +0.000 A 
ATOM     14  N   UNL     1      -2.430  12.446  20.236  0.00  0.00    +0.000 NA
BRANCH  13  15
ATOM     15  N   UNL     1      -0.432  12.611  21.368  0.00  0.00    +0.000 N 
ATOM     16  H   UNL     1       0.014  13.528  21.343  0.00  0.00    +0.000 HD
ATOM     17  H   UNL     1      -1.096  12.539  22.137  0.00  0.00    +0.000 HD
ENDBRANCH  13  15
ENDBRANCH   7  12
ENDBRANCH   1   7
BRANCH   4  18
ATOM     18  C   UNL     1       2.744   6.701  19.089  0.00  0.00    +0.000 C 
BRANCH  18  19
ATOM     19  O   UNL     1       2.766   5.806  17.972  0.00  0.00    +0.000 OA
BRANCH  19  20
ATOM     20  C   UNL     1       1.849   4.811  18.004  0.00  0.00    +0.000 C 
ATOM     21  O   UNL     1       0.983   4.600  17.176  0.00  0.00    +0.000 OA
BRANCH  20  22
ATOM     22  C   UNL     1       2.069   3.979  19.218  0.00  0.00    +0.000 A 
ATOM     23  C   UNL     1       1.119   3.909  20.250  0.00  0.00    +0.000 A 
ATOM     24  C   UNL     1       1.372   3.147  21.390  0.00  0.00    +0.000 A 
ATOM     25  C   UNL     1       2.572   2.447  21.502  0.00  0.00    +0.000 A 
ATOM     26  C   UNL     1       3.509   2.503  20.471  0.00  0.00    +0.000 A 
ATOM     27 CL   UNL     1       4.985   1.629  20.617  0.00  0.00    +0.000 Cl
ATOM     28  C   UNL     1       3.265   3.264  19.328  0.00  0.00    +0.000 A 
ENDBRANCH  20  22
ENDBRANCH  19  20
ENDBRANCH  18  19
ENDBRANCH   4  18
TORSDOF 7
ENDMDL
MODEL 7
REMARK VINA RESULT:      -7.1      2.704      3.532
REMARK  Name = 
REMARK  8 active torsions:
REMARK  status: ('A' for Active; 'I' for Inactive)
REMARK    1  A    between atoms: C_1  and  C_2
REMARK    2  A    between atoms: C_5  and  C_6
REMARK    3  A    between atoms: C_6  and  N_7
REMARK    4  A    between atoms: C_10  and  C_11
REMARK    5  A    between atoms: C_11  and  O_12
REMARK    6  A    between atoms: O_12  and  C_13
REMARK    7  A    between atoms: C_13  and  C_15
REMARK    8  A    between atoms: C_24  and  N_25
REMARK                            x       y       z     vdW  Elec       q    Type
REMARK                         _______ _______ _______ _____ _____    ______ ____
ROOT
ATOM      1  N   UNL     1      -0.657  10.879  19.257  0.00  0.00    +0.000 N 
ATOM      2  N   UNL     1      -0.102  10.246  18.201  0.00  0.00    +0.000 NA
ATOM      3  N   UNL     1       0.767   9.363  18.670  0.00  0.00    +0.000 NA
ATOM      4  C   UNL     1       0.741   9.415  20.044  0.00  0.00    +0.000 A 
ATOM      5  C   UNL     1      -0.216  10.329  20.431  0.00  0.00    +0.000 A 
ATOM      6  I   UNL     1      -0.771  10.810  22.330  0.00  0.00    +0.000 I 
ENDROOT
BRANCH   1   7
ATOM      7  C   UNL     1      -1.354  12.136  19.040  0.00  0.00    +0.000 C 
BRANCH   7  12
ATOM      8  C   UNL     1      -6.906  11.951  17.796  0.00  0.00    +0.000 C 
ATOM      9  C   UNL     1      -5.451  11.929  18.141  0.00  0.00    +0.000 A 
ATOM     10  N   UNL     1      -5.094  12.254  19.393  0.00  0.00    +0.000 NA
ATOM     11  C   UNL     1      -3.775  12.272  19.644  0.00  0.00    +0.000 A 
ATOM     12  C   UNL     1      -2.801  11.978  18.707  0.00  0.00    +0.000 A 
ATOM     13  C   UNL     1      -3.278  11.642  17.454  0.00  0.00    +0.000 A 
ATOM     14  N   UNL     1      -4.586  11.615  17.158  0.00  0.00    +0.000 NA
BRANCH  13  15
ATOM     15  N   UNL     1      -2.430  11.412  16.378  0.00  0.00    +0.000 N 
ATOM     16  H   UNL     1      -1.622  10.833  16.605  0.00  0.00    +0.000 HD
ATOM     17  H   UNL     1      -2.983  11.006  15.626  0.00  0.00    +0.000 HD
ENDBRANCH  13  15
ENDBRANCH   7  12
ENDBRANCH   1   7
BRANCH   4  18
ATOM     18  C   UNL     1       1.709   8.604  20.830  0.00  0.00    +0.000 C 
BRANCH  18  19
ATOM     19  O   UNL     1       1.497   7.196  20.682  0.00  0.00    +0.000 OA
BRANCH  19  20
ATOM     20  C   UNL     1       2.330   6.568  19.821  0.00  0.00    +0.000 C 
ATOM     21  O   UNL     1       3.173   7.094  19.119  0.00  0.00    +0.000 OA
BRANCH  20  22
ATOM     22  C   UNL     1       2.074   5.103  19.869  0.00  0.00    +0.000 A 
ATOM     23  C   UNL     1       1.562   4.477  21.017  0.00  0.00    +0.000 A 
ATOM     24  C   UNL     1       1.368   3.097  21.041  0.00  0.00    +0.000 A 
ATOM     25  C   UNL     1       1.679   2.335  19.915  0.00  0.00    +0.000 A 
ATOM     26  C   UNL     1       2.173   2.957  18.768  0.00  0.00    +0.000 A 
ATOM     27 CL   UNL     1       2.546   2.008  17.383  0.00  0.00    +0.000 Cl
ATOM     28  C   UNL     1       2.372   4.337  18.737  0.00  0.00    +0.000 A 
ENDBRANCH  20  22
ENDBRANCH  19  20
ENDBRANCH  18  19
ENDBRANCH   4  18
TORSDOF 7
ENDMDL
MODEL 8
REMARK VINA RESULT:      -7.1      1.452      2.034
REMARK  Name = 
REMARK  8 active torsions:
REMARK  status: ('A' for Active; 'I' for Inactive)
REMARK    1  A    between atoms: C_1  and  C_2
REMARK    2  A    between atoms: C_5  and  C_6
REMARK    3  A    between atoms: C_6  and  N_7
REMARK    4  A    between atoms: C_10  and  C_11
REMARK    5  A    between atoms: C_11  and  O_12
REMARK    6  A    between atoms: O_12  and  C_13
REMARK    7  A    between atoms: C_13  and  C_15
REMARK    8  A    between atoms: C_24  and  N_25
REMARK                            x       y       z     vdW  Elec       q    Type
REMARK                         _______ _______ _______ _____ _____    ______ ____
ROOT
ATOM      1  N   UNL     1       1.577   9.295  18.605  0.00  0.00    +0.000 N 
ATOM      2  N   UNL     1       2.151   8.754  17.508  0.00  0.00    +0.000 NA
ATOM      3  N   UNL     1       2.600   7.553  17.837  0.00  0.00    +0.000 NA
ATOM      4  C   UNL     1       2.282   7.314  19.154  0.00  0.00    +0.000 A 
ATOM      5  C   UNL     1       1.566   8.391  19.635  0.00  0.00    +0.000 A 
ATOM      6  I   UNL     1       0.759   8.610  21.491  0.00  0.00    +0.000 I 
ENDROOT
BRANCH   1   7
ATOM      7  C   UNL     1       1.337  10.727  18.644  0.00  0.00    +0.000 C 
BRANCH   7  12
ATOM      8  C   UNL     1      -4.250  11.815  18.707  0.00  0.00    +0.000 C 
ATOM      9  C   UNL     1      -2.775  11.575  18.634  0.00  0.00    +0.000 A 
ATOM     10  N   UNL     1      -2.340  10.547  17.889  0.00  0.00    +0.000 NA
ATOM     11  C   UNL     1      -1.013  10.336  17.894  0.00  0.00    +0.000 A 
ATOM     12  C   UNL     1      -0.107  11.103  18.602  0.00  0.00    +0.000 A 
ATOM     13  C   UNL     1      -0.660  12.145  19.324  0.00  0.00    +0.000 A 
ATOM     14  N   UNL     1      -1.978  12.389  19.351  0.00  0.00    +0.000 NA
BRANCH  13  15
ATOM     15  N   UNL     1       0.102  12.949  20.161  0.00  0.00    +0.000 N 
ATOM     16  H   UNL     1      -0.390  13.774  20.503  0.00  0.00    +0.000 HD
ATOM     17  H   UNL     1       0.439  12.370  20.928  0.00  0.00    +0.000 HD
ENDBRANCH  13  15
ENDBRANCH   7  12
ENDBRANCH   1   7
BRANCH   4  18
ATOM     18  C   UNL     1       2.774   6.078  19.819  0.00  0.00    +0.000 C 
BRANCH  18  19
ATOM     19  O   UNL     1       2.841   4.961  18.925  0.00  0.00    +0.000 OA
BRANCH  19  20
ATOM     20  C   UNL     1       3.986   4.242  18.975  0.00  0.00    +0.000 C 
ATOM     21  O   UNL     1       4.250   3.359  19.769  0.00  0.00    +0.000 OA
BRANCH  20  22
ATOM     22  C   UNL     1       4.891   4.681  17.879  0.00  0.00    +0.000 A 
ATOM     23  C   UNL     1       4.898   4.049  16.624  0.00  0.00    +0.000 A 
ATOM     24  C   UNL     1       5.784   4.464  15.631  0.00  0.00    +0.000 A 
ATOM     25  C   UNL     1       6.664   5.515  15.884  0.00  0.00    +0.000 A 
ATOM     26  C   UNL     1       6.648   6.154  17.124  0.00  0.00    +0.000 A 
ATOM     27 CL   UNL     1       7.734   7.454  17.422  0.00  0.00    +0.000 Cl
ATOM     28  C   UNL     1       5.766   5.744  18.123  0.00  0.00    +0.000 A 
ENDBRANCH  20  22
ENDBRANCH  19  20
ENDBRANCH  18  19
ENDBRANCH   4  18
TORSDOF 7
ENDMDL
MODEL 9
REMARK VINA RESULT:      -7.0      3.978      9.193
REMARK  Name = 
REMARK  8 active torsions:
REMARK  status: ('A' for Active; 'I' for Inactive)
REMARK    1  A    between atoms: C_1  and  C_2
REMARK    2  A    between atoms: C_5  and  C_6
REMARK    3  A    between atoms: C_6  and  N_7
REMARK    4  A    between atoms: C_10  and  C_11
REMARK    5  A    between atoms: C_11  and  O_12
REMARK    6  A    between atoms: O_12  and  C_13
REMARK    7  A    between atoms: C_13  and  C_15
REMARK    8  A    between atoms: C_24  and  N_25
REMARK                            x       y       z     vdW  Elec       q    Type
REMARK                         _______ _______ _______ _____ _____    ______ ____
ROOT
ATOM      1  N   UNL     1       3.832   4.923  18.814  0.00  0.00    +0.000 N 
ATOM      2  N   UNL     1       4.097   6.144  18.301  0.00  0.00    +0.000 NA
ATOM      3  N   UNL     1       3.309   7.018  18.908  0.00  0.00    +0.000 NA
ATOM      4  C   UNL     1       2.552   6.347  19.841  0.00  0.00    +0.000 A 
ATOM      5  C   UNL     1       2.929   5.020  19.840  0.00  0.00    +0.000 A 
ATOM      6  I   UNL     1       2.223   3.533  21.038  0.00  0.00    +0.000 I 
ENDROOT
BRANCH   1   7
ATOM      7  C   UNL     1       4.268   3.742  18.089  0.00  0.00    +0.000 C 
BRANCH   7  12
ATOM      8  C   UNL     1       7.625   5.215  13.734  0.00  0.00    +0.000 C 
ATOM      9  C   UNL     1       6.763   4.758  14.868  0.00  0.00    +0.000 A 
ATOM     10  N   UNL     1       5.482   4.460  14.604  0.00  0.00    +0.000 NA
ATOM     11  C   UNL     1       4.731   4.105  15.660  0.00  0.00    +0.000 A 
ATOM     12  C   UNL     1       5.200   4.032  16.959  0.00  0.00    +0.000 A 
ATOM     13  C   UNL     1       6.537   4.346  17.116  0.00  0.00    +0.000 A 
ATOM     14  N   UNL     1       7.322   4.709  16.091  0.00  0.00    +0.000 NA
BRANCH  13  15
ATOM     15  N   UNL     1       7.138   4.412  18.366  0.00  0.00    +0.000 N 
ATOM     16  H   UNL     1       8.108   4.096  18.377  0.00  0.00    +0.000 HD
ATOM     17  H   UNL     1       7.054   5.370  18.702  0.00  0.00    +0.000 HD
ENDBRANCH  13  15
ENDBRANCH   7  12
ENDBRANCH   1   7
BRANCH   4  18
ATOM     18  C   UNL     1       1.493   7.074  20.590  0.00  0.00    +0.000 C 
BRANCH  18  19
ATOM     19  O   UNL     1       1.478   8.476  20.303  0.00  0.00    +0.000 OA
BRANCH  19  20
ATOM     20  C   UNL     1       1.101   9.277  21.327  0.00  0.00    +0.000 C 
ATOM     21  O   UNL     1       1.534   9.247  22.463  0.00  0.00    +0.000 OA
BRANCH  20  22
ATOM     22  C   UNL     1       0.071  10.237  20.848  0.00  0.00    +0.000 A 
ATOM     23  C   UNL     1      -0.460  11.233  21.684  0.00  0.00    +0.000 A 
ATOM     24  C   UNL     1      -1.451  12.094  21.213  0.00  0.00    +0.000 A 
ATOM     25  C   UNL     1      -1.912  11.969  19.904  0.00  0.00    +0.000 A 
ATOM     26  C   UNL     1      -1.374  10.990  19.068  0.00  0.00    +0.000 A 
ATOM     27 CL   UNL     1      -1.947  10.849  17.451  0.00  0.00    +0.000 Cl
ATOM     28  C   UNL     1      -0.385  10.124  19.531  0.00  0.00    +0.000 A 
ENDBRANCH  20  22
ENDBRANCH  19  20
ENDBRANCH  18  19
ENDBRANCH   4  18
TORSDOF 7
ENDMDL
