MODEL 1
REMARK VINA RESULT:      -8.5      0.000      0.000
REMARK  Name = 
REMARK  4 active torsions:
REMARK  status: ('A' for Active; 'I' for Inactive)
REMARK    1  A    between atoms: C_1  and  C_2
REMARK    2  A    between atoms: C_2  and  N_3
REMARK    3  A    between atoms: C_8  and  C_9
REMARK    4  A    between atoms: N_15  and  C_16
REMARK                            x       y       z     vdW  Elec       q    Type
REMARK                         _______ _______ _______ _____ _____    ______ ____
ROOT
ATOM      1  C   UNL     1       0.439  10.081  20.121  0.00  0.00    +0.000 A 
ATOM      2  C   UNL     1       0.796  10.412  18.793  0.00  0.00    +0.000 A 
ATOM      3  C   UNL     1       1.610   9.592  17.991  0.00  0.00    +0.000 A 
ATOM      4  C   UNL     1       2.060   8.422  18.585  0.00  0.00    +0.000 A 
ATOM      5  O   UNL     1       2.828   7.441  18.025  0.00  0.00    +0.000 OA
ATOM      6  C   UNL     1       2.957   6.514  19.020  0.00  0.00    +0.000 A 
ATOM      7  N   UNL     1       3.624   5.390  18.690  0.00  0.00    +0.000 N 
ATOM      8  N   UNL     1       2.362   6.835  20.152  0.00  0.00    +0.000 NA
ATOM      9  C   UNL     1       1.772   8.046  19.883  0.00  0.00    +0.000 A 
ATOM     10  C   UNL     1       0.958   8.883  20.668  0.00  0.00    +0.000 A 
ATOM     11  H   UNL     1       3.787   5.235  17.703  0.00  0.00    +0.000 HD
ENDROOT
BRANCH   1  17
ATOM     12  N   UNL     1      -3.319  13.325  22.870  0.00  0.00    +0.000 N 
ATOM     13  C   UNL     1      -3.955  13.933  21.817  0.00  0.00    +0.000 A 
ATOM     14  C   UNL     1      -3.369  13.485  20.655  0.00  0.00    +0.000 A 
ATOM     15  C   UNL     1      -2.339  12.571  21.012  0.00  0.00    +0.000 A 
ATOM     16  C   UNL     1      -1.430  11.781  20.271  0.00  0.00    +0.000 A 
ATOM     17  C   UNL     1      -0.484  10.948  20.907  0.00  0.00    +0.000 A 
ATOM     18  C   UNL     1      -0.470  10.952  22.312  0.00  0.00    +0.000 A 
ATOM     19  C   UNL     1      -1.371  11.714  23.080  0.00  0.00    +0.000 A 
ATOM     20  C   UNL     1      -2.306  12.507  22.405  0.00  0.00    +0.000 A 
BRANCH  12  22
ATOM     21  C   UNL     1      -4.667  12.406  24.724  0.00  0.00    +0.000 C 
ATOM     22  C   UNL     1      -3.709  13.488  24.261  0.00  0.00    +0.000 C 
ENDBRANCH  12  22
ENDBRANCH   1  17
BRANCH   7  23
ATOM     23  C   UNL     1       3.476   4.206  19.533  0.00  0.00    +0.000 C 
ATOM     24  C   UNL     1       1.994   3.915  19.833  0.00  0.00    +0.000 C 
ATOM     25  C   UNL     1       1.261   3.195  18.706  0.00  0.00    +0.000 C 
ATOM     26  C   UNL     1       1.989   1.922  18.302  0.00  0.00    +0.000 C 
ATOM     27  C   UNL     1       3.407   2.238  17.845  0.00  0.00    +0.000 C 
ATOM     28  C   UNL     1       4.201   2.999  18.907  0.00  0.00    +0.000 C 
ENDBRANCH   7  23
TORSDOF 3
ENDMDL
MODEL 2
REMARK VINA RESULT:      -8.4      1.417      1.872
REMARK  Name = 
REMARK  4 active torsions:
REMARK  status: ('A' for Active; 'I' for Inactive)
REMARK    1  A    between atoms: C_1  and  C_2
REMARK    2  A    between atoms: C_2  and  N_3
REMARK    3  A    between atoms: C_8  and  C_9
REMARK    4  A    between atoms: N_15  and  C_16
REMARK                            x       y       z     vdW  Elec       q    Type
REMARK                         _______ _______ _______ _____ _____    ______ ____
ROOT
ATOM      1  C   UNL     1       0.289  10.781  20.860  0.00  0.00    +0.000 A 
ATOM      2  C   UNL     1       0.582  11.010  19.495  0.00  0.00    +0.000 A 
ATOM      3  C   UNL     1       1.209  10.055  18.674  0.00  0.00    +0.000 A 
ATOM      4  C   UNL     1       1.537   8.855  19.288  0.00  0.00    +0.000 A 
ATOM      5  O   UNL     1       2.115   7.755  18.720  0.00  0.00    +0.000 OA
ATOM      6  C   UNL     1       2.193   6.856  19.745  0.00  0.00    +0.000 A 
ATOM      7  N   UNL     1       2.670   5.637  19.419  0.00  0.00    +0.000 N 
ATOM      8  N   UNL     1       1.739   7.298  20.901  0.00  0.00    +0.000 NA
ATOM      9  C   UNL     1       1.303   8.570  20.619  0.00  0.00    +0.000 A 
ATOM     10  C   UNL     1       0.678   9.541  21.422  0.00  0.00    +0.000 A 
ATOM     11  H   UNL     1       2.731   5.425  18.431  0.00  0.00    +0.000 HD
ENDROOT
BRANCH   1  17
ATOM     12  N   UNL     1      -2.583  14.392  24.162  0.00  0.00    +0.000 N 
ATOM     13  C   UNL     1      -3.660  13.619  24.516  0.00  0.00    +0.000 A 
ATOM     14  C   UNL     1      -3.524  12.398  23.895  0.00  0.00    +0.000 A 
ATOM     15  C   UNL     1      -2.322  12.428  23.136  0.00  0.00    +0.000 A 
ATOM     16  C   UNL     1      -1.649  11.482  22.329  0.00  0.00    +0.000 A 
ATOM     17  C   UNL     1      -0.440  11.797  21.670  0.00  0.00    +0.000 A 
ATOM     18  C   UNL     1       0.057  13.101  21.835  0.00  0.00    +0.000 A 
ATOM     19  C   UNL     1      -0.579  14.061  22.643  0.00  0.00    +0.000 A 
ATOM     20  C   UNL     1      -1.762  13.696  23.296  0.00  0.00    +0.000 A 
BRANCH  12  22
ATOM     21  C   UNL     1      -1.456  15.710  25.922  0.00  0.00    +0.000 C 
ATOM     22  C   UNL     1      -2.332  15.726  24.683  0.00  0.00    +0.000 C 
ENDBRANCH  12  22
ENDBRANCH   1  17
BRANCH   7  23
ATOM     23  C   UNL     1       2.426   4.517  20.325  0.00  0.00    +0.000 C 
ATOM     24  C   UNL     1       0.989   3.983  20.178  0.00  0.00    +0.000 C 
ATOM     25  C   UNL     1       0.791   3.052  18.986  0.00  0.00    +0.000 C 
ATOM     26  C   UNL     1       1.793   1.907  19.009  0.00  0.00    +0.000 C 
ATOM     27  C   UNL     1       3.218   2.442  18.985  0.00  0.00    +0.000 C 
ATOM     28  C   UNL     1       3.489   3.419  20.130  0.00  0.00    +0.000 C 
ENDBRANCH   7  23
TORSDOF 3
ENDMDL
MODEL 3
REMARK VINA RESULT:      -8.3      1.993      9.808
REMARK  Name = 
REMARK  4 active torsions:
REMARK  status: ('A' for Active; 'I' for Inactive)
REMARK    1  A    between atoms: C_1  and  C_2
REMARK    2  A    between atoms: C_2  and  N_3
REMARK    3  A    between atoms: C_8  and  C_9
REMARK    4  A    between atoms: N_15  and  C_16
REMARK                            x       y       z     vdW  Elec       q    Type
REMARK                         _______ _______ _______ _____ _____    ______ ____
ROOT
ATOM      1  C   UNL     1       1.440   8.321  19.863  0.00  0.00    +0.000 A 
ATOM      2  C   UNL     1       1.644   9.192  18.767  0.00  0.00    +0.000 A 
ATOM      3  C   UNL     1       1.146  10.506  18.728  0.00  0.00    +0.000 A 
ATOM      4  C   UNL     1       0.422  10.910  19.841  0.00  0.00    +0.000 A 
ATOM      5  O   UNL     1      -0.138  12.133  20.075  0.00  0.00    +0.000 OA
ATOM      6  C   UNL     1      -0.704  12.006  21.312  0.00  0.00    +0.000 A 
ATOM      7  N   UNL     1      -1.270  13.122  21.814  0.00  0.00    +0.000 N 
ATOM      8  N   UNL     1      -0.568  10.815  21.859  0.00  0.00    +0.000 NA
ATOM      9  C   UNL     1       0.163  10.109  20.936  0.00  0.00    +0.000 A 
ATOM     10  C   UNL     1       0.669   8.796  20.952  0.00  0.00    +0.000 A 
ATOM     11  H   UNL     1      -1.051  13.991  21.342  0.00  0.00    +0.000 HD
ENDROOT
BRANCH   1  17
ATOM     12  N   UNL     1       3.446   3.017  20.067  0.00  0.00    +0.000 N 
ATOM     13  C   UNL     1       2.796   2.536  21.175  0.00  0.00    +0.000 A 
ATOM     14  C   UNL     1       2.022   3.554  21.684  0.00  0.00    +0.000 A 
ATOM     15  C   UNL     1       2.207   4.696  20.856  0.00  0.00    +0.000 A 
ATOM     16  C   UNL     1       1.667   6.003  20.855  0.00  0.00    +0.000 A 
ATOM     17  C   UNL     1       2.048   6.961  19.889  0.00  0.00    +0.000 A 
ATOM     18  C   UNL     1       3.005   6.565  18.939  0.00  0.00    +0.000 A 
ATOM     19  C   UNL     1       3.549   5.268  18.902  0.00  0.00    +0.000 A 
ATOM     20  C   UNL     1       3.124   4.346  19.865  0.00  0.00    +0.000 A 
BRANCH  12  22
ATOM     21  C   UNL     1       3.544   1.611  18.037  0.00  0.00    +0.000 C 
ATOM     22  C   UNL     1       4.299   2.210  19.210  0.00  0.00    +0.000 C 
ENDBRANCH  12  22
ENDBRANCH   1  17
BRANCH   7  23
ATOM     23  C   UNL     1      -1.539  13.195  23.248  0.00  0.00    +0.000 C 
ATOM     24  C   UNL     1      -1.239  14.599  23.803  0.00  0.00    +0.000 C 
ATOM     25  C   UNL     1      -2.347  15.617  23.551  0.00  0.00    +0.000 C 
ATOM     26  C   UNL     1      -3.686  15.110  24.064  0.00  0.00    +0.000 C 
ATOM     27  C   UNL     1      -4.058  13.799  23.385  0.00  0.00    +0.000 C 
ATOM     28  C   UNL     1      -2.976  12.732  23.556  0.00  0.00    +0.000 C 
ENDBRANCH   7  23
TORSDOF 3
ENDMDL
MODEL 4
REMARK VINA RESULT:      -8.2      2.022      9.805
REMARK  Name = 
REMARK  4 active torsions:
REMARK  status: ('A' for Active; 'I' for Inactive)
REMARK    1  A    between atoms: C_1  and  C_2
REMARK    2  A    between atoms: C_2  and  N_3
REMARK    3  A    between atoms: C_8  and  C_9
REMARK    4  A    between atoms: N_15  and  C_16
REMARK                            x       y       z     vdW  Elec       q    Type
REMARK                         _______ _______ _______ _____ _____    ______ ____
ROOT
ATOM      1  C   UNL     1       1.623   8.838  19.243  0.00  0.00    +0.000 A 
ATOM      2  C   UNL     1       1.875   9.867  18.305  0.00  0.00    +0.000 A 
ATOM      3  C   UNL     1       1.388  11.177  18.454  0.00  0.00    +0.000 A 
ATOM      4  C   UNL     1       0.625  11.412  19.589  0.00  0.00    +0.000 A 
ATOM      5  O   UNL     1       0.065  12.591  19.991  0.00  0.00    +0.000 OA
ATOM      6  C   UNL     1      -0.549  12.280  21.171  0.00  0.00    +0.000 A 
ATOM      7  N   UNL     1      -1.125  13.311  21.821  0.00  0.00    +0.000 N 
ATOM      8  N   UNL     1      -0.442  11.016  21.530  0.00  0.00    +0.000 NA
ATOM      9  C   UNL     1       0.318  10.453  20.535  0.00  0.00    +0.000 A 
ATOM     10  C   UNL     1       0.814   9.148  20.364  0.00  0.00    +0.000 A 
ATOM     11  H   UNL     1      -0.882  14.240  21.500  0.00  0.00    +0.000 HD
ENDROOT
BRANCH   1  17
ATOM     12  N   UNL     1       4.180   3.831  18.478  0.00  0.00    +0.000 N 
ATOM     13  C   UNL     1       4.834   4.052  17.293  0.00  0.00    +0.000 A 
ATOM     14  C   UNL     1       4.536   5.331  16.880  0.00  0.00    +0.000 A 
ATOM     15  C   UNL     1       3.670   5.910  17.848  0.00  0.00    +0.000 A 
ATOM     16  C   UNL     1       3.064   7.180  17.987  0.00  0.00    +0.000 A 
ATOM     17  C   UNL     1       2.219   7.483  19.078  0.00  0.00    +0.000 A 
ATOM     18  C   UNL     1       1.989   6.459  20.012  0.00  0.00    +0.000 A 
ATOM     19  C   UNL     1       2.589   5.190  19.913  0.00  0.00    +0.000 A 
ATOM     20  C   UNL     1       3.437   4.943  18.827  0.00  0.00    +0.000 A 
BRANCH  12  22
ATOM     21  C   UNL     1       3.643   1.423  18.605  0.00  0.00    +0.000 C 
ATOM     22  C   UNL     1       4.311   2.616  19.265  0.00  0.00    +0.000 C 
ENDBRANCH  12  22
ENDBRANCH   1  17
BRANCH   7  23
ATOM     23  C   UNL     1      -1.449  13.163  23.237  0.00  0.00    +0.000 C 
ATOM     24  C   UNL     1      -1.294  14.497  23.990  0.00  0.00    +0.000 C 
ATOM     25  C   UNL     1      -2.479  15.444  23.826  0.00  0.00    +0.000 C 
ATOM     26  C   UNL     1      -3.785  14.760  24.204  0.00  0.00    +0.000 C 
ATOM     27  C   UNL     1      -4.015  13.529  23.338  0.00  0.00    +0.000 C 
ATOM     28  C   UNL     1      -2.848  12.543  23.414  0.00  0.00    +0.000 C 
ENDBRANCH   7  23
TORSDOF 3
ENDMDL
MODEL 5
REMARK VINA RESULT:      -8.1      2.135      9.929
REMARK  Name = 
REMARK  4 active torsions:
REMARK  status: ('A' for Active; 'I' for Inactive)
REMARK    1  A    between atoms: C_1  and  C_2
REMARK    2  A    between atoms: C_2  and  N_3
REMARK    3  A    between atoms: C_8  and  C_9
REMARK    4  A    between atoms: N_15  and  C_16
REMARK                            x       y       z     vdW  Elec       q    Type
REMARK                         _______ _______ _______ _____ _____    ______ ____
ROOT
ATOM      1  C   UNL     1       1.299   8.846  18.940  0.00  0.00    +0.000 A 
ATOM      2  C   UNL     1       0.763   9.591  17.863  0.00  0.00    +0.000 A 
ATOM      3  C   UNL     1      -0.178  10.621  18.036  0.00  0.00    +0.000 A 
ATOM      4  C   UNL     1      -0.568  10.869  19.345  0.00  0.00    +0.000 A 
ATOM      5  O   UNL     1      -1.433  11.826  19.792  0.00  0.00    +0.000 OA
ATOM      6  C   UNL     1      -1.443  11.654  21.147  0.00  0.00    +0.000 A 
ATOM      7  N   UNL     1      -2.179  12.543  21.845  0.00  0.00    +0.000 N 
ATOM      8  N   UNL     1      -0.683  10.669  21.583  0.00  0.00    +0.000 NA
ATOM      9  C   UNL     1      -0.107  10.168  20.442  0.00  0.00    +0.000 A 
ATOM     10  C   UNL     1       0.832   9.139  20.245  0.00  0.00    +0.000 A 
ATOM     11  H   UNL     1      -2.486  13.368  21.344  0.00  0.00    +0.000 HD
ENDROOT
BRANCH   1  17
ATOM     12  N   UNL     1       5.056   4.663  18.174  0.00  0.00    +0.000 N 
ATOM     13  C   UNL     1       4.729   3.828  19.213  0.00  0.00    +0.000 A 
ATOM     14  C   UNL     1       3.700   4.413  19.915  0.00  0.00    +0.000 A 
ATOM     15  C   UNL     1       3.388   5.648  19.283  0.00  0.00    +0.000 A 
ATOM     16  C   UNL     1       2.425   6.655  19.521  0.00  0.00    +0.000 A 
ATOM     17  C   UNL     1       2.347   7.811  18.714  0.00  0.00    +0.000 A 
ATOM     18  C   UNL     1       3.283   7.928  17.672  0.00  0.00    +0.000 A 
ATOM     19  C   UNL     1       4.243   6.938  17.398  0.00  0.00    +0.000 A 
ATOM     20  C   UNL     1       4.268   5.798  18.210  0.00  0.00    +0.000 A 
BRANCH  12  22
ATOM     21  C   UNL     1       7.460   4.694  17.606  0.00  0.00    +0.000 C 
ATOM     22  C   UNL     1       6.050   4.351  17.160  0.00  0.00    +0.000 C 
ENDBRANCH  12  22
ENDBRANCH   1  17
BRANCH   7  23
ATOM     23  C   UNL     1      -1.943  12.687  23.279  0.00  0.00    +0.000 C 
ATOM     24  C   UNL     1      -1.269  14.034  23.602  0.00  0.00    +0.000 C 
ATOM     25  C   UNL     1      -2.232  15.215  23.650  0.00  0.00    +0.000 C 
ATOM     26  C   UNL     1      -3.385  14.947  24.605  0.00  0.00    +0.000 C 
ATOM     27  C   UNL     1      -4.153  13.702  24.182  0.00  0.00    +0.000 C 
ATOM     28  C   UNL     1      -3.248  12.474  24.070  0.00  0.00    +0.000 C 
ENDBRANCH   7  23
TORSDOF 3
ENDMDL
MODEL 6
REMARK VINA RESULT:      -8.1      3.091      9.933
REMARK  Name = 
REMARK  4 active torsions:
REMARK  status: ('A' for Active; 'I' for Inactive)
REMARK    1  A    between atoms: C_1  and  C_2
REMARK    2  A    between atoms: C_2  and  N_3
REMARK    3  A    between atoms: C_8  and  C_9
REMARK    4  A    between atoms: N_15  and  C_16
REMARK                            x       y       z     vdW  Elec       q    Type
REMARK                         _______ _______ _______ _____ _____    ______ ____
ROOT
ATOM      1  C   UNL     1       1.367   9.243  18.141  0.00  0.00    +0.000 A 
ATOM      2  C   UNL     1       1.884  10.464  18.633  0.00  0.00    +0.000 A 
ATOM      3  C   UNL     1       1.081  11.588  18.893  0.00  0.00    +0.000 A 
ATOM      4  C   UNL     1      -0.273  11.437  18.630  0.00  0.00    +0.000 A 
ATOM      5  O   UNL     1      -1.270  12.349  18.824  0.00  0.00    +0.000 OA
ATOM      6  C   UNL     1      -2.401  11.692  18.432  0.00  0.00    +0.000 A 
ATOM      7  N   UNL     1      -3.557  12.365  18.598  0.00  0.00    +0.000 N 
ATOM      8  N   UNL     1      -2.200  10.465  17.992  0.00  0.00    +0.000 NA
ATOM      9  C   UNL     1      -0.845  10.284  18.127  0.00  0.00    +0.000 A 
ATOM     10  C   UNL     1      -0.022   9.173  17.872  0.00  0.00    +0.000 A 
ATOM     11  H   UNL     1      -3.518  13.194  19.178  0.00  0.00    +0.000 HD
ENDROOT
BRANCH   1  17
ATOM     12  N   UNL     1       4.437   4.544  17.307  0.00  0.00    +0.000 N 
ATOM     13  C   UNL     1       3.563   3.582  17.747  0.00  0.00    +0.000 A 
ATOM     14  C   UNL     1       2.421   4.217  18.179  0.00  0.00    +0.000 A 
ATOM     15  C   UNL     1       2.605   5.615  17.996  0.00  0.00    +0.000 A 
ATOM     16  C   UNL     1       1.789   6.748  18.221  0.00  0.00    +0.000 A 
ATOM     17  C   UNL     1       2.247   8.056  17.947  0.00  0.00    +0.000 A 
ATOM     18  C   UNL     1       3.559   8.185  17.460  0.00  0.00    +0.000 A 
ATOM     19  C   UNL     1       4.390   7.079  17.210  0.00  0.00    +0.000 A 
ATOM     20  C   UNL     1       3.885   5.800  17.474  0.00  0.00    +0.000 A 
BRANCH  12  22
ATOM     21  C   UNL     1       5.656   4.196  15.187  0.00  0.00    +0.000 C 
ATOM     22  C   UNL     1       5.727   4.256  16.702  0.00  0.00    +0.000 C 
ENDBRANCH  12  22
ENDBRANCH   1  17
BRANCH   7  23
ATOM     23  C   UNL     1      -4.816  11.623  18.585  0.00  0.00    +0.000 C 
ATOM     24  C   UNL     1      -5.695  11.993  19.794  0.00  0.00    +0.000 C 
ATOM     25  C   UNL     1      -6.470  13.296  19.623  0.00  0.00    +0.000 C 
ATOM     26  C   UNL     1      -7.291  13.284  18.343  0.00  0.00    +0.000 C 
ATOM     27  C   UNL     1      -6.391  13.084  17.131  0.00  0.00    +0.000 C 
ATOM     28  C   UNL     1      -5.546  11.815  17.241  0.00  0.00    +0.000 C 
ENDBRANCH   7  23
TORSDOF 3
ENDMDL
MODEL 7
REMARK VINA RESULT:      -8.1      2.378      3.131
REMARK  Name = 
REMARK  4 active torsions:
REMARK  status: ('A' for Active; 'I' for Inactive)
REMARK    1  A    between atoms: C_1  and  C_2
REMARK    2  A    between atoms: C_2  and  N_3
REMARK    3  A    between atoms: C_8  and  C_9
REMARK    4  A    between atoms: N_15  and  C_16
REMARK                            x       y       z     vdW  Elec       q    Type
REMARK                         _______ _______ _______ _____ _____    ______ ____
ROOT
ATOM      1  C   UNL     1       0.694   8.721  20.685  0.00  0.00    +0.000 A 
ATOM      2  C   UNL     1       0.665   7.501  21.400  0.00  0.00    +0.000 A 
ATOM      3  C   UNL     1       1.429   6.379  21.034  0.00  0.00    +0.000 A 
ATOM      4  C   UNL     1       2.225   6.532  19.908  0.00  0.00    +0.000 A 
ATOM      5  O   UNL     1       3.083   5.622  19.360  0.00  0.00    +0.000 OA
ATOM      6  C   UNL     1       3.626   6.280  18.293  0.00  0.00    +0.000 A 
ATOM      7  N   UNL     1       4.579   5.609  17.615  0.00  0.00    +0.000 N 
ATOM      8  N   UNL     1       3.172   7.505  18.113  0.00  0.00    +0.000 NA
ATOM      9  C   UNL     1       2.287   7.684  19.147  0.00  0.00    +0.000 A 
ATOM     10  C   UNL     1       1.511   8.793  19.530  0.00  0.00    +0.000 A 
ATOM     11  H   UNL     1       4.955   4.782  18.062  0.00  0.00    +0.000 HD
ENDROOT
BRANCH   1  17
ATOM     12  N   UNL     1      -2.447  13.206  22.174  0.00  0.00    +0.000 N 
ATOM     13  C   UNL     1      -2.643  13.802  20.954  0.00  0.00    +0.000 A 
ATOM     14  C   UNL     1      -1.982  13.051  20.008  0.00  0.00    +0.000 A 
ATOM     15  C   UNL     1      -1.361  11.959  20.675  0.00  0.00    +0.000 A 
ATOM     16  C   UNL     1      -0.587  10.858  20.241  0.00  0.00    +0.000 A 
ATOM     17  C   UNL     1      -0.080   9.905  21.153  0.00  0.00    +0.000 A 
ATOM     18  C   UNL     1      -0.361  10.110  22.514  0.00  0.00    +0.000 A 
ATOM     19  C   UNL     1      -1.141  11.185  22.977  0.00  0.00    +0.000 A 
ATOM     20  C   UNL     1      -1.642  12.091  22.035  0.00  0.00    +0.000 A 
BRANCH  12  22
ATOM     21  C   UNL     1      -4.320  12.899  23.755  0.00  0.00    +0.000 C 
ATOM     22  C   UNL     1      -3.056  13.666  23.411  0.00  0.00    +0.000 C 
ENDBRANCH  12  22
ENDBRANCH   1  17
BRANCH   7  23
ATOM     23  C   UNL     1       5.476   6.353  16.734  0.00  0.00    +0.000 C 
ATOM     24  C   UNL     1       6.951   6.025  17.032  0.00  0.00    +0.000 C 
ATOM     25  C   UNL     1       7.436   4.719  16.410  0.00  0.00    +0.000 C 
ATOM     26  C   UNL     1       7.169   4.691  14.913  0.00  0.00    +0.000 C 
ATOM     27  C   UNL     1       5.681   4.848  14.631  0.00  0.00    +0.000 C 
ATOM     28  C   UNL     1       5.105   6.119  15.257  0.00  0.00    +0.000 C 
ENDBRANCH   7  23
TORSDOF 3
ENDMDL
MODEL 8
REMARK VINA RESULT:      -8.1      3.053      9.708
REMARK  Name = 
REMARK  4 active torsions:
REMARK  status: ('A' for Active; 'I' for Inactive)
REMARK    1  A    between atoms: C_1  and  C_2
REMARK    2  A    between atoms: C_2  and  N_3
REMARK    3  A    between atoms: C_8  and  C_9
REMARK    4  A    between atoms: N_15  and  C_16
REMARK                            x       y       z     vdW  Elec       q    Type
REMARK                         _______ _______ _______ _____ _____    ______ ____
ROOT
ATOM      1  C   UNL     1       1.189   9.478  18.485  0.00  0.00    +0.000 A 
ATOM      2  C   UNL     1       1.676  10.783  18.735  0.00  0.00    +0.000 A 
ATOM      3  C   UNL     1       0.839  11.907  18.842  0.00  0.00    +0.000 A 
ATOM      4  C   UNL     1      -0.518  11.666  18.678  0.00  0.00    +0.000 A 
ATOM      5  O   UNL     1      -1.543  12.564  18.765  0.00  0.00    +0.000 OA
ATOM      6  C   UNL     1      -2.662  11.811  18.549  0.00  0.00    +0.000 A 
ATOM      7  N   UNL     1      -3.837  12.463  18.658  0.00  0.00    +0.000 N 
ATOM      8  N   UNL     1      -2.429  10.535  18.314  0.00  0.00    +0.000 NA
ATOM      9  C   UNL     1      -1.063  10.426  18.408  0.00  0.00    +0.000 A 
ATOM     10  C   UNL     1      -0.206   9.316  18.303  0.00  0.00    +0.000 A 
ATOM     11  H   UNL     1      -3.807  13.380  19.085  0.00  0.00    +0.000 HD
ENDROOT
BRANCH   1  17
ATOM     12  N   UNL     1       4.936   5.226  18.210  0.00  0.00    +0.000 N 
ATOM     13  C   UNL     1       5.552   5.500  17.015  0.00  0.00    +0.000 A 
ATOM     14  C   UNL     1       4.958   6.622  16.483  0.00  0.00    +0.000 A 
ATOM     15  C   UNL     1       3.945   7.047  17.386  0.00  0.00    +0.000 A 
ATOM     16  C   UNL     1       3.037   8.132  17.400  0.00  0.00    +0.000 A 
ATOM     17  C   UNL     1       2.110   8.307  18.451  0.00  0.00    +0.000 A 
ATOM     18  C   UNL     1       2.113   7.344  19.474  0.00  0.00    +0.000 A 
ATOM     19  C   UNL     1       3.012   6.262  19.498  0.00  0.00    +0.000 A 
ATOM     20  C   UNL     1       3.929   6.142  18.447  0.00  0.00    +0.000 A 
BRANCH  12  22
ATOM     21  C   UNL     1       4.348   3.009  19.126  0.00  0.00    +0.000 C 
ATOM     22  C   UNL     1       5.341   4.157  19.108  0.00  0.00    +0.000 C 
ENDBRANCH  12  22
ENDBRANCH   1  17
BRANCH   7  23
ATOM     23  C   UNL     1      -5.062  11.688  18.835  0.00  0.00    +0.000 C 
ATOM     24  C   UNL     1      -5.918  12.250  19.984  0.00  0.00    +0.000 C 
ATOM     25  C   UNL     1      -6.754  13.468  19.599  0.00  0.00    +0.000 C 
ATOM     26  C   UNL     1      -7.613  13.181  18.378  0.00  0.00    +0.000 C 
ATOM     27  C   UNL     1      -6.743  12.785  17.192  0.00  0.00    +0.000 C 
ATOM     28  C   UNL     1      -5.842  11.591  17.509  0.00  0.00    +0.000 C 
ENDBRANCH   7  23
TORSDOF 3
ENDMDL
MODEL 9
REMARK VINA RESULT:      -8.0      1.383      1.573
REMARK  Name = 
REMARK  4 active torsions:
REMARK  status: ('A' for Active; 'I' for Inactive)
REMARK    1  A    between atoms: C_1  and  C_2
REMARK    2  A    between atoms: C_2  and  N_3
REMARK    3  A    between atoms: C_8  and  C_9
REMARK    4  A    between atoms: N_15  and  C_16
REMARK                            x       y       z     vdW  Elec       q    Type
REMARK                         _______ _______ _______ _____ _____    ______ ____
ROOT
ATOM      1  C   UNL     1       0.681  10.353  20.511  0.00  0.00    +0.000 A 
ATOM      2  C   UNL     1       0.818  10.583  19.122  0.00  0.00    +0.000 A 
ATOM      3  C   UNL     1       1.366   9.637  18.238  0.00  0.00    +0.000 A 
ATOM      4  C   UNL     1       1.782   8.444  18.813  0.00  0.00    +0.000 A 
ATOM      5  O   UNL     1       2.312   7.353  18.185  0.00  0.00    +0.000 OA
ATOM      6  C   UNL     1       2.519   6.458  19.196  0.00  0.00    +0.000 A 
ATOM      7  N   UNL     1       2.978   5.247  18.821  0.00  0.00    +0.000 N 
ATOM      8  N   UNL     1       2.188   6.896  20.395  0.00  0.00    +0.000 NA
ATOM      9  C   UNL     1       1.701   8.159  20.162  0.00  0.00    +0.000 A 
ATOM     10  C   UNL     1       1.152   9.122  21.028  0.00  0.00    +0.000 A 
ATOM     11  H   UNL     1       2.933   5.033  17.832  0.00  0.00    +0.000 HD
ENDROOT
BRANCH   1  17
ATOM     12  N   UNL     1      -1.788  14.410  23.615  0.00  0.00    +0.000 N 
ATOM     13  C   UNL     1      -1.113  15.520  23.176  0.00  0.00    +0.000 A 
ATOM     14  C   UNL     1      -0.186  15.108  22.246  0.00  0.00    +0.000 A 
ATOM     15  C   UNL     1      -0.300  13.697  22.114  0.00  0.00    +0.000 A 
ATOM     16  C   UNL     1       0.348  12.732  21.309  0.00  0.00    +0.000 A 
ATOM     17  C   UNL     1       0.029  11.359  21.396  0.00  0.00    +0.000 A 
ATOM     18  C   UNL     1      -0.949  10.988  22.335  0.00  0.00    +0.000 A 
ATOM     19  C   UNL     1      -1.624  11.924  23.140  0.00  0.00    +0.000 A 
ATOM     20  C   UNL     1      -1.291  13.277  23.001  0.00  0.00    +0.000 A 
BRANCH  12  22
ATOM     21  C   UNL     1      -2.939  15.740  25.350  0.00  0.00    +0.000 C 
ATOM     22  C   UNL     1      -2.902  14.452  24.549  0.00  0.00    +0.000 C 
ENDBRANCH  12  22
ENDBRANCH   1  17
BRANCH   7  23
ATOM     23  C   UNL     1       2.855   4.126  19.749  0.00  0.00    +0.000 C 
ATOM     24  C   UNL     1       1.387   3.691  19.909  0.00  0.00    +0.000 C 
ATOM     25  C   UNL     1       0.874   2.802  18.780  0.00  0.00    +0.000 C 
ATOM     26  C   UNL     1       1.776   1.594  18.579  0.00  0.00    +0.000 C 
ATOM     27  C   UNL     1       3.197   2.033  18.254  0.00  0.00    +0.000 C 
ATOM     28  C   UNL     1       3.773   2.964  19.322  0.00  0.00    +0.000 C 
ENDBRANCH   7  23
TORSDOF 3
ENDMDL
