MODEL 1
REMARK VINA RESULT:      -5.5      0.000      0.000
REMARK  Name = 
REMARK  9 active torsions:
REMARK  status: ('A' for Active; 'I' for Inactive)
REMARK    1  A    between atoms: C_1  and  C_2
REMARK    2  A    between atoms: C_2  and  C_3
REMARK    3  A    between atoms: C_3  and  C_4
REMARK    4  A    between atoms: C_4  and  C_5
REMARK    5  A    between atoms: C_5  and  C_6
REMARK    6  A    between atoms: C_6  and  C_7
REMARK    7  A    between atoms: C_7  and  C_8
REMARK    8  A    between atoms: C_8  and  C_9
REMARK    9  A    between atoms: C_12  and  S_13
REMARK                            x       y       z     vdW  Elec       q    Type
REMARK                         _______ _______ _______ _____ _____    ______ ____
ROOT
ATOM      1  C   UNL     1       5.025   4.168  19.127  0.00  0.00    +0.000 C 
ENDROOT
BRANCH   1   2
ATOM      2  C   UNL     1       5.956   4.342  17.981  0.00  0.00    +0.000 A 
ATOM      3  N   UNL     1       7.269   4.580  18.125  0.00  0.00    +0.000 NA
ATOM      4  N   UNL     1       7.668   4.639  16.837  0.00  0.00    +0.000 N 
ATOM      5  C   UNL     1       6.619   4.442  15.993  0.00  0.00    +0.000 A 
ATOM      6  N   UNL     1       5.522   4.248  16.685  0.00  0.00    +0.000 NA
ATOM      7  H   UNL     1       8.642   4.816  16.629  0.00  0.00    +0.000 HD
BRANCH   5   8
ATOM      8  S   UNL     1       6.761   4.450  14.281  0.00  0.00    +0.000 S 
ATOM      9  H   UNL     1       7.999   3.966  14.123  0.00  0.00    +0.000 HD
ENDBRANCH   5   8
ENDBRANCH   1   2
BRANCH   1  10
ATOM     10  C   UNL     1       4.276   5.459  19.450  0.00  0.00    +0.000 C 
BRANCH  10  11
ATOM     11  C   UNL     1       3.366   5.877  18.297  0.00  0.00    +0.000 C 
BRANCH  11  12
ATOM     12  C   UNL     1       1.928   5.442  18.561  0.00  0.00    +0.000 C 
BRANCH  12  13
ATOM     13  C   UNL     1       1.616   4.125  17.859  0.00  0.00    +0.000 C 
BRANCH  13  14
ATOM     14  C   UNL     1       1.156   3.076  18.866  0.00  0.00    +0.000 C 
BRANCH  14  16
ATOM     15  C   UNL     1       1.631   2.853  21.316  0.00  0.00    +0.000 C 
ATOM     16  C   UNL     1       0.956   3.694  20.246  0.00  0.00    +0.000 C 
ENDBRANCH  14  16
ENDBRANCH  13  14
ENDBRANCH  12  13
ENDBRANCH  11  12
ENDBRANCH  10  11
ENDBRANCH   1  10
TORSDOF 8
ENDMDL
MODEL 2
REMARK VINA RESULT:      -5.4      4.107      6.554
REMARK  Name = 
REMARK  9 active torsions:
REMARK  status: ('A' for Active; 'I' for Inactive)
REMARK    1  A    between atoms: C_1  and  C_2
REMARK    2  A    between atoms: C_2  and  C_3
REMARK    3  A    between atoms: C_3  and  C_4
REMARK    4  A    between atoms: C_4  and  C_5
REMARK    5  A    between atoms: C_5  and  C_6
REMARK    6  A    between atoms: C_6  and  C_7
REMARK    7  A    between atoms: C_7  and  C_8
REMARK    8  A    between atoms: C_8  and  C_9
REMARK    9  A    between atoms: C_12  and  S_13
REMARK                            x       y       z     vdW  Elec       q    Type
REMARK                         _______ _______ _______ _____ _____    ______ ____
ROOT
ATOM      1  C   UNL     1       7.114   4.772  15.502  0.00  0.00    +0.000 C 
ENDROOT
BRANCH   1   2
ATOM      2  C   UNL     1       6.002   5.454  16.217  0.00  0.00    +0.000 A 
ATOM      3  N   UNL     1       5.456   6.608  15.802  0.00  0.00    +0.000 NA
ATOM      4  N   UNL     1       4.507   6.801  16.743  0.00  0.00    +0.000 N 
ATOM      5  C   UNL     1       4.516   5.794  17.657  0.00  0.00    +0.000 A 
ATOM      6  N   UNL     1       5.448   4.924  17.352  0.00  0.00    +0.000 NA
ATOM      7  H   UNL     1       3.919   7.623  16.689  0.00  0.00    +0.000 HD
BRANCH   5   8
ATOM      8  S   UNL     1       3.441   5.715  18.995  0.00  0.00    +0.000 S 
ATOM      9  H   UNL     1       3.086   4.425  18.964  0.00  0.00    +0.000 HD
ENDBRANCH   5   8
ENDBRANCH   1   2
BRANCH   1  10
ATOM     10  C   UNL     1       6.951   4.859  13.986  0.00  0.00    +0.000 C 
BRANCH  10  11
ATOM     11  C   UNL     1       6.039   3.753  13.460  0.00  0.00    +0.000 C 
BRANCH  11  12
ATOM     12  C   UNL     1       6.539   3.238  12.115  0.00  0.00    +0.000 C 
BRANCH  12  13
ATOM     13  C   UNL     1       5.406   2.604  11.314  0.00  0.00    +0.000 C 
BRANCH  13  14
ATOM     14  C   UNL     1       4.098   3.353  11.549  0.00  0.00    +0.000 C 
BRANCH  14  16
ATOM     15  C   UNL     1       2.993   4.258   9.491  0.00  0.00    +0.000 C 
ATOM     16  C   UNL     1       3.099   3.071  10.433  0.00  0.00    +0.000 C 
ENDBRANCH  14  16
ENDBRANCH  13  14
ENDBRANCH  12  13
ENDBRANCH  11  12
ENDBRANCH  10  11
ENDBRANCH   1  10
TORSDOF 8
ENDMDL
MODEL 3
REMARK VINA RESULT:      -5.4      1.035      1.190
REMARK  Name = 
REMARK  9 active torsions:
REMARK  status: ('A' for Active; 'I' for Inactive)
REMARK    1  A    between atoms: C_1  and  C_2
REMARK    2  A    between atoms: C_2  and  C_3
REMARK    3  A    between atoms: C_3  and  C_4
REMARK    4  A    between atoms: C_4  and  C_5
REMARK    5  A    between atoms: C_5  and  C_6
REMARK    6  A    between atoms: C_6  and  C_7
REMARK    7  A    between atoms: C_7  and  C_8
REMARK    8  A    between atoms: C_8  and  C_9
REMARK    9  A    between atoms: C_12  and  S_13
REMARK                            x       y       z     vdW  Elec       q    Type
REMARK                         _______ _______ _______ _____ _____    ______ ____
ROOT
ATOM      1  C   UNL     1       6.448   5.100  18.629  0.00  0.00    +0.000 C 
ENDROOT
BRANCH   1   2
ATOM      2  C   UNL     1       6.683   5.158  17.162  0.00  0.00    +0.000 A 
ATOM      3  N   UNL     1       7.440   6.097  16.573  0.00  0.00    +0.000 NA
ATOM      4  N   UNL     1       7.362   5.722  15.278  0.00  0.00    +0.000 N 
ATOM      5  C   UNL     1       6.590   4.611  15.140  0.00  0.00    +0.000 A 
ATOM      6  N   UNL     1       6.147   4.227  16.313  0.00  0.00    +0.000 NA
ATOM      7  H   UNL     1       7.848   6.265  14.577  0.00  0.00    +0.000 HD
BRANCH   5   8
ATOM      8  S   UNL     1       6.273   3.855  13.629  0.00  0.00    +0.000 S 
ATOM      9  H   UNL     1       5.991   4.917  12.864  0.00  0.00    +0.000 HD
ENDBRANCH   5   8
ENDBRANCH   1   2
BRANCH   1  10
ATOM     10  C   UNL     1       4.981   4.823  18.957  0.00  0.00    +0.000 C 
BRANCH  10  11
ATOM     11  C   UNL     1       4.082   5.964  18.487  0.00  0.00    +0.000 C 
BRANCH  11  12
ATOM     12  C   UNL     1       2.690   5.443  18.141  0.00  0.00    +0.000 C 
BRANCH  12  13
ATOM     13  C   UNL     1       2.606   3.933  18.337  0.00  0.00    +0.000 C 
BRANCH  13  14
ATOM     14  C   UNL     1       1.192   3.521  18.734  0.00  0.00    +0.000 C 
BRANCH  14  16
ATOM     15  C   UNL     1       1.869   3.050  21.099  0.00  0.00    +0.000 C 
ATOM     16  C   UNL     1       0.924   3.831  20.202  0.00  0.00    +0.000 C 
ENDBRANCH  14  16
ENDBRANCH  13  14
ENDBRANCH  12  13
ENDBRANCH  11  12
ENDBRANCH  10  11
ENDBRANCH   1  10
TORSDOF 8
ENDMDL
MODEL 4
REMARK VINA RESULT:      -5.3      4.218      6.582
REMARK  Name = 
REMARK  9 active torsions:
REMARK  status: ('A' for Active; 'I' for Inactive)
REMARK    1  A    between atoms: C_1  and  C_2
REMARK    2  A    between atoms: C_2  and  C_3
REMARK    3  A    between atoms: C_3  and  C_4
REMARK    4  A    between atoms: C_4  and  C_5
REMARK    5  A    between atoms: C_5  and  C_6
REMARK    6  A    between atoms: C_6  and  C_7
REMARK    7  A    between atoms: C_7  and  C_8
REMARK    8  A    between atoms: C_8  and  C_9
REMARK    9  A    between atoms: C_12  and  S_13
REMARK                            x       y       z     vdW  Elec       q    Type
REMARK                         _______ _______ _______ _____ _____    ______ ____
ROOT
ATOM      1  C   UNL     1       7.057   4.844  14.706  0.00  0.00    +0.000 C 
ENDROOT
BRANCH   1   2
ATOM      2  C   UNL     1       6.914   4.661  16.175  0.00  0.00    +0.000 A 
ATOM      3  N   UNL     1       7.940   4.352  16.983  0.00  0.00    +0.000 NA
ATOM      4  N   UNL     1       7.325   4.316  18.185  0.00  0.00    +0.000 N 
ATOM      5  C   UNL     1       5.999   4.594  18.061  0.00  0.00    +0.000 A 
ATOM      6  N   UNL     1       5.707   4.820  16.803  0.00  0.00    +0.000 NA
ATOM      7  H   UNL     1       7.867   4.096  19.010  0.00  0.00    +0.000 HD
BRANCH   5   8
ATOM      8  S   UNL     1       4.908   4.635  19.388  0.00  0.00    +0.000 S 
ATOM      9  H   UNL     1       5.495   3.776  20.230  0.00  0.00    +0.000 HD
ENDBRANCH   5   8
ENDBRANCH   1   2
BRANCH   1  10
ATOM     10  C   UNL     1       6.032   4.018  13.930  0.00  0.00    +0.000 C 
BRANCH  10  11
ATOM     11  C   UNL     1       6.541   3.671  12.533  0.00  0.00    +0.000 C 
BRANCH  11  12
ATOM     12  C   UNL     1       5.850   2.418  12.005  0.00  0.00    +0.000 C 
BRANCH  12  13
ATOM     13  C   UNL     1       5.007   2.734  10.773  0.00  0.00    +0.000 C 
BRANCH  13  14
ATOM     14  C   UNL     1       3.626   3.234  11.182  0.00  0.00    +0.000 C 
BRANCH  14  16
ATOM     15  C   UNL     1       2.908   4.631   9.229  0.00  0.00    +0.000 C 
ATOM     16  C   UNL     1       2.698   3.324   9.975  0.00  0.00    +0.000 C 
ENDBRANCH  14  16
ENDBRANCH  13  14
ENDBRANCH  12  13
ENDBRANCH  11  12
ENDBRANCH  10  11
ENDBRANCH   1  10
TORSDOF 8
ENDMDL
MODEL 5
REMARK VINA RESULT:      -5.3      1.599      2.066
REMARK  Name = 
REMARK  9 active torsions:
REMARK  status: ('A' for Active; 'I' for Inactive)
REMARK    1  A    between atoms: C_1  and  C_2
REMARK    2  A    between atoms: C_2  and  C_3
REMARK    3  A    between atoms: C_3  and  C_4
REMARK    4  A    between atoms: C_4  and  C_5
REMARK    5  A    between atoms: C_5  and  C_6
REMARK    6  A    between atoms: C_6  and  C_7
REMARK    7  A    between atoms: C_7  and  C_8
REMARK    8  A    between atoms: C_8  and  C_9
REMARK    9  A    between atoms: C_12  and  S_13
REMARK                            x       y       z     vdW  Elec       q    Type
REMARK                         _______ _______ _______ _____ _____    ______ ____
ROOT
ATOM      1  C   UNL     1       5.100   6.249  17.168  0.00  0.00    +0.000 C 
ENDROOT
BRANCH   1   2
ATOM      2  C   UNL     1       5.911   5.676  16.061  0.00  0.00    +0.000 A 
ATOM      3  N   UNL     1       7.243   5.815  15.971  0.00  0.00    +0.000 NA
ATOM      4  N   UNL     1       7.502   5.125  14.840  0.00  0.00    +0.000 N 
ATOM      5  C   UNL     1       6.360   4.614  14.309  0.00  0.00    +0.000 A 
ATOM      6  N   UNL     1       5.335   4.941  15.058  0.00  0.00    +0.000 NA
ATOM      7  H   UNL     1       8.457   5.059  14.512  0.00  0.00    +0.000 HD
BRANCH   5   8
ATOM      8  S   UNL     1       6.317   3.679  12.867  0.00  0.00    +0.000 S 
ATOM      9  H   UNL     1       5.196   4.136  12.298  0.00  0.00    +0.000 HD
ENDBRANCH   5   8
ENDBRANCH   1   2
BRANCH   1  10
ATOM     10  C   UNL     1       5.080   5.331  18.389  0.00  0.00    +0.000 C 
BRANCH  10  11
ATOM     11  C   UNL     1       3.737   5.399  19.113  0.00  0.00    +0.000 C 
BRANCH  11  12
ATOM     12  C   UNL     1       2.633   5.842  18.159  0.00  0.00    +0.000 C 
BRANCH  12  13
ATOM     13  C   UNL     1       1.765   4.660  17.739  0.00  0.00    +0.000 C 
BRANCH  13  14
ATOM     14  C   UNL     1       1.864   3.531  18.760  0.00  0.00    +0.000 C 
BRANCH  14  16
ATOM     15  C   UNL     1       3.527   1.706  18.331  0.00  0.00    +0.000 C 
ATOM     16  C   UNL     1       2.111   2.193  18.072  0.00  0.00    +0.000 C 
ENDBRANCH  14  16
ENDBRANCH  13  14
ENDBRANCH  12  13
ENDBRANCH  11  12
ENDBRANCH  10  11
ENDBRANCH   1  10
TORSDOF 8
ENDMDL
MODEL 6
REMARK VINA RESULT:      -5.3      1.617      1.960
REMARK  Name = 
REMARK  9 active torsions:
REMARK  status: ('A' for Active; 'I' for Inactive)
REMARK    1  A    between atoms: C_1  and  C_2
REMARK    2  A    between atoms: C_2  and  C_3
REMARK    3  A    between atoms: C_3  and  C_4
REMARK    4  A    between atoms: C_4  and  C_5
REMARK    5  A    between atoms: C_5  and  C_6
REMARK    6  A    between atoms: C_6  and  C_7
REMARK    7  A    between atoms: C_7  and  C_8
REMARK    8  A    between atoms: C_8  and  C_9
REMARK    9  A    between atoms: C_12  and  S_13
REMARK                            x       y       z     vdW  Elec       q    Type
REMARK                         _______ _______ _______ _____ _____    ______ ____
ROOT
ATOM      1  C   UNL     1       5.290   6.753  17.296  0.00  0.00    +0.000 C 
ENDROOT
BRANCH   1   2
ATOM      2  C   UNL     1       6.029   6.022  16.231  0.00  0.00    +0.000 A 
ATOM      3  N   UNL     1       7.366   6.040  16.116  0.00  0.00    +0.000 NA
ATOM      4  N   UNL     1       7.546   5.239  15.044  0.00  0.00    +0.000 N 
ATOM      5  C   UNL     1       6.356   4.784  14.571  0.00  0.00    +0.000 A 
ATOM      6  N   UNL     1       5.376   5.258  15.301  0.00  0.00    +0.000 NA
ATOM      7  H   UNL     1       8.485   5.064  14.711  0.00  0.00    +0.000 HD
BRANCH   5   8
ATOM      8  S   UNL     1       6.208   3.738  13.215  0.00  0.00    +0.000 S 
ATOM      9  H   UNL     1       4.907   3.428  13.270  0.00  0.00    +0.000 HD
ENDBRANCH   5   8
ENDBRANCH   1   2
BRANCH   1  10
ATOM     10  C   UNL     1       4.572   5.796  18.245  0.00  0.00    +0.000 C 
BRANCH  10  11
ATOM     11  C   UNL     1       3.056   5.965  18.163  0.00  0.00    +0.000 C 
BRANCH  11  12
ATOM     12  C   UNL     1       2.469   6.229  19.546  0.00  0.00    +0.000 C 
BRANCH  12  13
ATOM     13  C   UNL     1       2.494   4.967  20.402  0.00  0.00    +0.000 C 
BRANCH  13  14
ATOM     14  C   UNL     1       1.093   4.377  20.530  0.00  0.00    +0.000 C 
BRANCH  14  16
ATOM     15  C   UNL     1       2.329   2.487  19.444  0.00  0.00    +0.000 C 
ATOM     16  C   UNL     1       1.106   2.877  20.257  0.00  0.00    +0.000 C 
ENDBRANCH  14  16
ENDBRANCH  13  14
ENDBRANCH  12  13
ENDBRANCH  11  12
ENDBRANCH  10  11
ENDBRANCH   1  10
TORSDOF 8
ENDMDL
MODEL 7
REMARK VINA RESULT:      -5.3      1.992      2.972
REMARK  Name = 
REMARK  9 active torsions:
REMARK  status: ('A' for Active; 'I' for Inactive)
REMARK    1  A    between atoms: C_1  and  C_2
REMARK    2  A    between atoms: C_2  and  C_3
REMARK    3  A    between atoms: C_3  and  C_4
REMARK    4  A    between atoms: C_4  and  C_5
REMARK    5  A    between atoms: C_5  and  C_6
REMARK    6  A    between atoms: C_6  and  C_7
REMARK    7  A    between atoms: C_7  and  C_8
REMARK    8  A    between atoms: C_8  and  C_9
REMARK    9  A    between atoms: C_12  and  S_13
REMARK                            x       y       z     vdW  Elec       q    Type
REMARK                         _______ _______ _______ _____ _____    ______ ____
ROOT
ATOM      1  C   UNL     1       3.779   3.763  17.058  0.00  0.00    +0.000 C 
ENDROOT
BRANCH   1   2
ATOM      2  C   UNL     1       4.918   4.326  17.832  0.00  0.00    +0.000 A 
ATOM      3  N   UNL     1       5.315   3.842  19.019  0.00  0.00    +0.000 NA
ATOM      4  N   UNL     1       6.360   4.651  19.295  0.00  0.00    +0.000 N 
ATOM      5  C   UNL     1       6.547   5.561  18.302  0.00  0.00    +0.000 A 
ATOM      6  N   UNL     1       5.653   5.381  17.360  0.00  0.00    +0.000 NA
ATOM      7  H   UNL     1       6.871   4.520  20.158  0.00  0.00    +0.000 HD
BRANCH   5   8
ATOM      8  S   UNL     1       7.788   6.749  18.322  0.00  0.00    +0.000 S 
ATOM      9  H   UNL     1       8.143   6.730  19.612  0.00  0.00    +0.000 HD
ENDBRANCH   5   8
ENDBRANCH   1   2
BRANCH   1  10
ATOM     10  C   UNL     1       3.078   2.639  17.819  0.00  0.00    +0.000 C 
BRANCH  10  11
ATOM     11  C   UNL     1       1.670   3.049  18.244  0.00  0.00    +0.000 C 
BRANCH  11  12
ATOM     12  C   UNL     1       1.322   2.448  19.602  0.00  0.00    +0.000 C 
BRANCH  12  13
ATOM     13  C   UNL     1       1.034   3.540  20.628  0.00  0.00    +0.000 C 
BRANCH  13  14
ATOM     14  C   UNL     1       2.218   4.494  20.743  0.00  0.00    +0.000 C 
BRANCH  14  16
ATOM     15  C   UNL     1       2.596   6.608  19.452  0.00  0.00    +0.000 C 
ATOM     16  C   UNL     1       1.776   5.939  20.543  0.00  0.00    +0.000 C 
ENDBRANCH  14  16
ENDBRANCH  13  14
ENDBRANCH  12  13
ENDBRANCH  11  12
ENDBRANCH  10  11
ENDBRANCH   1  10
TORSDOF 8
ENDMDL
MODEL 8
REMARK VINA RESULT:      -5.2      1.089      1.636
REMARK  Name = 
REMARK  9 active torsions:
REMARK  status: ('A' for Active; 'I' for Inactive)
REMARK    1  A    between atoms: C_1  and  C_2
REMARK    2  A    between atoms: C_2  and  C_3
REMARK    3  A    between atoms: C_3  and  C_4
REMARK    4  A    between atoms: C_4  and  C_5
REMARK    5  A    between atoms: C_5  and  C_6
REMARK    6  A    between atoms: C_6  and  C_7
REMARK    7  A    between atoms: C_7  and  C_8
REMARK    8  A    between atoms: C_8  and  C_9
REMARK    9  A    between atoms: C_12  and  S_13
REMARK                            x       y       z     vdW  Elec       q    Type
REMARK                         _______ _______ _______ _____ _____    ______ ____
ROOT
ATOM      1  C   UNL     1       4.915   5.183  19.223  0.00  0.00    +0.000 C 
ENDROOT
BRANCH   1   2
ATOM      2  C   UNL     1       5.841   4.875  18.101  0.00  0.00    +0.000 A 
ATOM      3  N   UNL     1       7.138   4.577  18.274  0.00  0.00    +0.000 NA
ATOM      4  N   UNL     1       7.530   4.365  17.000  0.00  0.00    +0.000 N 
ATOM      5  C   UNL     1       6.494   4.536  16.137  0.00  0.00    +0.000 A 
ATOM      6  N   UNL     1       5.409   4.856  16.801  0.00  0.00    +0.000 NA
ATOM      7  H   UNL     1       8.494   4.120  16.815  0.00  0.00    +0.000 HD
BRANCH   5   8
ATOM      8  S   UNL     1       6.632   4.346  14.434  0.00  0.00    +0.000 S 
ATOM      9  H   UNL     1       5.517   4.957  14.016  0.00  0.00    +0.000 HD
ENDBRANCH   5   8
ENDBRANCH   1   2
BRANCH   1  10
ATOM     10  C   UNL     1       3.840   6.187  18.811  0.00  0.00    +0.000 C 
BRANCH  10  11
ATOM     11  C   UNL     1       2.475   5.802  19.377  0.00  0.00    +0.000 C 
BRANCH  11  12
ATOM     12  C   UNL     1       2.592   4.578  20.279  0.00  0.00    +0.000 C 
BRANCH  12  13
ATOM     13  C   UNL     1       1.701   3.444  19.782  0.00  0.00    +0.000 C 
BRANCH  13  14
ATOM     14  C   UNL     1       1.444   3.580  18.285  0.00  0.00    +0.000 C 
BRANCH  14  16
ATOM     15  C   UNL     1       3.149   1.745  18.309  0.00  0.00    +0.000 C 
ATOM     16  C   UNL     1       2.508   2.843  17.479  0.00  0.00    +0.000 C 
ENDBRANCH  14  16
ENDBRANCH  13  14
ENDBRANCH  12  13
ENDBRANCH  11  12
ENDBRANCH  10  11
ENDBRANCH   1  10
TORSDOF 8
ENDMDL
MODEL 9
REMARK VINA RESULT:      -5.2      1.134      1.422
REMARK  Name = 
REMARK  9 active torsions:
REMARK  status: ('A' for Active; 'I' for Inactive)
REMARK    1  A    between atoms: C_1  and  C_2
REMARK    2  A    between atoms: C_2  and  C_3
REMARK    3  A    between atoms: C_3  and  C_4
REMARK    4  A    between atoms: C_4  and  C_5
REMARK    5  A    between atoms: C_5  and  C_6
REMARK    6  A    between atoms: C_6  and  C_7
REMARK    7  A    between atoms: C_7  and  C_8
REMARK    8  A    between atoms: C_8  and  C_9
REMARK    9  A    between atoms: C_12  and  S_13
REMARK                            x       y       z     vdW  Elec       q    Type
REMARK                         _______ _______ _______ _____ _____    ______ ____
ROOT
ATOM      1  C   UNL     1       5.436   6.215  17.937  0.00  0.00    +0.000 C 
ENDROOT
BRANCH   1   2
ATOM      2  C   UNL     1       6.147   5.577  16.797  0.00  0.00    +0.000 A 
ATOM      3  N   UNL     1       7.473   5.371  16.777  0.00  0.00    +0.000 NA
ATOM      4  N   UNL     1       7.625   4.768  15.578  0.00  0.00    +0.000 N 
ATOM      5  C   UNL     1       6.430   4.637  14.944  0.00  0.00    +0.000 A 
ATOM      6  N   UNL     1       5.474   5.136  15.689  0.00  0.00    +0.000 NA
ATOM      7  H   UNL     1       8.552   4.491  15.280  0.00  0.00    +0.000 HD
BRANCH   5   8
ATOM      8  S   UNL     1       6.249   3.913  13.395  0.00  0.00    +0.000 S 
ATOM      9  H   UNL     1       7.429   3.295  13.261  0.00  0.00    +0.000 HD
ENDBRANCH   5   8
ENDBRANCH   1   2
BRANCH   1  10
ATOM     10  C   UNL     1       3.994   5.723  18.053  0.00  0.00    +0.000 C 
BRANCH  10  11
ATOM     11  C   UNL     1       3.940   4.248  18.443  0.00  0.00    +0.000 C 
BRANCH  11  12
ATOM     12  C   UNL     1       2.881   3.514  17.627  0.00  0.00    +0.000 C 
BRANCH  12  13
ATOM     13  C   UNL     1       1.477   3.870  18.104  0.00  0.00    +0.000 C 
BRANCH  13  14
ATOM     14  C   UNL     1       1.050   2.956  19.248  0.00  0.00    +0.000 C 
BRANCH  14  16
ATOM     15  C   UNL     1       1.757   2.985  21.651  0.00  0.00    +0.000 C 
ATOM     16  C   UNL     1       0.992   3.721  20.565  0.00  0.00    +0.000 C 
ENDBRANCH  14  16
ENDBRANCH  13  14
ENDBRANCH  12  13
ENDBRANCH  11  12
ENDBRANCH  10  11
ENDBRANCH   1  10
TORSDOF 8
ENDMDL
