MODEL 1
REMARK VINA RESULT:      -7.6      0.000      0.000
REMARK  Name = 
REMARK  5 active torsions:
REMARK  status: ('A' for Active; 'I' for Inactive)
REMARK    1  A    between atoms: C_1  and  C_2
REMARK    2  A    between atoms: C_2  and  C_3
REMARK    3  A    between atoms: C_3  and  C_4
REMARK    4  A    between atoms: C_4  and  N_5
REMARK    5  A    between atoms: C_11  and  C_12
REMARK                            x       y       z     vdW  Elec       q    Type
REMARK                         _______ _______ _______ _____ _____    ______ ____
ROOT
ATOM      1  N   UNL     1       3.427   4.493  19.619  0.00  0.00    +0.000 N 
ATOM      2  C   UNL     1       4.096   3.281  19.852  0.00  0.00    +0.000 A 
ATOM      3  O   UNL     1       3.974   2.614  20.882  0.00  0.00    +0.000 OA
ATOM      4  N   UNL     1       4.938   2.814  18.856  0.00  0.00    +0.000 N 
ATOM      5  C   UNL     1       5.069   3.544  17.710  0.00  0.00    +0.000 A 
ATOM      6  N   UNL     1       5.780   3.259  16.588  0.00  0.00    +0.000 N 
ATOM      7  C   UNL     1       5.585   4.311  15.707  0.00  0.00    +0.000 A 
ATOM      8  N   UNL     1       4.815   5.236  16.257  0.00  0.00    +0.000 NA
ATOM      9  C   UNL     1       4.481   4.752  17.493  0.00  0.00    +0.000 A 
ATOM     10  C   UNL     1       3.639   5.345  18.507  0.00  0.00    +0.000 A 
ATOM     11  O   UNL     1       3.163   6.464  18.398  0.00  0.00    +0.000 OA
ATOM     12  H   UNL     1       5.410   1.937  19.020  0.00  0.00    +0.000 HD
ATOM     13  H   UNL     1       6.359   2.452  16.409  0.00  0.00    +0.000 HD
ENDROOT
BRANCH   7  14
ATOM     14  C   UNL     1       6.180   4.382  14.376  0.00  0.00    +0.000 A 
ATOM     15  C   UNL     1       7.276   5.213  14.109  0.00  0.00    +0.000 A 
ATOM     16  C   UNL     1       7.832   5.255  12.828  0.00  0.00    +0.000 A 
ATOM     17  C   UNL     1       7.298   4.472  11.807  0.00  0.00    +0.000 A 
ATOM     18  C   UNL     1       6.216   3.633  12.065  0.00  0.00    +0.000 A 
ATOM     19  C   UNL     1       5.666   3.582  13.347  0.00  0.00    +0.000 A 
ENDBRANCH   7  14
BRANCH   1  20
ATOM     20  C   UNL     1       2.455   4.957  20.604  0.00  0.00    +0.000 C 
BRANCH  20  21
ATOM     21  C   UNL     1       1.015   4.612  20.195  0.00  0.00    +0.000 C 
BRANCH  21  23
ATOM     22  C   UNL     1       0.667   2.539  18.842  0.00  0.00    +0.000 C 
ATOM     23  C   UNL     1       0.724   3.114  20.249  0.00  0.00    +0.000 C 
ENDBRANCH  21  23
ENDBRANCH  20  21
ENDBRANCH   1  20
TORSDOF 4
ENDMDL
MODEL 2
REMARK VINA RESULT:      -7.5      0.053      1.055
REMARK  Name = 
REMARK  5 active torsions:
REMARK  status: ('A' for Active; 'I' for Inactive)
REMARK    1  A    between atoms: C_1  and  C_2
REMARK    2  A    between atoms: C_2  and  C_3
REMARK    3  A    between atoms: C_3  and  C_4
REMARK    4  A    between atoms: C_4  and  N_5
REMARK    5  A    between atoms: C_11  and  C_12
REMARK                            x       y       z     vdW  Elec       q    Type
REMARK                         _______ _______ _______ _____ _____    ______ ____
ROOT
ATOM      1  N   UNL     1       3.423   4.515  19.572  0.00  0.00    +0.000 N 
ATOM      2  C   UNL     1       4.093   3.306  19.819  0.00  0.00    +0.000 A 
ATOM      3  O   UNL     1       3.973   2.652  20.857  0.00  0.00    +0.000 OA
ATOM      4  N   UNL     1       4.935   2.828  18.829  0.00  0.00    +0.000 N 
ATOM      5  C   UNL     1       5.064   3.544  17.674  0.00  0.00    +0.000 A 
ATOM      6  N   UNL     1       5.774   3.246  16.555  0.00  0.00    +0.000 N 
ATOM      7  C   UNL     1       5.577   4.287  15.661  0.00  0.00    +0.000 A 
ATOM      8  N   UNL     1       4.806   5.218  16.200  0.00  0.00    +0.000 NA
ATOM      9  C   UNL     1       4.474   4.748  17.443  0.00  0.00    +0.000 A 
ATOM     10  C   UNL     1       3.633   5.352  18.450  0.00  0.00    +0.000 A 
ATOM     11  O   UNL     1       3.154   6.470  18.327  0.00  0.00    +0.000 OA
ATOM     12  H   UNL     1       5.408   1.954  19.003  0.00  0.00    +0.000 HD
ATOM     13  H   UNL     1       6.355   2.438  16.385  0.00  0.00    +0.000 HD
ENDROOT
BRANCH   7  14
ATOM     14  C   UNL     1       6.172   4.343  14.329  0.00  0.00    +0.000 A 
ATOM     15  C   UNL     1       5.662   3.583  13.268  0.00  0.00    +0.000 A 
ATOM     16  C   UNL     1       6.245   3.663  12.001  0.00  0.00    +0.000 A 
ATOM     17  C   UNL     1       7.339   4.499  11.785  0.00  0.00    +0.000 A 
ATOM     18  C   UNL     1       7.846   5.268  12.830  0.00  0.00    +0.000 A 
ATOM     19  C   UNL     1       7.258   5.197  14.095  0.00  0.00    +0.000 A 
ENDBRANCH   7  14
BRANCH   1  20
ATOM     20  C   UNL     1       2.450   4.989  20.552  0.00  0.00    +0.000 C 
BRANCH  20  21
ATOM     21  C   UNL     1       1.012   4.620  20.158  0.00  0.00    +0.000 C 
BRANCH  21  23
ATOM     22  C   UNL     1       0.634   2.496  18.896  0.00  0.00    +0.000 C 
ATOM     23  C   UNL     1       0.727   3.125  20.277  0.00  0.00    +0.000 C 
ENDBRANCH  21  23
ENDBRANCH  20  21
ENDBRANCH   1  20
TORSDOF 4
ENDMDL
MODEL 3
REMARK VINA RESULT:      -7.3      1.157      1.589
REMARK  Name = 
REMARK  5 active torsions:
REMARK  status: ('A' for Active; 'I' for Inactive)
REMARK    1  A    between atoms: C_1  and  C_2
REMARK    2  A    between atoms: C_2  and  C_3
REMARK    3  A    between atoms: C_3  and  C_4
REMARK    4  A    between atoms: C_4  and  N_5
REMARK    5  A    between atoms: C_11  and  C_12
REMARK                            x       y       z     vdW  Elec       q    Type
REMARK                         _______ _______ _______ _____ _____    ______ ____
ROOT
ATOM      1  N   UNL     1       2.835   2.996  19.149  0.00  0.00    +0.000 N 
ATOM      2  C   UNL     1       4.061   2.828  19.814  0.00  0.00    +0.000 A 
ATOM      3  O   UNL     1       4.163   2.496  20.997  0.00  0.00    +0.000 OA
ATOM      4  N   UNL     1       5.218   3.049  19.086  0.00  0.00    +0.000 N 
ATOM      5  C   UNL     1       5.110   3.408  17.773  0.00  0.00    +0.000 A 
ATOM      6  N   UNL     1       6.092   3.616  16.857  0.00  0.00    +0.000 N 
ATOM      7  C   UNL     1       5.469   3.954  15.667  0.00  0.00    +0.000 A 
ATOM      8  N   UNL     1       4.156   3.995  15.827  0.00  0.00    +0.000 NA
ATOM      9  C   UNL     1       3.933   3.639  17.130  0.00  0.00    +0.000 A 
ATOM     10  C   UNL     1       2.679   3.497  17.834  0.00  0.00    +0.000 A 
ATOM     11  O   UNL     1       1.603   3.778  17.329  0.00  0.00    +0.000 OA
ATOM     12  H   UNL     1       6.098   2.918  19.561  0.00  0.00    +0.000 HD
ATOM     13  H   UNL     1       7.090   3.556  16.993  0.00  0.00    +0.000 HD
ENDROOT
BRANCH   7  14
ATOM     14  C   UNL     1       6.183   4.253  14.428  0.00  0.00    +0.000 A 
ATOM     15  C   UNL     1       7.234   5.178  14.394  0.00  0.00    +0.000 A 
ATOM     16  C   UNL     1       7.906   5.437  13.197  0.00  0.00    +0.000 A 
ATOM     17  C   UNL     1       7.531   4.778  12.028  0.00  0.00    +0.000 A 
ATOM     18  C   UNL     1       6.495   3.847  12.053  0.00  0.00    +0.000 A 
ATOM     19  C   UNL     1       5.830   3.579  13.251  0.00  0.00    +0.000 A 
ENDBRANCH   7  14
BRANCH   1  20
ATOM     20  C   UNL     1       1.602   2.669  19.860  0.00  0.00    +0.000 C 
BRANCH  20  21
ATOM     21  C   UNL     1       0.884   3.927  20.371  0.00  0.00    +0.000 C 
BRANCH  21  23
ATOM     22  C   UNL     1       1.821   6.242  20.277  0.00  0.00    +0.000 C 
ATOM     23  C   UNL     1       1.830   4.924  21.035  0.00  0.00    +0.000 C 
ENDBRANCH  21  23
ENDBRANCH  20  21
ENDBRANCH   1  20
TORSDOF 4
ENDMDL
MODEL 4
REMARK VINA RESULT:      -7.3      3.466      7.182
REMARK  Name = 
REMARK  5 active torsions:
REMARK  status: ('A' for Active; 'I' for Inactive)
REMARK    1  A    between atoms: C_1  and  C_2
REMARK    2  A    between atoms: C_2  and  C_3
REMARK    3  A    between atoms: C_3  and  C_4
REMARK    4  A    between atoms: C_4  and  N_5
REMARK    5  A    between atoms: C_11  and  C_12
REMARK                            x       y       z     vdW  Elec       q    Type
REMARK                         _______ _______ _______ _____ _____    ______ ____
ROOT
ATOM      1  N   UNL     1       5.351   5.228  17.642  0.00  0.00    +0.000 N 
ATOM      2  C   UNL     1       5.012   4.546  18.822  0.00  0.00    +0.000 A 
ATOM      3  O   UNL     1       5.567   3.513  19.204  0.00  0.00    +0.000 OA
ATOM      4  N   UNL     1       3.995   5.076  19.597  0.00  0.00    +0.000 N 
ATOM      5  C   UNL     1       3.384   6.225  19.183  0.00  0.00    +0.000 A 
ATOM      6  N   UNL     1       2.417   6.953  19.801  0.00  0.00    +0.000 N 
ATOM      7  C   UNL     1       2.137   8.033  18.981  0.00  0.00    +0.000 A 
ATOM      8  N   UNL     1       2.867   7.977  17.878  0.00  0.00    +0.000 NA
ATOM      9  C   UNL     1       3.653   6.863  18.013  0.00  0.00    +0.000 A 
ATOM     10  C   UNL     1       4.654   6.340  17.112  0.00  0.00    +0.000 A 
ATOM     11  O   UNL     1       4.869   6.824  16.011  0.00  0.00    +0.000 OA
ATOM     12  H   UNL     1       3.760   4.591  20.451  0.00  0.00    +0.000 HD
ATOM     13  H   UNL     1       1.960   6.759  20.681  0.00  0.00    +0.000 HD
ENDROOT
BRANCH   7  14
ATOM     14  C   UNL     1       1.150   9.062  19.293  0.00  0.00    +0.000 A 
ATOM     15  C   UNL     1       0.592   9.869  18.293  0.00  0.00    +0.000 A 
ATOM     16  C   UNL     1      -0.359  10.839  18.619  0.00  0.00    +0.000 A 
ATOM     17  C   UNL     1      -0.755  11.013  19.943  0.00  0.00    +0.000 A 
ATOM     18  C   UNL     1      -0.216  10.209  20.945  0.00  0.00    +0.000 A 
ATOM     19  C   UNL     1       0.726   9.231  20.618  0.00  0.00    +0.000 A 
ENDBRANCH   7  14
BRANCH   1  20
ATOM     20  C   UNL     1       6.488   4.752  16.860  0.00  0.00    +0.000 C 
BRANCH  20  21
ATOM     21  C   UNL     1       6.043   3.891  15.668  0.00  0.00    +0.000 C 
BRANCH  21  23
ATOM     22  C   UNL     1       5.950   3.656  13.181  0.00  0.00    +0.000 C 
ATOM     23  C   UNL     1       6.634   4.361  14.341  0.00  0.00    +0.000 C 
ENDBRANCH  21  23
ENDBRANCH  20  21
ENDBRANCH   1  20
TORSDOF 4
ENDMDL
MODEL 5
REMARK VINA RESULT:      -7.3      1.031      2.007
REMARK  Name = 
REMARK  5 active torsions:
REMARK  status: ('A' for Active; 'I' for Inactive)
REMARK    1  A    between atoms: C_1  and  C_2
REMARK    2  A    between atoms: C_2  and  C_3
REMARK    3  A    between atoms: C_3  and  C_4
REMARK    4  A    between atoms: C_4  and  N_5
REMARK    5  A    between atoms: C_11  and  C_12
REMARK                            x       y       z     vdW  Elec       q    Type
REMARK                         _______ _______ _______ _____ _____    ______ ____
ROOT
ATOM      1  N   UNL     1       3.375   4.743  19.501  0.00  0.00    +0.000 N 
ATOM      2  C   UNL     1       3.157   6.097  19.198  0.00  0.00    +0.000 A 
ATOM      3  O   UNL     1       2.574   6.884  19.946  0.00  0.00    +0.000 OA
ATOM      4  N   UNL     1       3.632   6.565  17.984  0.00  0.00    +0.000 N 
ATOM      5  C   UNL     1       4.287   5.698  17.157  0.00  0.00    +0.000 A 
ATOM      6  N   UNL     1       4.886   5.941  15.961  0.00  0.00    +0.000 N 
ATOM      7  C   UNL     1       5.414   4.738  15.522  0.00  0.00    +0.000 A 
ATOM      8  N   UNL     1       5.135   3.770  16.380  0.00  0.00    +0.000 NA
ATOM      9  C   UNL     1       4.451   4.371  17.403  0.00  0.00    +0.000 A 
ATOM     10  C   UNL     1       3.926   3.785  18.615  0.00  0.00    +0.000 A 
ATOM     11  O   UNL     1       3.968   2.585  18.841  0.00  0.00    +0.000 OA
ATOM     12  H   UNL     1       3.485   7.541  17.773  0.00  0.00    +0.000 HD
ATOM     13  H   UNL     1       4.937   6.815  15.459  0.00  0.00    +0.000 HD
ENDROOT
BRANCH   7  14
ATOM     14  C   UNL     1       6.146   4.577  14.269  0.00  0.00    +0.000 A 
ATOM     15  C   UNL     1       7.300   5.323  13.995  0.00  0.00    +0.000 A 
ATOM     16  C   UNL     1       7.986   5.141  12.792  0.00  0.00    +0.000 A 
ATOM     17  C   UNL     1       7.525   4.219  11.855  0.00  0.00    +0.000 A 
ATOM     18  C   UNL     1       6.385   3.463  12.122  0.00  0.00    +0.000 A 
ATOM     19  C   UNL     1       5.705   3.636  13.329  0.00  0.00    +0.000 A 
ENDBRANCH   7  14
BRANCH   1  20
ATOM     20  C   UNL     1       2.978   4.246  20.815  0.00  0.00    +0.000 C 
BRANCH  20  21
ATOM     21  C   UNL     1       1.458   4.052  20.920  0.00  0.00    +0.000 C 
BRANCH  21  23
ATOM     22  C   UNL     1       0.490   2.656  19.087  0.00  0.00    +0.000 C 
ATOM     23  C   UNL     1       1.008   2.651  20.517  0.00  0.00    +0.000 C 
ENDBRANCH  21  23
ENDBRANCH  20  21
ENDBRANCH   1  20
TORSDOF 4
ENDMDL
MODEL 6
REMARK VINA RESULT:      -7.3      3.493      7.158
REMARK  Name = 
REMARK  5 active torsions:
REMARK  status: ('A' for Active; 'I' for Inactive)
REMARK    1  A    between atoms: C_1  and  C_2
REMARK    2  A    between atoms: C_2  and  C_3
REMARK    3  A    between atoms: C_3  and  C_4
REMARK    4  A    between atoms: C_4  and  N_5
REMARK    5  A    between atoms: C_11  and  C_12
REMARK                            x       y       z     vdW  Elec       q    Type
REMARK                         _______ _______ _______ _____ _____    ______ ____
ROOT
ATOM      1  N   UNL     1       5.448   5.331  17.552  0.00  0.00    +0.000 N 
ATOM      2  C   UNL     1       5.116   4.631  18.722  0.00  0.00    +0.000 A 
ATOM      3  O   UNL     1       5.688   3.605  19.097  0.00  0.00    +0.000 OA
ATOM      4  N   UNL     1       4.084   5.133  19.497  0.00  0.00    +0.000 N 
ATOM      5  C   UNL     1       3.454   6.275  19.091  0.00  0.00    +0.000 A 
ATOM      6  N   UNL     1       2.470   6.977  19.711  0.00  0.00    +0.000 N 
ATOM      7  C   UNL     1       2.175   8.061  18.900  0.00  0.00    +0.000 A 
ATOM      8  N   UNL     1       2.911   8.030  17.801  0.00  0.00    +0.000 NA
ATOM      9  C   UNL     1       3.717   6.930  17.929  0.00  0.00    +0.000 A 
ATOM     10  C   UNL     1       4.733   6.435  17.028  0.00  0.00    +0.000 A 
ATOM     11  O   UNL     1       4.945   6.934  15.933  0.00  0.00    +0.000 OA
ATOM     12  H   UNL     1       3.854   4.636  20.344  0.00  0.00    +0.000 HD
ATOM     13  H   UNL     1       2.012   6.766  20.586  0.00  0.00    +0.000 HD
ENDROOT
BRANCH   7  14
ATOM     14  C   UNL     1       1.166   9.068  19.217  0.00  0.00    +0.000 A 
ATOM     15  C   UNL     1       0.824   9.369  20.542  0.00  0.00    +0.000 A 
ATOM     16  C   UNL     1      -0.138  10.343  20.817  0.00  0.00    +0.000 A 
ATOM     17  C   UNL     1      -0.766  11.021  19.773  0.00  0.00    +0.000 A 
ATOM     18  C   UNL     1      -0.425  10.738  18.453  0.00  0.00    +0.000 A 
ATOM     19  C   UNL     1       0.544   9.772  18.177  0.00  0.00    +0.000 A 
ENDBRANCH   7  14
BRANCH   1  20
ATOM     20  C   UNL     1       6.598   4.884  16.771  0.00  0.00    +0.000 C 
BRANCH  20  21
ATOM     21  C   UNL     1       6.185   3.949  15.625  0.00  0.00    +0.000 C 
BRANCH  21  23
ATOM     22  C   UNL     1       5.965   3.671  13.151  0.00  0.00    +0.000 C 
ATOM     23  C   UNL     1       6.682   4.422  14.261  0.00  0.00    +0.000 C 
ENDBRANCH  21  23
ENDBRANCH  20  21
ENDBRANCH   1  20
TORSDOF 4
ENDMDL
MODEL 7
REMARK VINA RESULT:      -7.2      1.017      2.262
REMARK  Name = 
REMARK  5 active torsions:
REMARK  status: ('A' for Active; 'I' for Inactive)
REMARK    1  A    between atoms: C_1  and  C_2
REMARK    2  A    between atoms: C_2  and  C_3
REMARK    3  A    between atoms: C_3  and  C_4
REMARK    4  A    between atoms: C_4  and  N_5
REMARK    5  A    between atoms: C_11  and  C_12
REMARK                            x       y       z     vdW  Elec       q    Type
REMARK                         _______ _______ _______ _____ _____    ______ ____
ROOT
ATOM      1  N   UNL     1       3.411   4.709  19.506  0.00  0.00    +0.000 N 
ATOM      2  C   UNL     1       3.176   6.056  19.187  0.00  0.00    +0.000 A 
ATOM      3  O   UNL     1       2.594   6.848  19.930  0.00  0.00    +0.000 OA
ATOM      4  N   UNL     1       3.634   6.511  17.962  0.00  0.00    +0.000 N 
ATOM      5  C   UNL     1       4.288   5.639  17.139  0.00  0.00    +0.000 A 
ATOM      6  N   UNL     1       4.870   5.871  15.933  0.00  0.00    +0.000 N 
ATOM      7  C   UNL     1       5.406   4.667  15.505  0.00  0.00    +0.000 A 
ATOM      8  N   UNL     1       5.146   3.709  16.380  0.00  0.00    +0.000 NA
ATOM      9  C   UNL     1       4.467   4.317  17.402  0.00  0.00    +0.000 A 
ATOM     10  C   UNL     1       3.962   3.744  18.629  0.00  0.00    +0.000 A 
ATOM     11  O   UNL     1       4.018   2.548  18.870  0.00  0.00    +0.000 OA
ATOM     12  H   UNL     1       3.474   7.483  17.737  0.00  0.00    +0.000 HD
ATOM     13  H   UNL     1       4.907   6.738  15.418  0.00  0.00    +0.000 HD
ENDROOT
BRANCH   7  14
ATOM     14  C   UNL     1       6.125   4.495  14.246  0.00  0.00    +0.000 A 
ATOM     15  C   UNL     1       5.702   3.571  13.282  0.00  0.00    +0.000 A 
ATOM     16  C   UNL     1       6.404   3.434  12.082  0.00  0.00    +0.000 A 
ATOM     17  C   UNL     1       7.532   4.215  11.839  0.00  0.00    +0.000 A 
ATOM     18  C   UNL     1       7.955   5.145  12.785  0.00  0.00    +0.000 A 
ATOM     19  C   UNL     1       7.248   5.291  13.980  0.00  0.00    +0.000 A 
ENDBRANCH   7  14
BRANCH   1  20
ATOM     20  C   UNL     1       3.034   4.227  20.832  0.00  0.00    +0.000 C 
BRANCH  20  21
ATOM     21  C   UNL     1       1.515   4.045  20.965  0.00  0.00    +0.000 C 
BRANCH  21  23
ATOM     22  C   UNL     1       0.545   2.615  19.159  0.00  0.00    +0.000 C 
ATOM     23  C   UNL     1       1.049   2.639  20.593  0.00  0.00    +0.000 C 
ENDBRANCH  21  23
ENDBRANCH  20  21
ENDBRANCH   1  20
TORSDOF 4
ENDMDL
MODEL 8
REMARK VINA RESULT:      -7.2      3.528      7.682
REMARK  Name = 
REMARK  5 active torsions:
REMARK  status: ('A' for Active; 'I' for Inactive)
REMARK    1  A    between atoms: C_1  and  C_2
REMARK    2  A    between atoms: C_2  and  C_3
REMARK    3  A    between atoms: C_3  and  C_4
REMARK    4  A    between atoms: C_4  and  N_5
REMARK    5  A    between atoms: C_11  and  C_12
REMARK                            x       y       z     vdW  Elec       q    Type
REMARK                         _______ _______ _______ _____ _____    ______ ____
ROOT
ATOM      1  N   UNL     1       4.348   4.887  18.122  0.00  0.00    +0.000 N 
ATOM      2  C   UNL     1       3.970   4.012  19.154  0.00  0.00    +0.000 A 
ATOM      3  O   UNL     1       4.380   2.854  19.259  0.00  0.00    +0.000 OA
ATOM      4  N   UNL     1       3.087   4.491  20.106  0.00  0.00    +0.000 N 
ATOM      5  C   UNL     1       2.638   5.776  19.999  0.00  0.00    +0.000 A 
ATOM      6  N   UNL     1       1.826   6.473  20.836  0.00  0.00    +0.000 N 
ATOM      7  C   UNL     1       1.672   7.737  20.291  0.00  0.00    +0.000 A 
ATOM      8  N   UNL     1       2.327   7.828  19.144  0.00  0.00    +0.000 NA
ATOM      9  C   UNL     1       2.940   6.616  18.973  0.00  0.00    +0.000 A 
ATOM     10  C   UNL     1       3.802   6.174  17.900  0.00  0.00    +0.000 A 
ATOM     11  O   UNL     1       4.031   6.857  16.914  0.00  0.00    +0.000 OA
ATOM     12  H   UNL     1       2.825   3.865  20.854  0.00  0.00    +0.000 HD
ATOM     13  H   UNL     1       1.391   6.153  21.690  0.00  0.00    +0.000 HD
ENDROOT
BRANCH   7  14
ATOM     14  C   UNL     1       0.870   8.796  20.897  0.00  0.00    +0.000 A 
ATOM     15  C   UNL     1       0.665   8.857  22.282  0.00  0.00    +0.000 A 
ATOM     16  C   UNL     1      -0.099   9.887  22.836  0.00  0.00    +0.000 A 
ATOM     17  C   UNL     1      -0.665  10.859  22.013  0.00  0.00    +0.000 A 
ATOM     18  C   UNL     1      -0.457  10.815  20.636  0.00  0.00    +0.000 A 
ATOM     19  C   UNL     1       0.315   9.792  20.082  0.00  0.00    +0.000 A 
ENDBRANCH   7  14
BRANCH   1  20
ATOM     20  C   UNL     1       5.357   4.446  17.164  0.00  0.00    +0.000 C 
BRANCH  20  21
ATOM     21  C   UNL     1       6.780   4.772  17.638  0.00  0.00    +0.000 C 
BRANCH  21  23
ATOM     22  C   UNL     1       7.776   7.003  18.167  0.00  0.00    +0.000 C 
ATOM     23  C   UNL     1       7.319   6.075  17.053  0.00  0.00    +0.000 C 
ENDBRANCH  21  23
ENDBRANCH  20  21
ENDBRANCH   1  20
TORSDOF 4
ENDMDL
MODEL 9
REMARK VINA RESULT:      -7.2      1.150      1.904
REMARK  Name = 
REMARK  5 active torsions:
REMARK  status: ('A' for Active; 'I' for Inactive)
REMARK    1  A    between atoms: C_1  and  C_2
REMARK    2  A    between atoms: C_2  and  C_3
REMARK    3  A    between atoms: C_3  and  C_4
REMARK    4  A    between atoms: C_4  and  N_5
REMARK    5  A    between atoms: C_11  and  C_12
REMARK                            x       y       z     vdW  Elec       q    Type
REMARK                         _______ _______ _______ _____ _____    ______ ____
ROOT
ATOM      1  N   UNL     1       2.789   3.036  19.155  0.00  0.00    +0.000 N 
ATOM      2  C   UNL     1       4.010   2.841  19.818  0.00  0.00    +0.000 A 
ATOM      3  O   UNL     1       4.106   2.507  21.001  0.00  0.00    +0.000 OA
ATOM      4  N   UNL     1       5.172   3.035  19.090  0.00  0.00    +0.000 N 
ATOM      5  C   UNL     1       5.071   3.396  17.776  0.00  0.00    +0.000 A 
ATOM      6  N   UNL     1       6.056   3.581  16.860  0.00  0.00    +0.000 N 
ATOM      7  C   UNL     1       5.441   3.933  15.670  0.00  0.00    +0.000 A 
ATOM      8  N   UNL     1       4.129   4.004  15.831  0.00  0.00    +0.000 NA
ATOM      9  C   UNL     1       3.899   3.653  17.135  0.00  0.00    +0.000 A 
ATOM     10  C   UNL     1       2.643   3.540  17.840  0.00  0.00    +0.000 A 
ATOM     11  O   UNL     1       1.573   3.846  17.335  0.00  0.00    +0.000 OA
ATOM     12  H   UNL     1       6.049   2.884  19.564  0.00  0.00    +0.000 HD
ATOM     13  H   UNL     1       7.054   3.499  16.995  0.00  0.00    +0.000 HD
ENDROOT
BRANCH   7  14
ATOM     14  C   UNL     1       6.160   4.215  14.430  0.00  0.00    +0.000 A 
ATOM     15  C   UNL     1       5.820   3.583  13.228  0.00  0.00    +0.000 A 
ATOM     16  C   UNL     1       6.518   3.878  12.055  0.00  0.00    +0.000 A 
ATOM     17  C   UNL     1       7.561   4.802  12.075  0.00  0.00    +0.000 A 
ATOM     18  C   UNL     1       7.900   5.446  13.263  0.00  0.00    +0.000 A 
ATOM     19  C   UNL     1       7.196   5.159  14.434  0.00  0.00    +0.000 A 
ENDBRANCH   7  14
BRANCH   1  20
ATOM     20  C   UNL     1       1.549   2.738  19.867  0.00  0.00    +0.000 C 
BRANCH  20  21
ATOM     21  C   UNL     1       0.866   4.011  20.388  0.00  0.00    +0.000 C 
BRANCH  21  23
ATOM     22  C   UNL     1       1.813   6.323  20.306  0.00  0.00    +0.000 C 
ATOM     23  C   UNL     1       1.844   4.989  21.035  0.00  0.00    +0.000 C 
ENDBRANCH  21  23
ENDBRANCH  20  21
ENDBRANCH   1  20
TORSDOF 4
ENDMDL
