MODEL 1
REMARK VINA RESULT:      -9.0      0.000      0.000
REMARK  Name = 
REMARK  5 active torsions:
REMARK  status: ('A' for Active; 'I' for Inactive)
REMARK    1  A    between atoms: C_2  and  C_3
REMARK    2  A    between atoms: C_3  and  N_4
REMARK    3  A    between atoms: C_5  and  C_7
REMARK    4  A    between atoms: C_7  and  C_8
REMARK    5  A    between atoms: N_19  and  C_20
REMARK                            x       y       z     vdW  Elec       q    Type
REMARK                         _______ _______ _______ _____ _____    ______ ____
ROOT
ATOM      1  N   UNL     1       7.158   6.154  17.502  0.00  0.00    +0.000 N 
ATOM      2  C   UNL     1       6.273   5.139  17.795  0.00  0.00    +0.000 C 
ATOM      3  O   UNL     1       6.187   4.688  18.941  0.00  0.00    +0.000 OA
ATOM      4  H   UNL     1       7.155   6.596  16.585  0.00  0.00    +0.000 HD
ENDROOT
BRANCH   2   5
ATOM      5  C   UNL     1       5.405   4.637  16.565  0.00  0.00    +0.000 C 
ATOM      6  C   UNL     1       5.333   5.602  15.322  0.00  0.00    +0.000 C 
ATOM      7  C   UNL     1       5.522   4.383  14.410  0.00  0.00    +0.000 C 
ATOM      8  C   UNL     1       6.188   3.669  15.592  0.00  0.00    +0.000 C 
BRANCH   5   9
ATOM      9  C   UNL     1       4.026   4.082  17.199  0.00  0.00    +0.000 A 
ATOM     10  C   UNL     1       3.788   2.700  17.380  0.00  0.00    +0.000 A 
ATOM     11  C   UNL     1       2.634   2.223  18.010  0.00  0.00    +0.000 A 
ATOM     12  C   UNL     1       1.689   3.122  18.478  0.00  0.00    +0.000 A 
ATOM     13  F   UNL     1       0.598   2.666  19.107  0.00  0.00    +0.000 F 
ATOM     14  C   UNL     1       1.871   4.485  18.321  0.00  0.00    +0.000 A 
ATOM     15  C   UNL     1       3.027   4.943  17.694  0.00  0.00    +0.000 A 
ATOM     16  F   UNL     1       3.205   6.270  17.595  0.00  0.00    +0.000 F 
ENDBRANCH   5   9
ENDBRANCH   2   5
BRANCH   1  17
ATOM     17  C   UNL     1       7.988   6.754  18.529  0.00  0.00    +0.000 C 
BRANCH  17  19
ATOM     18  O   UNL     1       7.623   8.776  17.279  0.00  0.00    +0.000 OA
ATOM     19  C   UNL     1       8.171   8.246  18.246  0.00  0.00    +0.000 C 
ATOM     20  N   UNL     1       8.981   8.878  19.175  0.00  0.00    +0.000 N 
ATOM     21  H   UNL     1       9.502   8.284  19.812  0.00  0.00    +0.000 HD
BRANCH  20  22
ATOM     22  C   UNL     1       9.307  10.251  19.200  0.00  0.00    +0.000 A 
ATOM     23  C   UNL     1       9.609  11.002  18.066  0.00  0.00    +0.000 A 
ATOM     24  C   UNL     1       9.952  12.347  18.194  0.00  0.00    +0.000 A 
ATOM     25  C   UNL     1       9.976  12.906  19.461  0.00  0.00    +0.000 A 
ATOM     26  N   UNL     1       9.660  12.226  20.583  0.00  0.00    +0.000 NA
ATOM     27  C   UNL     1       9.329  10.921  20.423  0.00  0.00    +0.000 A 
ENDBRANCH  20  22
ENDBRANCH  17  19
ENDBRANCH   1  17
TORSDOF 5
ENDMDL
MODEL 2
REMARK VINA RESULT:      -8.6      4.372      6.197
REMARK  Name = 
REMARK  5 active torsions:
REMARK  status: ('A' for Active; 'I' for Inactive)
REMARK    1  A    between atoms: C_2  and  C_3
REMARK    2  A    between atoms: C_3  and  N_4
REMARK    3  A    between atoms: C_5  and  C_7
REMARK    4  A    between atoms: C_7  and  C_8
REMARK    5  A    between atoms: N_19  and  C_20
REMARK                            x       y       z     vdW  Elec       q    Type
REMARK                         _______ _______ _______ _____ _____    ______ ____
ROOT
ATOM      1  N   UNL     1       5.069   4.995  18.506  0.00  0.00    +0.000 N 
ATOM      2  C   UNL     1       4.347   3.937  19.015  0.00  0.00    +0.000 C 
ATOM      3  O   UNL     1       4.921   2.966  19.517  0.00  0.00    +0.000 OA
ATOM      4  H   UNL     1       4.597   5.839  18.187  0.00  0.00    +0.000 HD
ENDROOT
BRANCH   2   5
ATOM      5  C   UNL     1       2.772   4.091  18.902  0.00  0.00    +0.000 C 
ATOM      6  C   UNL     1       2.077   3.313  17.721  0.00  0.00    +0.000 C 
ATOM      7  C   UNL     1       0.970   2.894  18.697  0.00  0.00    +0.000 C 
ATOM      8  C   UNL     1       1.971   3.103  19.839  0.00  0.00    +0.000 C 
BRANCH   5   9
ATOM      9  C   UNL     1       2.473   5.670  19.074  0.00  0.00    +0.000 A 
ATOM     10  C   UNL     1       2.476   6.557  17.973  0.00  0.00    +0.000 A 
ATOM     11  C   UNL     1       2.130   7.905  18.106  0.00  0.00    +0.000 A 
ATOM     12  C   UNL     1       1.770   8.399  19.350  0.00  0.00    +0.000 A 
ATOM     13  F   UNL     1       1.411   9.684  19.472  0.00  0.00    +0.000 F 
ATOM     14  C   UNL     1       1.757   7.575  20.462  0.00  0.00    +0.000 A 
ATOM     15  C   UNL     1       2.102   6.234  20.311  0.00  0.00    +0.000 A 
ATOM     16  F   UNL     1       2.036   5.443  21.392  0.00  0.00    +0.000 F 
ENDBRANCH   5   9
ENDBRANCH   2   5
BRANCH   1  17
ATOM     17  C   UNL     1       6.517   5.027  18.576  0.00  0.00    +0.000 C 
BRANCH  17  19
ATOM     18  O   UNL     1       8.237   4.177  17.128  0.00  0.00    +0.000 OA
ATOM     19  C   UNL     1       7.114   4.672  17.214  0.00  0.00    +0.000 C 
ATOM     20  N   UNL     1       6.264   4.960  16.158  0.00  0.00    +0.000 N 
ATOM     21  H   UNL     1       5.447   5.525  16.365  0.00  0.00    +0.000 HD
BRANCH  20  22
ATOM     22  C   UNL     1       6.520   4.715  14.792  0.00  0.00    +0.000 A 
ATOM     23  C   UNL     1       5.845   3.764  14.030  0.00  0.00    +0.000 A 
ATOM     24  C   UNL     1       6.191   3.572  12.693  0.00  0.00    +0.000 A 
ATOM     25  C   UNL     1       7.204   4.346  12.154  0.00  0.00    +0.000 A 
ATOM     26  N   UNL     1       7.862   5.300  12.845  0.00  0.00    +0.000 NA
ATOM     27  C   UNL     1       7.500   5.463  14.140  0.00  0.00    +0.000 A 
ENDBRANCH  20  22
ENDBRANCH  17  19
ENDBRANCH   1  17
TORSDOF 5
ENDMDL
MODEL 3
REMARK VINA RESULT:      -8.4      0.947      1.348
REMARK  Name = 
REMARK  5 active torsions:
REMARK  status: ('A' for Active; 'I' for Inactive)
REMARK    1  A    between atoms: C_2  and  C_3
REMARK    2  A    between atoms: C_3  and  N_4
REMARK    3  A    between atoms: C_5  and  C_7
REMARK    4  A    between atoms: C_7  and  C_8
REMARK    5  A    between atoms: N_19  and  C_20
REMARK                            x       y       z     vdW  Elec       q    Type
REMARK                         _______ _______ _______ _____ _____    ______ ____
ROOT
ATOM      1  N   UNL     1       7.103   6.228  17.539  0.00  0.00    +0.000 N 
ATOM      2  C   UNL     1       6.334   5.119  17.821  0.00  0.00    +0.000 C 
ATOM      3  O   UNL     1       6.409   4.564  18.921  0.00  0.00    +0.000 OA
ATOM      4  H   UNL     1       6.966   6.747  16.673  0.00  0.00    +0.000 HD
ENDROOT
BRANCH   2   5
ATOM      5  C   UNL     1       5.378   4.655  16.643  0.00  0.00    +0.000 C 
ATOM      6  C   UNL     1       5.270   5.626  15.407  0.00  0.00    +0.000 C 
ATOM      7  C   UNL     1       5.359   4.404  14.484  0.00  0.00    +0.000 C 
ATOM      8  C   UNL     1       6.064   3.661  15.626  0.00  0.00    +0.000 C 
BRANCH   5   9
ATOM      9  C   UNL     1       4.018   4.151  17.356  0.00  0.00    +0.000 A 
ATOM     10  C   UNL     1       2.998   5.051  17.743  0.00  0.00    +0.000 A 
ATOM     11  C   UNL     1       1.784   4.609  18.278  0.00  0.00    +0.000 A 
ATOM     12  C   UNL     1       1.560   3.251  18.437  0.00  0.00    +0.000 A 
ATOM     13  F   UNL     1       0.386   2.827  18.923  0.00  0.00    +0.000 F 
ATOM     14  C   UNL     1       2.527   2.328  18.080  0.00  0.00    +0.000 A 
ATOM     15  C   UNL     1       3.730   2.785  17.546  0.00  0.00    +0.000 A 
ATOM     16  F   UNL     1       4.635   1.871  17.163  0.00  0.00    +0.000 F 
ENDBRANCH   5   9
ENDBRANCH   2   5
BRANCH   1  17
ATOM     17  C   UNL     1       7.992   6.805  18.528  0.00  0.00    +0.000 C 
BRANCH  17  19
ATOM     18  O   UNL     1       7.597   8.845  17.319  0.00  0.00    +0.000 OA
ATOM     19  C   UNL     1       8.188   8.296  18.248  0.00  0.00    +0.000 C 
ATOM     20  N   UNL     1       9.062   8.903  19.135  0.00  0.00    +0.000 N 
ATOM     21  H   UNL     1       9.606   8.293  19.736  0.00  0.00    +0.000 HD
BRANCH  20  22
ATOM     22  C   UNL     1       9.416  10.269  19.153  0.00  0.00    +0.000 A 
ATOM     23  C   UNL     1       9.987  10.941  18.075  0.00  0.00    +0.000 A 
ATOM     24  C   UNL     1      10.333  12.286  18.199  0.00  0.00    +0.000 A 
ATOM     25  C   UNL     1      10.089  12.924  19.404  0.00  0.00    +0.000 A 
ATOM     26  N   UNL     1       9.510  12.321  20.463  0.00  0.00    +0.000 NA
ATOM     27  C   UNL     1       9.184  11.015  20.308  0.00  0.00    +0.000 A 
ENDBRANCH  20  22
ENDBRANCH  17  19
ENDBRANCH   1  17
TORSDOF 5
ENDMDL
MODEL 4
REMARK VINA RESULT:      -8.3      4.494      6.151
REMARK  Name = 
REMARK  5 active torsions:
REMARK  status: ('A' for Active; 'I' for Inactive)
REMARK    1  A    between atoms: C_2  and  C_3
REMARK    2  A    between atoms: C_3  and  N_4
REMARK    3  A    between atoms: C_5  and  C_7
REMARK    4  A    between atoms: C_7  and  C_8
REMARK    5  A    between atoms: N_19  and  C_20
REMARK                            x       y       z     vdW  Elec       q    Type
REMARK                         _______ _______ _______ _____ _____    ______ ____
ROOT
ATOM      1  N   UNL     1       5.054   4.599  18.405  0.00  0.00    +0.000 N 
ATOM      2  C   UNL     1       4.357   3.681  19.162  0.00  0.00    +0.000 C 
ATOM      3  O   UNL     1       4.951   2.907  19.917  0.00  0.00    +0.000 OA
ATOM      4  H   UNL     1       4.561   5.305  17.862  0.00  0.00    +0.000 HD
ENDROOT
BRANCH   2   5
ATOM      5  C   UNL     1       2.782   3.727  18.977  0.00  0.00    +0.000 C 
ATOM      6  C   UNL     1       2.212   3.054  17.671  0.00  0.00    +0.000 C 
ATOM      7  C   UNL     1       1.098   2.430  18.522  0.00  0.00    +0.000 C 
ATOM      8  C   UNL     1       2.022   2.569  19.737  0.00  0.00    +0.000 C 
BRANCH   5   9
ATOM      9  C   UNL     1       2.344   5.243  19.325  0.00  0.00    +0.000 A 
ATOM     10  C   UNL     1       1.848   5.606  20.598  0.00  0.00    +0.000 A 
ATOM     11  C   UNL     1       1.554   6.933  20.928  0.00  0.00    +0.000 A 
ATOM     12  C   UNL     1       1.752   7.932  19.988  0.00  0.00    +0.000 A 
ATOM     13  F   UNL     1       1.497   9.206  20.314  0.00  0.00    +0.000 F 
ATOM     14  C   UNL     1       2.230   7.630  18.725  0.00  0.00    +0.000 A 
ATOM     15  C   UNL     1       2.520   6.303  18.414  0.00  0.00    +0.000 A 
ATOM     16  F   UNL     1       3.028   6.040  17.200  0.00  0.00    +0.000 F 
ENDBRANCH   5   9
ENDBRANCH   2   5
BRANCH   1  17
ATOM     17  C   UNL     1       6.496   4.716  18.496  0.00  0.00    +0.000 C 
BRANCH  17  19
ATOM     18  O   UNL     1       8.308   4.193  17.004  0.00  0.00    +0.000 OA
ATOM     19  C   UNL     1       7.125   4.514  17.117  0.00  0.00    +0.000 C 
ATOM     20  N   UNL     1       6.231   4.720  16.078  0.00  0.00    +0.000 N 
ATOM     21  H   UNL     1       5.342   5.149  16.314  0.00  0.00    +0.000 HD
BRANCH  20  22
ATOM     22  C   UNL     1       6.506   4.577  14.701  0.00  0.00    +0.000 A 
ATOM     23  C   UNL     1       5.877   3.650  13.873  0.00  0.00    +0.000 A 
ATOM     24  C   UNL     1       6.240   3.561  12.530  0.00  0.00    +0.000 A 
ATOM     25  C   UNL     1       7.222   4.412  12.051  0.00  0.00    +0.000 A 
ATOM     26  N   UNL     1       7.834   5.346  12.809  0.00  0.00    +0.000 NA
ATOM     27  C   UNL     1       7.457   5.407  14.109  0.00  0.00    +0.000 A 
ENDBRANCH  20  22
ENDBRANCH  17  19
ENDBRANCH   1  17
TORSDOF 5
ENDMDL
MODEL 5
REMARK VINA RESULT:      -8.2      1.783      2.737
REMARK  Name = 
REMARK  5 active torsions:
REMARK  status: ('A' for Active; 'I' for Inactive)
REMARK    1  A    between atoms: C_2  and  C_3
REMARK    2  A    between atoms: C_3  and  N_4
REMARK    3  A    between atoms: C_5  and  C_7
REMARK    4  A    between atoms: C_7  and  C_8
REMARK    5  A    between atoms: N_19  and  C_20
REMARK                            x       y       z     vdW  Elec       q    Type
REMARK                         _______ _______ _______ _____ _____    ______ ____
ROOT
ATOM      1  N   UNL     1       6.763   6.189  18.007  0.00  0.00    +0.000 N 
ATOM      2  C   UNL     1       6.004   5.340  18.785  0.00  0.00    +0.000 C 
ATOM      3  O   UNL     1       6.407   4.968  19.890  0.00  0.00    +0.000 OA
ATOM      4  H   UNL     1       6.386   6.577  17.145  0.00  0.00    +0.000 HD
ENDROOT
BRANCH   2   5
ATOM      5  C   UNL     1       4.615   4.916  18.146  0.00  0.00    +0.000 C 
ATOM      6  C   UNL     1       4.669   4.333  16.682  0.00  0.00    +0.000 C 
ATOM      7  C   UNL     1       3.669   3.252  17.115  0.00  0.00    +0.000 C 
ATOM      8  C   UNL     1       4.146   3.465  18.557  0.00  0.00    +0.000 C 
BRANCH   5   9
ATOM      9  C   UNL     1       3.599   6.132  18.460  0.00  0.00    +0.000 A 
ATOM     10  C   UNL     1       2.843   6.187  19.654  0.00  0.00    +0.000 A 
ATOM     11  C   UNL     1       2.032   7.282  19.968  0.00  0.00    +0.000 A 
ATOM     12  C   UNL     1       1.959   8.353  19.092  0.00  0.00    +0.000 A 
ATOM     13  F   UNL     1       1.204   9.414  19.407  0.00  0.00    +0.000 F 
ATOM     14  C   UNL     1       2.673   8.347  17.907  0.00  0.00    +0.000 A 
ATOM     15  C   UNL     1       3.479   7.250  17.611  0.00  0.00    +0.000 A 
ATOM     16  F   UNL     1       4.200   7.287  16.480  0.00  0.00    +0.000 F 
ENDBRANCH   5   9
ENDBRANCH   2   5
BRANCH   1  17
ATOM     17  C   UNL     1       8.036   6.705  18.471  0.00  0.00    +0.000 C 
BRANCH  17  19
ATOM     18  O   UNL     1       7.433   8.735  17.332  0.00  0.00    +0.000 OA
ATOM     19  C   UNL     1       8.114   8.210  18.214  0.00  0.00    +0.000 C 
ATOM     20  N   UNL     1       8.994   8.861  19.064  0.00  0.00    +0.000 N 
ATOM     21  H   UNL     1       9.612   8.278  19.619  0.00  0.00    +0.000 HD
BRANCH  20  22
ATOM     22  C   UNL     1       9.254  10.247  19.092  0.00  0.00    +0.000 A 
ATOM     23  C   UNL     1       9.554  11.008  17.964  0.00  0.00    +0.000 A 
ATOM     24  C   UNL     1       9.829  12.368  18.097  0.00  0.00    +0.000 A 
ATOM     25  C   UNL     1       9.790  12.931  19.361  0.00  0.00    +0.000 A 
ATOM     26  N   UNL     1       9.474  12.240  20.476  0.00  0.00    +0.000 NA
ATOM     27  C   UNL     1       9.210  10.921  20.312  0.00  0.00    +0.000 A 
ENDBRANCH  20  22
ENDBRANCH  17  19
ENDBRANCH   1  17
TORSDOF 5
ENDMDL
MODEL 6
REMARK VINA RESULT:      -8.2      4.190      6.087
REMARK  Name = 
REMARK  5 active torsions:
REMARK  status: ('A' for Active; 'I' for Inactive)
REMARK    1  A    between atoms: C_2  and  C_3
REMARK    2  A    between atoms: C_3  and  N_4
REMARK    3  A    between atoms: C_5  and  C_7
REMARK    4  A    between atoms: C_7  and  C_8
REMARK    5  A    between atoms: N_19  and  C_20
REMARK                            x       y       z     vdW  Elec       q    Type
REMARK                         _______ _______ _______ _____ _____    ______ ____
ROOT
ATOM      1  N   UNL     1       5.034   5.185  19.457  0.00  0.00    +0.000 N 
ATOM      2  C   UNL     1       4.391   3.992  19.707  0.00  0.00    +0.000 C 
ATOM      3  O   UNL     1       5.034   2.954  19.884  0.00  0.00    +0.000 OA
ATOM      4  H   UNL     1       4.510   6.058  19.414  0.00  0.00    +0.000 HD
ENDROOT
BRANCH   2   5
ATOM      5  C   UNL     1       2.807   4.086  19.751  0.00  0.00    +0.000 C 
ATOM      6  C   UNL     1       2.019   2.948  18.997  0.00  0.00    +0.000 C 
ATOM      7  C   UNL     1       1.056   2.876  20.190  0.00  0.00    +0.000 C 
ATOM      8  C   UNL     1       2.172   3.468  21.058  0.00  0.00    +0.000 C 
BRANCH   5   9
ATOM      9  C   UNL     1       2.451   5.627  19.420  0.00  0.00    +0.000 A 
ATOM     10  C   UNL     1       2.057   6.538  20.428  0.00  0.00    +0.000 A 
ATOM     11  C   UNL     1       1.836   7.892  20.158  0.00  0.00    +0.000 A 
ATOM     12  C   UNL     1       2.006   8.370  18.869  0.00  0.00    +0.000 A 
ATOM     13  F   UNL     1       1.822   9.672  18.616  0.00  0.00    +0.000 F 
ATOM     14  C   UNL     1       2.386   7.520  17.844  0.00  0.00    +0.000 A 
ATOM     15  C   UNL     1       2.605   6.174  18.131  0.00  0.00    +0.000 A 
ATOM     16  F   UNL     1       3.018   5.378  17.133  0.00  0.00    +0.000 F 
ENDBRANCH   5   9
ENDBRANCH   2   5
BRANCH   1  17
ATOM     17  C   UNL     1       6.481   5.274  19.432  0.00  0.00    +0.000 C 
BRANCH  17  19
ATOM     18  O   UNL     1       8.100   4.320  17.933  0.00  0.00    +0.000 OA
ATOM     19  C   UNL     1       7.005   4.869  18.054  0.00  0.00    +0.000 C 
ATOM     20  N   UNL     1       6.128   5.178  17.027  0.00  0.00    +0.000 N 
ATOM     21  H   UNL     1       5.346   5.784  17.256  0.00  0.00    +0.000 HD
BRANCH  20  22
ATOM     22  C   UNL     1       6.316   4.898  15.657  0.00  0.00    +0.000 A 
ATOM     23  C   UNL     1       5.493   4.057  14.912  0.00  0.00    +0.000 A 
ATOM     24  C   UNL     1       5.779   3.816  13.569  0.00  0.00    +0.000 A 
ATOM     25  C   UNL     1       6.884   4.433  13.007  0.00  0.00    +0.000 A 
ATOM     26  N   UNL     1       7.691   5.279  13.681  0.00  0.00    +0.000 NA
ATOM     27  C   UNL     1       7.383   5.493  14.983  0.00  0.00    +0.000 A 
ENDBRANCH  20  22
ENDBRANCH  17  19
ENDBRANCH   1  17
TORSDOF 5
ENDMDL
MODEL 7
REMARK VINA RESULT:      -8.2      1.190      1.728
REMARK  Name = 
REMARK  5 active torsions:
REMARK  status: ('A' for Active; 'I' for Inactive)
REMARK    1  A    between atoms: C_2  and  C_3
REMARK    2  A    between atoms: C_3  and  N_4
REMARK    3  A    between atoms: C_5  and  C_7
REMARK    4  A    between atoms: C_7  and  C_8
REMARK    5  A    between atoms: N_19  and  C_20
REMARK                            x       y       z     vdW  Elec       q    Type
REMARK                         _______ _______ _______ _____ _____    ______ ____
ROOT
ATOM      1  N   UNL     1       7.111   6.537  17.559  0.00  0.00    +0.000 N 
ATOM      2  C   UNL     1       6.801   5.195  17.508  0.00  0.00    +0.000 C 
ATOM      3  O   UNL     1       7.389   4.384  18.229  0.00  0.00    +0.000 OA
ATOM      4  H   UNL     1       6.557   7.217  17.042  0.00  0.00    +0.000 HD
ENDROOT
BRANCH   2   5
ATOM      5  C   UNL     1       5.653   4.816  16.479  0.00  0.00    +0.000 C 
ATOM      6  C   UNL     1       5.571   5.692  15.172  0.00  0.00    +0.000 C 
ATOM      7  C   UNL     1       5.349   4.405  14.367  0.00  0.00    +0.000 C 
ATOM      8  C   UNL     1       6.044   3.641  15.500  0.00  0.00    +0.000 C 
BRANCH   5   9
ATOM      9  C   UNL     1       4.317   4.618  17.367  0.00  0.00    +0.000 A 
ATOM     10  C   UNL     1       3.529   5.714  17.788  0.00  0.00    +0.000 A 
ATOM     11  C   UNL     1       2.326   5.539  18.479  0.00  0.00    +0.000 A 
ATOM     12  C   UNL     1       1.880   4.258  18.765  0.00  0.00    +0.000 A 
ATOM     13  F   UNL     1       0.714   4.090  19.401  0.00  0.00    +0.000 F 
ATOM     14  C   UNL     1       2.617   3.151  18.380  0.00  0.00    +0.000 A 
ATOM     15  C   UNL     1       3.812   3.343  17.690  0.00  0.00    +0.000 A 
ATOM     16  F   UNL     1       4.486   2.256  17.286  0.00  0.00    +0.000 F 
ENDBRANCH   5   9
ENDBRANCH   2   5
BRANCH   1  17
ATOM     17  C   UNL     1       8.105   7.049  18.482  0.00  0.00    +0.000 C 
BRANCH  17  19
ATOM     18  O   UNL     1       7.530   9.175  17.518  0.00  0.00    +0.000 OA
ATOM     19  C   UNL     1       8.219   8.567  18.337  0.00  0.00    +0.000 C 
ATOM     20  N   UNL     1       9.142   9.127  19.206  0.00  0.00    +0.000 N 
ATOM     21  H   UNL     1       9.758   8.488  19.698  0.00  0.00    +0.000 HD
BRANCH  20  22
ATOM     22  C   UNL     1       9.443  10.500  19.331  0.00  0.00    +0.000 A 
ATOM     23  C   UNL     1       9.391  11.204  20.531  0.00  0.00    +0.000 A 
ATOM     24  C   UNL     1       9.675  12.569  20.549  0.00  0.00    +0.000 A 
ATOM     25  C   UNL     1      10.012  13.191  19.358  0.00  0.00    +0.000 A 
ATOM     26  N   UNL     1      10.105  12.542  18.178  0.00  0.00    +0.000 NA
ATOM     27  C   UNL     1       9.825  11.216  18.197  0.00  0.00    +0.000 A 
ENDBRANCH  20  22
ENDBRANCH  17  19
ENDBRANCH   1  17
TORSDOF 5
ENDMDL
MODEL 8
REMARK VINA RESULT:      -8.1      3.714      5.930
REMARK  Name = 
REMARK  5 active torsions:
REMARK  status: ('A' for Active; 'I' for Inactive)
REMARK    1  A    between atoms: C_2  and  C_3
REMARK    2  A    between atoms: C_3  and  N_4
REMARK    3  A    between atoms: C_5  and  C_7
REMARK    4  A    between atoms: C_7  and  C_8
REMARK    5  A    between atoms: N_19  and  C_20
REMARK                            x       y       z     vdW  Elec       q    Type
REMARK                         _______ _______ _______ _____ _____    ______ ____
ROOT
ATOM      1  N   UNL     1       5.400   6.510  17.890  0.00  0.00    +0.000 N 
ATOM      2  C   UNL     1       4.605   6.003  18.896  0.00  0.00    +0.000 C 
ATOM      3  O   UNL     1       5.085   5.286  19.779  0.00  0.00    +0.000 OA
ATOM      4  H   UNL     1       5.027   7.183  17.224  0.00  0.00    +0.000 HD
ENDROOT
BRANCH   2   5
ATOM      5  C   UNL     1       3.077   6.425  18.813  0.00  0.00    +0.000 C 
ATOM      6  C   UNL     1       2.611   7.558  19.804  0.00  0.00    +0.000 C 
ATOM      7  C   UNL     1       1.821   8.191  18.651  0.00  0.00    +0.000 C 
ATOM      8  C   UNL     1       2.774   7.483  17.680  0.00  0.00    +0.000 C 
BRANCH   5   9
ATOM      9  C   UNL     1       2.243   5.042  18.767  0.00  0.00    +0.000 A 
ATOM     10  C   UNL     1       2.279   4.183  17.645  0.00  0.00    +0.000 A 
ATOM     11  C   UNL     1       1.631   2.944  17.638  0.00  0.00    +0.000 A 
ATOM     12  C   UNL     1       0.929   2.533  18.761  0.00  0.00    +0.000 A 
ATOM     13  F   UNL     1       0.331   1.335  18.765  0.00  0.00    +0.000 F 
ATOM     14  C   UNL     1       0.857   3.339  19.884  0.00  0.00    +0.000 A 
ATOM     15  C   UNL     1       1.511   4.569  19.874  0.00  0.00    +0.000 A 
ATOM     16  F   UNL     1       1.469   5.312  20.991  0.00  0.00    +0.000 F 
ENDBRANCH   5   9
ENDBRANCH   2   5
BRANCH   1  17
ATOM     17  C   UNL     1       6.827   6.254  17.853  0.00  0.00    +0.000 C 
BRANCH  17  19
ATOM     18  O   UNL     1       7.979   4.418  16.812  0.00  0.00    +0.000 OA
ATOM     19  C   UNL     1       7.161   5.329  16.682  0.00  0.00    +0.000 C 
ATOM     20  N   UNL     1       6.454   5.635  15.530  0.00  0.00    +0.000 N 
ATOM     21  H   UNL     1       5.950   6.516  15.520  0.00  0.00    +0.000 HD
BRANCH  20  22
ATOM     22  C   UNL     1       6.522   4.944  14.302  0.00  0.00    +0.000 A 
ATOM     23  C   UNL     1       5.624   3.952  13.915  0.00  0.00    +0.000 A 
ATOM     24  C   UNL     1       5.792   3.301  12.693  0.00  0.00    +0.000 A 
ATOM     25  C   UNL     1       6.857   3.670  11.888  0.00  0.00    +0.000 A 
ATOM     26  N   UNL     1       7.732   4.646  12.208  0.00  0.00    +0.000 NA
ATOM     27  C   UNL     1       7.538   5.260  13.401  0.00  0.00    +0.000 A 
ENDBRANCH  20  22
ENDBRANCH  17  19
ENDBRANCH   1  17
TORSDOF 5
ENDMDL
MODEL 9
REMARK VINA RESULT:      -8.1      1.389      1.688
REMARK  Name = 
REMARK  5 active torsions:
REMARK  status: ('A' for Active; 'I' for Inactive)
REMARK    1  A    between atoms: C_2  and  C_3
REMARK    2  A    between atoms: C_3  and  N_4
REMARK    3  A    between atoms: C_5  and  C_7
REMARK    4  A    between atoms: C_7  and  C_8
REMARK    5  A    between atoms: N_19  and  C_20
REMARK                            x       y       z     vdW  Elec       q    Type
REMARK                         _______ _______ _______ _____ _____    ______ ____
ROOT
ATOM      1  N   UNL     1       7.194   6.750  17.797  0.00  0.00    +0.000 N 
ATOM      2  C   UNL     1       7.001   5.393  17.645  0.00  0.00    +0.000 C 
ATOM      3  O   UNL     1       7.779   4.585  18.159  0.00  0.00    +0.000 OA
ATOM      4  H   UNL     1       6.497   7.413  17.462  0.00  0.00    +0.000 HD
ENDROOT
BRANCH   2   5
ATOM      5  C   UNL     1       5.727   4.994  16.787  0.00  0.00    +0.000 C 
ATOM      6  C   UNL     1       5.578   5.701  15.387  0.00  0.00    +0.000 C 
ATOM      7  C   UNL     1       5.174   4.349  14.787  0.00  0.00    +0.000 C 
ATOM      8  C   UNL     1       5.921   3.673  15.943  0.00  0.00    +0.000 C 
BRANCH   5   9
ATOM      9  C   UNL     1       4.479   5.032  17.813  0.00  0.00    +0.000 A 
ATOM     10  C   UNL     1       3.463   6.010  17.721  0.00  0.00    +0.000 A 
ATOM     11  C   UNL     1       2.338   5.992  18.550  0.00  0.00    +0.000 A 
ATOM     12  C   UNL     1       2.201   4.987  19.495  0.00  0.00    +0.000 A 
ATOM     13  F   UNL     1       1.109   4.953  20.270  0.00  0.00    +0.000 F 
ATOM     14  C   UNL     1       3.170   4.008  19.632  0.00  0.00    +0.000 A 
ATOM     15  C   UNL     1       4.283   4.040  18.795  0.00  0.00    +0.000 A 
ATOM     16  F   UNL     1       5.186   3.054  18.912  0.00  0.00    +0.000 F 
ENDBRANCH   5   9
ENDBRANCH   2   5
BRANCH   1  17
ATOM     17  C   UNL     1       8.286   7.275  18.592  0.00  0.00    +0.000 C 
BRANCH  17  19
ATOM     18  O   UNL     1       7.674   9.373  17.591  0.00  0.00    +0.000 OA
ATOM     19  C   UNL     1       8.380   8.791  18.414  0.00  0.00    +0.000 C 
ATOM     20  N   UNL     1       9.307   9.380  19.259  0.00  0.00    +0.000 N 
ATOM     21  H   UNL     1       9.937   8.758  19.756  0.00  0.00    +0.000 HD
BRANCH  20  22
ATOM     22  C   UNL     1       9.593  10.759  19.351  0.00  0.00    +0.000 A 
ATOM     23  C   UNL     1      10.145  11.511  18.317  0.00  0.00    +0.000 A 
ATOM     24  C   UNL     1      10.423  12.863  18.514  0.00  0.00    +0.000 A 
ATOM     25  C   UNL     1      10.133  13.426  19.746  0.00  0.00    +0.000 A 
ATOM     26  N   UNL     1       9.570  12.743  20.764  0.00  0.00    +0.000 NA
ATOM     27  C   UNL     1       9.310  11.432  20.539  0.00  0.00    +0.000 A 
ENDBRANCH  20  22
ENDBRANCH  17  19
ENDBRANCH   1  17
TORSDOF 5
ENDMDL
