MODEL 1
REMARK VINA RESULT:      -8.3      0.000      0.000
REMARK  Name = 
REMARK  12 active torsions:
REMARK  status: ('A' for Active; 'I' for Inactive)
REMARK    1  A    between atoms: C_1  and  O_2
REMARK    2  A    between atoms: O_2  and  C_3
REMARK    3  A    between atoms: C_5  and  O_6
REMARK    4  A    between atoms: C_14  and  C_15
REMARK    5  A    between atoms: C_16  and  C_17
REMARK    6  A    between atoms: C_17  and  O_19
REMARK    7  A    between atoms: O_19  and  C_20
REMARK    8  A    between atoms: C_20  and  C_21
REMARK    9  A    between atoms: C_23  and  O_24
REMARK   10  A    between atoms: C_25  and  O_26
REMARK   11  A    between atoms: C_27  and  O_28
REMARK   12  A    between atoms: C_29  and  O_30
REMARK                            x       y       z     vdW  Elec       q    Type
REMARK                         _______ _______ _______ _____ _____    ______ ____
ROOT
ATOM      1  C   UNL     1       1.268  12.457  20.560  0.00  0.00    +0.000 A 
ATOM      2  C   UNL     1       1.681  12.571  19.235  0.00  0.00    +0.000 A 
ATOM      3  C   UNL     1       1.936  11.421  18.473  0.00  0.00    +0.000 A 
ATOM      4  C   UNL     1       1.781  10.137  19.020  0.00  0.00    +0.000 A 
ATOM      5  C   UNL     1       1.354  10.038  20.347  0.00  0.00    +0.000 A 
ATOM      6  C   UNL     1       1.100  11.189  21.109  0.00  0.00    +0.000 A 
ATOM      7  C   UNL     1       1.162   8.725  20.984  0.00  0.00    +0.000 C 
ATOM      8  O   UNL     1       0.782   8.647  22.147  0.00  0.00    +0.000 OA
ATOM      9  C   UNL     1       1.433   7.502  20.214  0.00  0.00    +0.000 A 
ATOM     10  C   UNL     1       1.255   6.259  20.832  0.00  0.00    +0.000 A 
ATOM     11  C   UNL     1       1.514   5.066  20.143  0.00  0.00    +0.000 A 
ATOM     12  C   UNL     1       1.328   3.765  20.880  0.00  0.00    +0.000 C 
ATOM     13  C   UNL     1       1.960   5.130  18.804  0.00  0.00    +0.000 A 
ATOM     14  C   UNL     1       2.135   6.384  18.187  0.00  0.00    +0.000 A 
ATOM     15  C   UNL     1       1.868   7.571  18.897  0.00  0.00    +0.000 A 
ATOM     16  C   UNL     1       2.057   8.890  18.247  0.00  0.00    +0.000 C 
ATOM     17  O   UNL     1       2.442   8.904  17.084  0.00  0.00    +0.000 OA
ENDROOT
BRANCH   1  19
ATOM     18  C   UNL     1      -0.190  13.401  22.186  0.00  0.00    +0.000 C 
ATOM     19  O   UNL     1       0.999  13.491  21.412  0.00  0.00    +0.000 OA
ENDBRANCH   1  19
BRANCH   3  20
ATOM     20  O   UNL     1       2.342  11.582  17.179  0.00  0.00    +0.000 OA
ATOM     21  H   UNL     1       3.307  11.671  17.123  0.00  0.00    +0.000 HD
ENDBRANCH   3  20
BRANCH  13  22
ATOM     22  C   UNL     1       2.270   3.870  18.069  0.00  0.00    +0.000 C 
ATOM     23  O   UNL     1       1.420   3.125  17.612  0.00  0.00    +0.000 OA
BRANCH  22  24
ATOM     24  O   UNL     1       3.598   3.602  18.122  0.00  0.00    +0.000 OA
BRANCH  24  25
ATOM     25  C   UNL     1       4.318   3.907  16.909  0.00  0.00    +0.000 C 
BRANCH  25  26
ATOM     26  C   UNL     1       5.652   4.652  17.122  0.00  0.00    +0.000 C 
ATOM     27  O   UNL     1       5.548   5.972  16.575  0.00  0.00    +0.000 OA
ATOM     28  C   UNL     1       6.724   6.758  16.731  0.00  0.00    +0.000 C 
ATOM     29  C   UNL     1       7.131   6.905  18.210  0.00  0.00    +0.000 C 
ATOM     30  C   UNL     1       7.266   5.524  18.863  0.00  0.00    +0.000 C 
ATOM     31  C   UNL     1       5.992   4.695  18.624  0.00  0.00    +0.000 C 
BRANCH  28  32
ATOM     32  O   UNL     1       7.794   6.275  15.924  0.00  0.00    +0.000 OA
ATOM     33  H   UNL     1       8.271   7.019  15.534  0.00  0.00    +0.000 HD
ENDBRANCH  28  32
BRANCH  29  34
ATOM     34  O   UNL     1       8.345   7.649  18.348  0.00  0.00    +0.000 OA
ATOM     35  H   UNL     1       8.109   8.592  18.426  0.00  0.00    +0.000 HD
ENDBRANCH  29  34
BRANCH  30  36
ATOM     36  O   UNL     1       7.525   5.630  20.269  0.00  0.00    +0.000 OA
ATOM     37  H   UNL     1       7.389   4.757  20.678  0.00  0.00    +0.000 HD
ENDBRANCH  30  36
BRANCH  31  38
ATOM     38  O   UNL     1       6.140   3.370  19.141  0.00  0.00    +0.000 OA
ATOM     39  H   UNL     1       6.914   3.344  19.731  0.00  0.00    +0.000 HD
ENDBRANCH  31  38
ENDBRANCH  25  26
ENDBRANCH  24  25
ENDBRANCH  22  24
ENDBRANCH  13  22
TORSDOF 10
ENDMDL
MODEL 2
REMARK VINA RESULT:      -8.0      1.613      3.380
REMARK  Name = 
REMARK  12 active torsions:
REMARK  status: ('A' for Active; 'I' for Inactive)
REMARK    1  A    between atoms: C_1  and  O_2
REMARK    2  A    between atoms: O_2  and  C_3
REMARK    3  A    between atoms: C_5  and  O_6
REMARK    4  A    between atoms: C_14  and  C_15
REMARK    5  A    between atoms: C_16  and  C_17
REMARK    6  A    between atoms: C_17  and  O_19
REMARK    7  A    between atoms: O_19  and  C_20
REMARK    8  A    between atoms: C_20  and  C_21
REMARK    9  A    between atoms: C_23  and  O_24
REMARK   10  A    between atoms: C_25  and  O_26
REMARK   11  A    between atoms: C_27  and  O_28
REMARK   12  A    between atoms: C_29  and  O_30
REMARK                            x       y       z     vdW  Elec       q    Type
REMARK                         _______ _______ _______ _____ _____    ______ ____
ROOT
ATOM      1  C   UNL     1      -0.625  13.815  21.147  0.00  0.00    +0.000 A 
ATOM      2  C   UNL     1      -1.045  13.095  22.262  0.00  0.00    +0.000 A 
ATOM      3  C   UNL     1      -0.735  11.731  22.381  0.00  0.00    +0.000 A 
ATOM      4  C   UNL     1       0.004  11.065  21.389  0.00  0.00    +0.000 A 
ATOM      5  C   UNL     1       0.429  11.804  20.282  0.00  0.00    +0.000 A 
ATOM      6  C   UNL     1       0.117  13.167  20.163  0.00  0.00    +0.000 A 
ATOM      7  C   UNL     1       1.214  11.173  19.208  0.00  0.00    +0.000 C 
ATOM      8  O   UNL     1       1.588  11.829  18.244  0.00  0.00    +0.000 OA
ATOM      9  C   UNL     1       1.545   9.743  19.300  0.00  0.00    +0.000 A 
ATOM     10  C   UNL     1       2.284   9.151  18.270  0.00  0.00    +0.000 A 
ATOM     11  C   UNL     1       2.612   7.788  18.306  0.00  0.00    +0.000 A 
ATOM     12  C   UNL     1       3.386   7.213  17.148  0.00  0.00    +0.000 C 
ATOM     13  C   UNL     1       2.185   7.010  19.404  0.00  0.00    +0.000 A 
ATOM     14  C   UNL     1       1.444   7.611  20.440  0.00  0.00    +0.000 A 
ATOM     15  C   UNL     1       1.126   8.983  20.384  0.00  0.00    +0.000 A 
ATOM     16  C   UNL     1       0.342   9.613  21.473  0.00  0.00    +0.000 C 
ATOM     17  O   UNL     1      -0.007   8.906  22.410  0.00  0.00    +0.000 OA
ENDROOT
BRANCH   1  19
ATOM     18  C   UNL     1      -2.193  15.604  21.121  0.00  0.00    +0.000 C 
ATOM     19  O   UNL     1      -0.869  15.137  20.902  0.00  0.00    +0.000 OA
ENDBRANCH   1  19
BRANCH   3  20
ATOM     20  O   UNL     1      -1.171  11.066  23.491  0.00  0.00    +0.000 OA
ATOM     21  H   UNL     1      -2.140  11.060  23.537  0.00  0.00    +0.000 HD
ENDBRANCH   3  20
BRANCH  13  22
ATOM     22  C   UNL     1       2.499   5.551  19.441  0.00  0.00    +0.000 C 
ATOM     23  O   UNL     1       1.681   4.676  19.214  0.00  0.00    +0.000 OA
BRANCH  22  24
ATOM     24  O   UNL     1       3.756   5.347  19.907  0.00  0.00    +0.000 OA
BRANCH  24  25
ATOM     25  C   UNL     1       4.332   4.077  19.535  0.00  0.00    +0.000 C 
BRANCH  25  26
ATOM     26  C   UNL     1       5.361   4.147  18.389  0.00  0.00    +0.000 C 
ATOM     27  O   UNL     1       4.669   4.159  17.133  0.00  0.00    +0.000 OA
ATOM     28  C   UNL     1       5.527   4.239  16.000  0.00  0.00    +0.000 C 
ATOM     29  C   UNL     1       6.426   5.490  16.041  0.00  0.00    +0.000 C 
ATOM     30  C   UNL     1       7.204   5.542  17.362  0.00  0.00    +0.000 C 
ATOM     31  C   UNL     1       6.241   5.400  18.553  0.00  0.00    +0.000 C 
BRANCH  28  32
ATOM     32  O   UNL     1       6.278   3.042  15.821  0.00  0.00    +0.000 OA
ATOM     33  H   UNL     1       6.072   2.653  14.961  0.00  0.00    +0.000 HD
ENDBRANCH  28  32
BRANCH  29  34
ATOM     34  O   UNL     1       7.322   5.527  14.926  0.00  0.00    +0.000 OA
ATOM     35  H   UNL     1       7.920   4.761  14.999  0.00  0.00    +0.000 HD
ENDBRANCH  29  34
BRANCH  30  36
ATOM     36  O   UNL     1       7.958   6.755  17.481  0.00  0.00    +0.000 OA
ATOM     37  H   UNL     1       7.349   7.509  17.398  0.00  0.00    +0.000 HD
ENDBRANCH  30  36
BRANCH  31  38
ATOM     38  O   UNL     1       6.960   5.348  19.789  0.00  0.00    +0.000 OA
ATOM     39  H   UNL     1       7.661   4.675  19.720  0.00  0.00    +0.000 HD
ENDBRANCH  31  38
ENDBRANCH  25  26
ENDBRANCH  24  25
ENDBRANCH  22  24
ENDBRANCH  13  22
TORSDOF 10
ENDMDL
MODEL 3
REMARK VINA RESULT:      -7.9      1.056      1.677
REMARK  Name = 
REMARK  12 active torsions:
REMARK  status: ('A' for Active; 'I' for Inactive)
REMARK    1  A    between atoms: C_1  and  O_2
REMARK    2  A    between atoms: O_2  and  C_3
REMARK    3  A    between atoms: C_5  and  O_6
REMARK    4  A    between atoms: C_14  and  C_15
REMARK    5  A    between atoms: C_16  and  C_17
REMARK    6  A    between atoms: C_17  and  O_19
REMARK    7  A    between atoms: O_19  and  C_20
REMARK    8  A    between atoms: C_20  and  C_21
REMARK    9  A    between atoms: C_23  and  O_24
REMARK   10  A    between atoms: C_25  and  O_26
REMARK   11  A    between atoms: C_27  and  O_28
REMARK   12  A    between atoms: C_29  and  O_30
REMARK                            x       y       z     vdW  Elec       q    Type
REMARK                         _______ _______ _______ _____ _____    ______ ____
ROOT
ATOM      1  C   UNL     1       1.020  12.119  20.615  0.00  0.00    +0.000 A 
ATOM      2  C   UNL     1       1.503  12.223  19.312  0.00  0.00    +0.000 A 
ATOM      3  C   UNL     1       1.844  11.069  18.592  0.00  0.00    +0.000 A 
ATOM      4  C   UNL     1       1.707   9.791  19.157  0.00  0.00    +0.000 A 
ATOM      5  C   UNL     1       1.210   9.701  20.460  0.00  0.00    +0.000 A 
ATOM      6  C   UNL     1       0.870  10.856  21.181  0.00  0.00    +0.000 A 
ATOM      7  C   UNL     1       1.032   8.395  21.114  0.00  0.00    +0.000 C 
ATOM      8  O   UNL     1       0.590   8.325  22.254  0.00  0.00    +0.000 OA
ATOM      9  C   UNL     1       1.392   7.168  20.386  0.00  0.00    +0.000 A 
ATOM     10  C   UNL     1       1.227   5.932  21.020  0.00  0.00    +0.000 A 
ATOM     11  C   UNL     1       1.569   4.736  20.372  0.00  0.00    +0.000 A 
ATOM     12  C   UNL     1       1.391   3.444  21.126  0.00  0.00    +0.000 C 
ATOM     13  C   UNL     1       2.088   4.792  19.060  0.00  0.00    +0.000 A 
ATOM     14  C   UNL     1       2.250   6.039  18.426  0.00  0.00    +0.000 A 
ATOM     15  C   UNL     1       1.898   7.229  19.095  0.00  0.00    +0.000 A 
ATOM     16  C   UNL     1       2.073   8.540  18.427  0.00  0.00    +0.000 C 
ATOM     17  O   UNL     1       2.522   8.547  17.288  0.00  0.00    +0.000 OA
ENDROOT
BRANCH   1  19
ATOM     18  C   UNL     1      -0.574  13.047  22.118  0.00  0.00    +0.000 C 
ATOM     19  O   UNL     1       0.664  13.158  21.428  0.00  0.00    +0.000 OA
ENDBRANCH   1  19
BRANCH   3  20
ATOM     20  O   UNL     1       2.317  11.221  17.318  0.00  0.00    +0.000 OA
ATOM     21  H   UNL     1       2.107  10.447  16.773  0.00  0.00    +0.000 HD
ENDBRANCH   3  20
BRANCH  13  22
ATOM     22  C   UNL     1       2.487   3.530  18.370  0.00  0.00    +0.000 C 
ATOM     23  O   UNL     1       1.829   3.001  17.491  0.00  0.00    +0.000 OA
BRANCH  22  24
ATOM     24  O   UNL     1       3.579   2.989  18.963  0.00  0.00    +0.000 OA
BRANCH  24  25
ATOM     25  C   UNL     1       4.677   3.908  19.144  0.00  0.00    +0.000 C 
BRANCH  25  26
ATOM     26  C   UNL     1       5.587   4.075  17.910  0.00  0.00    +0.000 C 
ATOM     27  O   UNL     1       4.790   3.996  16.721  0.00  0.00    +0.000 OA
ATOM     28  C   UNL     1       5.531   4.155  15.516  0.00  0.00    +0.000 C 
ATOM     29  C   UNL     1       6.288   5.496  15.473  0.00  0.00    +0.000 C 
ATOM     30  C   UNL     1       7.170   5.648  16.719  0.00  0.00    +0.000 C 
ATOM     31  C   UNL     1       6.337   5.418  17.992  0.00  0.00    +0.000 C 
BRANCH  28  32
ATOM     32  O   UNL     1       6.390   3.044  15.274  0.00  0.00    +0.000 OA
ATOM     33  H   UNL     1       7.296   3.272  15.518  0.00  0.00    +0.000 HD
ENDBRANCH  28  32
BRANCH  29  34
ATOM     34  O   UNL     1       7.073   5.616  14.282  0.00  0.00    +0.000 OA
ATOM     35  H   UNL     1       6.743   6.388  13.786  0.00  0.00    +0.000 HD
ENDBRANCH  29  34
BRANCH  30  36
ATOM     36  O   UNL     1       7.794   6.938  16.767  0.00  0.00    +0.000 OA
ATOM     37  H   UNL     1       8.278   7.080  15.935  0.00  0.00    +0.000 HD
ENDBRANCH  30  36
BRANCH  31  38
ATOM     38  O   UNL     1       7.163   5.459  19.158  0.00  0.00    +0.000 OA
ATOM     39  H   UNL     1       7.299   4.551  19.484  0.00  0.00    +0.000 HD
ENDBRANCH  31  38
ENDBRANCH  25  26
ENDBRANCH  24  25
ENDBRANCH  22  24
ENDBRANCH  13  22
TORSDOF 10
ENDMDL
MODEL 4
REMARK VINA RESULT:      -7.7      1.328      1.790
REMARK  Name = 
REMARK  12 active torsions:
REMARK  status: ('A' for Active; 'I' for Inactive)
REMARK    1  A    between atoms: C_1  and  O_2
REMARK    2  A    between atoms: O_2  and  C_3
REMARK    3  A    between atoms: C_5  and  O_6
REMARK    4  A    between atoms: C_14  and  C_15
REMARK    5  A    between atoms: C_16  and  C_17
REMARK    6  A    between atoms: C_17  and  O_19
REMARK    7  A    between atoms: O_19  and  C_20
REMARK    8  A    between atoms: C_20  and  C_21
REMARK    9  A    between atoms: C_23  and  O_24
REMARK   10  A    between atoms: C_25  and  O_26
REMARK   11  A    between atoms: C_27  and  O_28
REMARK   12  A    between atoms: C_29  and  O_30
REMARK                            x       y       z     vdW  Elec       q    Type
REMARK                         _______ _______ _______ _____ _____    ______ ____
ROOT
ATOM      1  C   UNL     1       1.064  12.909  20.864  0.00  0.00    +0.000 A 
ATOM      2  C   UNL     1       1.463  13.089  19.542  0.00  0.00    +0.000 A 
ATOM      3  C   UNL     1       1.751  11.979  18.734  0.00  0.00    +0.000 A 
ATOM      4  C   UNL     1       1.644  10.670  19.231  0.00  0.00    +0.000 A 
ATOM      5  C   UNL     1       1.231  10.505  20.555  0.00  0.00    +0.000 A 
ATOM      6  C   UNL     1       0.945  11.615  21.364  0.00  0.00    +0.000 A 
ATOM      7  C   UNL     1       1.088   9.162  21.141  0.00  0.00    +0.000 C 
ATOM      8  O   UNL     1       0.720   9.025  22.302  0.00  0.00    +0.000 OA
ATOM      9  C   UNL     1       1.394   7.980  20.321  0.00  0.00    +0.000 A 
ATOM     10  C   UNL     1       1.264   6.708  20.891  0.00  0.00    +0.000 A 
ATOM     11  C   UNL     1       1.557   5.552  20.153  0.00  0.00    +0.000 A 
ATOM     12  C   UNL     1       1.420   4.218  20.840  0.00  0.00    +0.000 C 
ATOM     13  C   UNL     1       1.990   5.684  18.815  0.00  0.00    +0.000 A 
ATOM     14  C   UNL     1       2.118   6.967  18.247  0.00  0.00    +0.000 A 
ATOM     15  C   UNL     1       1.816   8.116  19.006  0.00  0.00    +0.000 A 
ATOM     16  C   UNL     1       1.955   9.464  18.407  0.00  0.00    +0.000 C 
ATOM     17  O   UNL     1       2.330   9.537  17.243  0.00  0.00    +0.000 OA
ENDROOT
BRANCH   1  19
ATOM     18  C   UNL     1       1.439  15.141  21.598  0.00  0.00    +0.000 C 
ATOM     19  O   UNL     1       0.768  13.899  21.759  0.00  0.00    +0.000 OA
ENDBRANCH   1  19
BRANCH   3  20
ATOM     20  O   UNL     1       2.141  12.205  17.444  0.00  0.00    +0.000 OA
ATOM     21  H   UNL     1       1.439  12.644  16.938  0.00  0.00    +0.000 HD
ENDBRANCH   3  20
BRANCH  13  22
ATOM     22  C   UNL     1       2.337   4.465  18.029  0.00  0.00    +0.000 C 
ATOM     23  O   UNL     1       1.556   3.892  17.287  0.00  0.00    +0.000 OA
BRANCH  22  24
ATOM     24  O   UNL     1       3.565   4.009  18.374  0.00  0.00    +0.000 OA
BRANCH  24  25
ATOM     25  C   UNL     1       4.071   2.954  17.530  0.00  0.00    +0.000 C 
BRANCH  25  26
ATOM     26  C   UNL     1       5.231   3.369  16.604  0.00  0.00    +0.000 C 
ATOM     27  O   UNL     1       4.699   3.808  15.347  0.00  0.00    +0.000 OA
ATOM     28  C   UNL     1       5.688   4.233  14.416  0.00  0.00    +0.000 C 
ATOM     29  C   UNL     1       6.555   5.379  14.973  0.00  0.00    +0.000 C 
ATOM     30  C   UNL     1       7.164   4.976  16.322  0.00  0.00    +0.000 C 
ATOM     31  C   UNL     1       6.064   4.477  17.275  0.00  0.00    +0.000 C 
BRANCH  28  32
ATOM     32  O   UNL     1       6.475   3.142  13.947  0.00  0.00    +0.000 OA
ATOM     33  H   UNL     1       7.025   2.803  14.665  0.00  0.00    +0.000 HD
ENDBRANCH  28  32
BRANCH  29  34
ATOM     34  O   UNL     1       7.580   5.757  14.049  0.00  0.00    +0.000 OA
ATOM     35  H   UNL     1       8.131   6.437  14.478  0.00  0.00    +0.000 HD
ENDBRANCH  29  34
BRANCH  30  36
ATOM     36  O   UNL     1       7.877   6.065  16.923  0.00  0.00    +0.000 OA
ATOM     37  H   UNL     1       8.460   6.463  16.253  0.00  0.00    +0.000 HD
ENDBRANCH  30  36
BRANCH  31  38
ATOM     38  O   UNL     1       6.627   4.006  18.502  0.00  0.00    +0.000 OA
ATOM     39  H   UNL     1       5.927   3.578  19.029  0.00  0.00    +0.000 HD
ENDBRANCH  31  38
ENDBRANCH  25  26
ENDBRANCH  24  25
ENDBRANCH  22  24
ENDBRANCH  13  22
TORSDOF 10
ENDMDL
MODEL 5
REMARK VINA RESULT:      -7.6      1.044      1.829
REMARK  Name = 
REMARK  12 active torsions:
REMARK  status: ('A' for Active; 'I' for Inactive)
REMARK    1  A    between atoms: C_1  and  O_2
REMARK    2  A    between atoms: O_2  and  C_3
REMARK    3  A    between atoms: C_5  and  O_6
REMARK    4  A    between atoms: C_14  and  C_15
REMARK    5  A    between atoms: C_16  and  C_17
REMARK    6  A    between atoms: C_17  and  O_19
REMARK    7  A    between atoms: O_19  and  C_20
REMARK    8  A    between atoms: C_20  and  C_21
REMARK    9  A    between atoms: C_23  and  O_24
REMARK   10  A    between atoms: C_25  and  O_26
REMARK   11  A    between atoms: C_27  and  O_28
REMARK   12  A    between atoms: C_29  and  O_30
REMARK                            x       y       z     vdW  Elec       q    Type
REMARK                         _______ _______ _______ _____ _____    ______ ____
ROOT
ATOM      1  C   UNL     1       0.560  11.508  20.709  0.00  0.00    +0.000 A 
ATOM      2  C   UNL     1       1.082  11.789  19.449  0.00  0.00    +0.000 A 
ATOM      3  C   UNL     1       1.590  10.754  18.649  0.00  0.00    +0.000 A 
ATOM      4  C   UNL     1       1.582   9.421  19.092  0.00  0.00    +0.000 A 
ATOM      5  C   UNL     1       1.044   9.154  20.353  0.00  0.00    +0.000 A 
ATOM      6  C   UNL     1       0.538  10.189  21.154  0.00  0.00    +0.000 A 
ATOM      7  C   UNL     1       0.996   7.780  20.879  0.00  0.00    +0.000 C 
ATOM      8  O   UNL     1       0.517   7.553  21.984  0.00  0.00    +0.000 OA
ATOM      9  C   UNL     1       1.531   6.676  20.068  0.00  0.00    +0.000 A 
ATOM     10  C   UNL     1       1.488   5.375  20.581  0.00  0.00    +0.000 A 
ATOM     11  C   UNL     1       1.998   4.293  19.850  0.00  0.00    +0.000 A 
ATOM     12  C   UNL     1       1.943   2.924  20.477  0.00  0.00    +0.000 C 
ATOM     13  C   UNL     1       2.562   4.530  18.577  0.00  0.00    +0.000 A 
ATOM     14  C   UNL     1       2.601   5.842  18.065  0.00  0.00    +0.000 A 
ATOM     15  C   UNL     1       2.081   6.915  18.815  0.00  0.00    +0.000 A 
ATOM     16  C   UNL     1       2.126   8.295  18.276  0.00  0.00    +0.000 C 
ATOM     17  O   UNL     1       2.620   8.460  17.168  0.00  0.00    +0.000 OA
ENDROOT
BRANCH   1  19
ATOM     18  C   UNL     1       0.479  13.766  21.455  0.00  0.00    +0.000 C 
ATOM     19  O   UNL     1       0.048  12.419  21.591  0.00  0.00    +0.000 OA
ENDBRANCH   1  19
BRANCH   3  20
ATOM     20  O   UNL     1       2.095  11.077  17.421  0.00  0.00    +0.000 OA
ATOM     21  H   UNL     1       2.958  11.513  17.502  0.00  0.00    +0.000 HD
ENDBRANCH   3  20
BRANCH  13  22
ATOM     22  C   UNL     1       3.138   3.393  17.802  0.00  0.00    +0.000 C 
ATOM     23  O   UNL     1       3.202   2.250  18.222  0.00  0.00    +0.000 OA
BRANCH  22  24
ATOM     24  O   UNL     1       3.709   3.839  16.656  0.00  0.00    +0.000 OA
BRANCH  24  25
ATOM     25  C   UNL     1       5.152   3.819  16.660  0.00  0.00    +0.000 C 
BRANCH  25  26
ATOM     26  C   UNL     1       5.808   4.878  17.568  0.00  0.00    +0.000 C 
ATOM     27  O   UNL     1       7.006   4.335  18.138  0.00  0.00    +0.000 OA
ATOM     28  C   UNL     1       7.705   5.239  18.986  0.00  0.00    +0.000 C 
ATOM     29  C   UNL     1       8.093   6.539  18.255  0.00  0.00    +0.000 C 
ATOM     30  C   UNL     1       6.853   7.181  17.620  0.00  0.00    +0.000 C 
ATOM     31  C   UNL     1       6.104   6.152  16.755  0.00  0.00    +0.000 C 
BRANCH  28  32
ATOM     32  O   UNL     1       6.989   5.493  20.192  0.00  0.00    +0.000 OA
ATOM     33  H   UNL     1       6.297   4.829  20.307  0.00  0.00    +0.000 HD
ENDBRANCH  28  32
BRANCH  29  34
ATOM     34  O   UNL     1       8.744   7.460  19.134  0.00  0.00    +0.000 OA
ATOM     35  H   UNL     1       9.279   8.065  18.588  0.00  0.00    +0.000 HD
ENDBRANCH  29  34
BRANCH  30  36
ATOM     36  O   UNL     1       7.199   8.326  16.831  0.00  0.00    +0.000 OA
ATOM     37  H   UNL     1       8.124   8.565  17.018  0.00  0.00    +0.000 HD
ENDBRANCH  30  36
BRANCH  31  38
ATOM     38  O   UNL     1       4.892   6.706  16.236  0.00  0.00    +0.000 OA
ATOM     39  H   UNL     1       4.349   7.032  16.975  0.00  0.00    +0.000 HD
ENDBRANCH  31  38
ENDBRANCH  25  26
ENDBRANCH  24  25
ENDBRANCH  22  24
ENDBRANCH  13  22
TORSDOF 10
ENDMDL
MODEL 6
REMARK VINA RESULT:      -7.6      1.809      3.667
REMARK  Name = 
REMARK  12 active torsions:
REMARK  status: ('A' for Active; 'I' for Inactive)
REMARK    1  A    between atoms: C_1  and  O_2
REMARK    2  A    between atoms: O_2  and  C_3
REMARK    3  A    between atoms: C_5  and  O_6
REMARK    4  A    between atoms: C_14  and  C_15
REMARK    5  A    between atoms: C_16  and  C_17
REMARK    6  A    between atoms: C_17  and  O_19
REMARK    7  A    between atoms: O_19  and  C_20
REMARK    8  A    between atoms: C_20  and  C_21
REMARK    9  A    between atoms: C_23  and  O_24
REMARK   10  A    between atoms: C_25  and  O_26
REMARK   11  A    between atoms: C_27  and  O_28
REMARK   12  A    between atoms: C_29  and  O_30
REMARK                            x       y       z     vdW  Elec       q    Type
REMARK                         _______ _______ _______ _____ _____    ______ ____
ROOT
ATOM      1  C   UNL     1      -1.263  13.800  21.135  0.00  0.00    +0.000 A 
ATOM      2  C   UNL     1      -1.624  13.028  22.237  0.00  0.00    +0.000 A 
ATOM      3  C   UNL     1      -1.199  11.694  22.335  0.00  0.00    +0.000 A 
ATOM      4  C   UNL     1      -0.404  11.109  21.336  0.00  0.00    +0.000 A 
ATOM      5  C   UNL     1      -0.039  11.899  20.243  0.00  0.00    +0.000 A 
ATOM      6  C   UNL     1      -0.466  13.233  20.144  0.00  0.00    +0.000 A 
ATOM      7  C   UNL     1       0.799  11.355  19.162  0.00  0.00    +0.000 C 
ATOM      8  O   UNL     1       1.119  12.056  18.210  0.00  0.00    +0.000 OA
ATOM      9  C   UNL     1       1.250   9.957  19.233  0.00  0.00    +0.000 A 
ATOM     10  C   UNL     1       2.040   9.447  18.196  0.00  0.00    +0.000 A 
ATOM     11  C   UNL     1       2.483   8.117  18.212  0.00  0.00    +0.000 A 
ATOM     12  C   UNL     1       3.306   7.628  17.048  0.00  0.00    +0.000 C 
ATOM     13  C   UNL     1       2.121   7.287  19.296  0.00  0.00    +0.000 A 
ATOM     14  C   UNL     1       1.328   7.806  20.338  0.00  0.00    +0.000 A 
ATOM     15  C   UNL     1       0.894   9.147  20.303  0.00  0.00    +0.000 A 
ATOM     16  C   UNL     1       0.057   9.690  21.398  0.00  0.00    +0.000 C 
ATOM     17  O   UNL     1      -0.233   8.941  22.322  0.00  0.00    +0.000 OA
ENDROOT
BRANCH   1  19
ATOM     18  C   UNL     1      -2.749  15.595  21.614  0.00  0.00    +0.000 C 
ATOM     19  O   UNL     1      -1.618  15.100  20.909  0.00  0.00    +0.000 OA
ENDBRANCH   1  19
BRANCH   3  20
ATOM     20  O   UNL     1      -1.580  10.976  23.433  0.00  0.00    +0.000 OA
ATOM     21  H   UNL     1      -1.177  10.094  23.430  0.00  0.00    +0.000 HD
ENDBRANCH   3  20
BRANCH  13  22
ATOM     22  C   UNL     1       2.558   5.860  19.310  0.00  0.00    +0.000 C 
ATOM     23  O   UNL     1       1.893   4.943  18.859  0.00  0.00    +0.000 OA
BRANCH  22  24
ATOM     24  O   UNL     1       3.702   5.720  20.024  0.00  0.00    +0.000 OA
BRANCH  24  25
ATOM     25  C   UNL     1       4.650   4.793  19.456  0.00  0.00    +0.000 C 
BRANCH  25  26
ATOM     26  C   UNL     1       5.234   5.222  18.095  0.00  0.00    +0.000 C 
ATOM     27  O   UNL     1       6.592   5.644  18.275  0.00  0.00    +0.000 OA
ATOM     28  C   UNL     1       7.237   6.048  17.072  0.00  0.00    +0.000 C 
ATOM     29  C   UNL     1       7.241   4.930  16.012  0.00  0.00    +0.000 C 
ATOM     30  C   UNL     1       5.812   4.430  15.763  0.00  0.00    +0.000 C 
ATOM     31  C   UNL     1       5.140   4.054  17.095  0.00  0.00    +0.000 C 
BRANCH  28  32
ATOM     32  O   UNL     1       6.698   7.267  16.568  0.00  0.00    +0.000 OA
ATOM     33  H   UNL     1       5.869   7.470  17.021  0.00  0.00    +0.000 HD
ENDBRANCH  28  32
BRANCH  29  34
ATOM     34  O   UNL     1       7.841   5.370  14.790  0.00  0.00    +0.000 OA
ATOM     35  H   UNL     1       8.724   4.961  14.728  0.00  0.00    +0.000 HD
ENDBRANCH  29  34
BRANCH  30  36
ATOM     36  O   UNL     1       5.795   3.308  14.871  0.00  0.00    +0.000 OA
ATOM     37  H   UNL     1       4.883   3.167  14.564  0.00  0.00    +0.000 HD
ENDBRANCH  30  36
BRANCH  31  38
ATOM     38  O   UNL     1       3.775   3.679  16.891  0.00  0.00    +0.000 OA
ATOM     39  H   UNL     1       3.720   3.090  16.117  0.00  0.00    +0.000 HD
ENDBRANCH  31  38
ENDBRANCH  25  26
ENDBRANCH  24  25
ENDBRANCH  22  24
ENDBRANCH  13  22
TORSDOF 10
ENDMDL
MODEL 7
REMARK VINA RESULT:      -7.5      1.718      3.411
REMARK  Name = 
REMARK  12 active torsions:
REMARK  status: ('A' for Active; 'I' for Inactive)
REMARK    1  A    between atoms: C_1  and  O_2
REMARK    2  A    between atoms: O_2  and  C_3
REMARK    3  A    between atoms: C_5  and  O_6
REMARK    4  A    between atoms: C_14  and  C_15
REMARK    5  A    between atoms: C_16  and  C_17
REMARK    6  A    between atoms: C_17  and  O_19
REMARK    7  A    between atoms: O_19  and  C_20
REMARK    8  A    between atoms: C_20  and  C_21
REMARK    9  A    between atoms: C_23  and  O_24
REMARK   10  A    between atoms: C_25  and  O_26
REMARK   11  A    between atoms: C_27  and  O_28
REMARK   12  A    between atoms: C_29  and  O_30
REMARK                            x       y       z     vdW  Elec       q    Type
REMARK                         _______ _______ _______ _____ _____    ______ ____
ROOT
ATOM      1  C   UNL     1      -1.192  13.345  21.218  0.00  0.00    +0.000 A 
ATOM      2  C   UNL     1      -1.552  12.541  22.296  0.00  0.00    +0.000 A 
ATOM      3  C   UNL     1      -1.097  11.215  22.371  0.00  0.00    +0.000 A 
ATOM      4  C   UNL     1      -0.274  10.671  21.373  0.00  0.00    +0.000 A 
ATOM      5  C   UNL     1       0.089  11.493  20.303  0.00  0.00    +0.000 A 
ATOM      6  C   UNL     1      -0.367  12.818  20.227  0.00  0.00    +0.000 A 
ATOM      7  C   UNL     1       0.956  10.992  19.224  0.00  0.00    +0.000 C 
ATOM      8  O   UNL     1       1.274  11.722  18.292  0.00  0.00    +0.000 OA
ATOM      9  C   UNL     1       1.438   9.603  19.271  0.00  0.00    +0.000 A 
ATOM     10  C   UNL     1       2.255   9.135  18.235  0.00  0.00    +0.000 A 
ATOM     11  C   UNL     1       2.728   7.815  18.229  0.00  0.00    +0.000 A 
ATOM     12  C   UNL     1       3.580   7.372  17.068  0.00  0.00    +0.000 C 
ATOM     13  C   UNL     1       2.369   6.953  19.289  0.00  0.00    +0.000 A 
ATOM     14  C   UNL     1       1.548   7.431  20.329  0.00  0.00    +0.000 A 
ATOM     15  C   UNL     1       1.085   8.762  20.317  0.00  0.00    +0.000 A 
ATOM     16  C   UNL     1       0.218   9.261  21.410  0.00  0.00    +0.000 C 
ATOM     17  O   UNL     1      -0.068   8.485  22.313  0.00  0.00    +0.000 OA
ENDROOT
BRANCH   1  19
ATOM     18  C   UNL     1      -0.569  15.639  21.138  0.00  0.00    +0.000 C 
ATOM     19  O   UNL     1      -1.573  14.641  21.015  0.00  0.00    +0.000 OA
ENDBRANCH   1  19
BRANCH   3  20
ATOM     20  O   UNL     1      -1.479  10.464  23.447  0.00  0.00    +0.000 OA
ATOM     21  H   UNL     1      -1.511   9.521  23.221  0.00  0.00    +0.000 HD
ENDBRANCH   3  20
BRANCH  13  22
ATOM     22  C   UNL     1       2.838   5.537  19.279  0.00  0.00    +0.000 C 
ATOM     23  O   UNL     1       3.391   5.000  20.223  0.00  0.00    +0.000 OA
BRANCH  22  24
ATOM     24  O   UNL     1       2.706   5.001  18.041  0.00  0.00    +0.000 OA
BRANCH  24  25
ATOM     25  C   UNL     1       3.350   3.720  17.872  0.00  0.00    +0.000 C 
BRANCH  25  26
ATOM     26  C   UNL     1       4.657   3.760  17.055  0.00  0.00    +0.000 C 
ATOM     27  O   UNL     1       4.399   4.365  15.781  0.00  0.00    +0.000 OA
ATOM     28  C   UNL     1       5.547   4.467  14.946  0.00  0.00    +0.000 C 
ATOM     29  C   UNL     1       6.680   5.270  15.614  0.00  0.00    +0.000 C 
ATOM     30  C   UNL     1       7.014   4.674  16.988  0.00  0.00    +0.000 C 
ATOM     31  C   UNL     1       5.736   4.535  17.833  0.00  0.00    +0.000 C 
BRANCH  28  32
ATOM     32  O   UNL     1       5.987   3.190  14.493  0.00  0.00    +0.000 OA
ATOM     33  H   UNL     1       5.569   2.982  13.647  0.00  0.00    +0.000 HD
ENDBRANCH  28  32
BRANCH  29  34
ATOM     34  O   UNL     1       7.847   5.316  14.787  0.00  0.00    +0.000 OA
ATOM     35  H   UNL     1       8.420   4.569  15.039  0.00  0.00    +0.000 HD
ENDBRANCH  29  34
BRANCH  30  36
ATOM     36  O   UNL     1       7.981   5.470  17.685  0.00  0.00    +0.000 OA
ATOM     37  H   UNL     1       8.729   4.901  17.937  0.00  0.00    +0.000 HD
ENDBRANCH  30  36
BRANCH  31  38
ATOM     38  O   UNL     1       6.015   3.890  19.079  0.00  0.00    +0.000 OA
ATOM     39  H   UNL     1       5.174   3.637  19.500  0.00  0.00    +0.000 HD
ENDBRANCH  31  38
ENDBRANCH  25  26
ENDBRANCH  24  25
ENDBRANCH  22  24
ENDBRANCH  13  22
TORSDOF 10
ENDMDL
MODEL 8
REMARK VINA RESULT:      -7.4      2.616      8.206
REMARK  Name = 
REMARK  12 active torsions:
REMARK  status: ('A' for Active; 'I' for Inactive)
REMARK    1  A    between atoms: C_1  and  O_2
REMARK    2  A    between atoms: O_2  and  C_3
REMARK    3  A    between atoms: C_5  and  O_6
REMARK    4  A    between atoms: C_14  and  C_15
REMARK    5  A    between atoms: C_16  and  C_17
REMARK    6  A    between atoms: C_17  and  O_19
REMARK    7  A    between atoms: O_19  and  C_20
REMARK    8  A    between atoms: C_20  and  C_21
REMARK    9  A    between atoms: C_23  and  O_24
REMARK   10  A    between atoms: C_25  and  O_26
REMARK   11  A    between atoms: C_27  and  O_28
REMARK   12  A    between atoms: C_29  and  O_30
REMARK                            x       y       z     vdW  Elec       q    Type
REMARK                         _______ _______ _______ _____ _____    ______ ____
ROOT
ATOM      1  C   UNL     1       4.140   3.297  18.728  0.00  0.00    +0.000 A 
ATOM      2  C   UNL     1       4.616   3.904  17.568  0.00  0.00    +0.000 A 
ATOM      3  C   UNL     1       4.268   5.231  17.272  0.00  0.00    +0.000 A 
ATOM      4  C   UNL     1       3.442   5.975  18.129  0.00  0.00    +0.000 A 
ATOM      5  C   UNL     1       2.983   5.357  19.295  0.00  0.00    +0.000 A 
ATOM      6  C   UNL     1       3.329   4.029  19.590  0.00  0.00    +0.000 A 
ATOM      7  C   UNL     1       2.120   6.079  20.245  0.00  0.00    +0.000 C 
ATOM      8  O   UNL     1       1.725   5.531  21.267  0.00  0.00    +0.000 OA
ATOM      9  C   UNL     1       1.730   7.467  19.955  0.00  0.00    +0.000 A 
ATOM     10  C   UNL     1       0.902   8.141  20.860  0.00  0.00    +0.000 A 
ATOM     11  C   UNL     1       0.493   9.461  20.620  0.00  0.00    +0.000 A 
ATOM     12  C   UNL     1      -0.421  10.114  21.624  0.00  0.00    +0.000 C 
ATOM     13  C   UNL     1       0.928  10.110  19.444  0.00  0.00    +0.000 A 
ATOM     14  C   UNL     1       1.763   9.427  18.538  0.00  0.00    +0.000 A 
ATOM     15  C   UNL     1       2.164   8.102  18.799  0.00  0.00    +0.000 A 
ATOM     16  C   UNL     1       3.039   7.384  17.842  0.00  0.00    +0.000 C 
ATOM     17  O   UNL     1       3.398   7.982  16.836  0.00  0.00    +0.000 OA
ENDROOT
BRANCH   1  19
ATOM     18  C   UNL     1       4.722   1.814  20.495  0.00  0.00    +0.000 C 
ATOM     19  O   UNL     1       4.390   2.014  19.127  0.00  0.00    +0.000 OA
ENDBRANCH   1  19
BRANCH   3  20
ATOM     20  O   UNL     1       4.756   5.783  16.121  0.00  0.00    +0.000 OA
ATOM     21  H   UNL     1       4.985   5.097  15.474  0.00  0.00    +0.000 HD
ENDBRANCH   3  20
BRANCH  13  22
ATOM     22  C   UNL     1       0.474  11.503  19.160  0.00  0.00    +0.000 C 
ATOM     23  O   UNL     1      -0.512  11.772  18.495  0.00  0.00    +0.000 OA
BRANCH  22  24
ATOM     24  O   UNL     1       1.387  12.401  19.604  0.00  0.00    +0.000 OA
BRANCH  24  25
ATOM     25  C   UNL     1       0.895  13.754  19.703  0.00  0.00    +0.000 C 
BRANCH  25  26
ATOM     26  C   UNL     1       1.844  14.827  19.132  0.00  0.00    +0.000 C 
ATOM     27  O   UNL     1       2.251  15.708  20.187  0.00  0.00    +0.000 OA
ATOM     28  C   UNL     1       3.146  16.733  19.773  0.00  0.00    +0.000 C 
ATOM     29  C   UNL     1       4.427  16.162  19.134  0.00  0.00    +0.000 C 
ATOM     30  C   UNL     1       4.067  15.208  17.987  0.00  0.00    +0.000 C 
ATOM     31  C   UNL     1       3.060  14.151  18.470  0.00  0.00    +0.000 C 
BRANCH  28  32
ATOM     32  O   UNL     1       2.504  17.687  18.931  0.00  0.00    +0.000 OA
ATOM     33  H   UNL     1       2.412  17.327  18.040  0.00  0.00    +0.000 HD
ENDBRANCH  28  32
BRANCH  29  34
ATOM     34  O   UNL     1       5.291  17.204  18.671  0.00  0.00    +0.000 OA
ATOM     35  H   UNL     1       5.246  17.217  17.697  0.00  0.00    +0.000 HD
ENDBRANCH  29  34
BRANCH  30  36
ATOM     36  O   UNL     1       5.232  14.568  17.451  0.00  0.00    +0.000 OA
ATOM     37  H   UNL     1       4.972  13.705  17.084  0.00  0.00    +0.000 HD
ENDBRANCH  30  36
BRANCH  31  38
ATOM     38  O   UNL     1       2.639  13.314  17.389  0.00  0.00    +0.000 OA
ATOM     39  H   UNL     1       3.066  12.443  17.477  0.00  0.00    +0.000 HD
ENDBRANCH  31  38
ENDBRANCH  25  26
ENDBRANCH  24  25
ENDBRANCH  22  24
ENDBRANCH  13  22
TORSDOF 10
ENDMDL
MODEL 9
REMARK VINA RESULT:      -7.3      3.243     10.116
REMARK  Name = 
REMARK  12 active torsions:
REMARK  status: ('A' for Active; 'I' for Inactive)
REMARK    1  A    between atoms: C_1  and  O_2
REMARK    2  A    between atoms: O_2  and  C_3
REMARK    3  A    between atoms: C_5  and  O_6
REMARK    4  A    between atoms: C_14  and  C_15
REMARK    5  A    between atoms: C_16  and  C_17
REMARK    6  A    between atoms: C_17  and  O_19
REMARK    7  A    between atoms: O_19  and  C_20
REMARK    8  A    between atoms: C_20  and  C_21
REMARK    9  A    between atoms: C_23  and  O_24
REMARK   10  A    between atoms: C_25  and  O_26
REMARK   11  A    between atoms: C_27  and  O_28
REMARK   12  A    between atoms: C_29  and  O_30
REMARK                            x       y       z     vdW  Elec       q    Type
REMARK                         _______ _______ _______ _____ _____    ______ ____
ROOT
ATOM      1  C   UNL     1       4.468   4.165  17.066  0.00  0.00    +0.000 A 
ATOM      2  C   UNL     1       4.130   3.416  18.191  0.00  0.00    +0.000 A 
ATOM      3  C   UNL     1       3.399   4.001  19.235  0.00  0.00    +0.000 A 
ATOM      4  C   UNL     1       2.990   5.343  19.174  0.00  0.00    +0.000 A 
ATOM      5  C   UNL     1       3.326   6.078  18.035  0.00  0.00    +0.000 A 
ATOM      6  C   UNL     1       4.059   5.493  16.991  0.00  0.00    +0.000 A 
ATOM      7  C   UNL     1       2.924   7.488  17.898  0.00  0.00    +0.000 C 
ATOM      8  O   UNL     1       3.218   8.124  16.893  0.00  0.00    +0.000 OA
ATOM      9  C   UNL     1       2.166   8.131  18.982  0.00  0.00    +0.000 A 
ATOM     10  C   UNL     1       1.796   9.474  18.846  0.00  0.00    +0.000 A 
ATOM     11  C   UNL     1       1.085  10.134  19.858  0.00  0.00    +0.000 A 
ATOM     12  C   UNL     1       0.745  11.587  19.655  0.00  0.00    +0.000 C 
ATOM     13  C   UNL     1       0.742   9.423  21.030  0.00  0.00    +0.000 A 
ATOM     14  C   UNL     1       1.115   8.071  21.160  0.00  0.00    +0.000 A 
ATOM     15  C   UNL     1       1.828   7.426  20.130  0.00  0.00    +0.000 A 
ATOM     16  C   UNL     1       2.223   6.005  20.271  0.00  0.00    +0.000 C 
ATOM     17  O   UNL     1       1.904   5.422  21.300  0.00  0.00    +0.000 OA
ENDROOT
BRANCH   1  19
ATOM     18  C   UNL     1       5.936   4.693  15.270  0.00  0.00    +0.000 C 
ATOM     19  O   UNL     1       5.185   3.724  15.989  0.00  0.00    +0.000 OA
ENDBRANCH   1  19
BRANCH   3  20
ATOM     20  O   UNL     1       3.093   3.227  20.319  0.00  0.00    +0.000 OA
ATOM     21  H   UNL     1       2.219   3.454  20.675  0.00  0.00    +0.000 HD
ENDBRANCH   3  20
BRANCH  13  22
ATOM     22  C   UNL     1       0.013  10.121  22.129  0.00  0.00    +0.000 C 
ATOM     23  O   UNL     1       0.254   9.957  23.313  0.00  0.00    +0.000 OA
BRANCH  22  24
ATOM     24  O   UNL     1      -1.034  10.825  21.634  0.00  0.00    +0.000 OA
BRANCH  24  25
ATOM     25  C   UNL     1      -1.344  12.030  22.365  0.00  0.00    +0.000 C 
BRANCH  25  26
ATOM     26  C   UNL     1      -2.817  12.159  22.799  0.00  0.00    +0.000 C 
ATOM     27  O   UNL     1      -2.875  12.728  24.113  0.00  0.00    +0.000 OA
ATOM     28  C   UNL     1      -4.197  12.908  24.609  0.00  0.00    +0.000 C 
ATOM     29  C   UNL     1      -5.046  13.802  23.685  0.00  0.00    +0.000 C 
ATOM     30  C   UNL     1      -5.034  13.249  22.254  0.00  0.00    +0.000 C 
ATOM     31  C   UNL     1      -3.587  13.023  21.782  0.00  0.00    +0.000 C 
BRANCH  28  32
ATOM     32  O   UNL     1      -4.832  11.663  24.885  0.00  0.00    +0.000 OA
ATOM     33  H   UNL     1      -4.437  11.262  25.671  0.00  0.00    +0.000 HD
ENDBRANCH  28  32
BRANCH  29  34
ATOM     34  O   UNL     1      -6.388  13.927  24.166  0.00  0.00    +0.000 OA
ATOM     35  H   UNL     1      -6.944  13.305  23.662  0.00  0.00    +0.000 HD
ENDBRANCH  29  34
BRANCH  30  36
ATOM     36  O   UNL     1      -5.716  14.124  21.346  0.00  0.00    +0.000 OA
ATOM     37  H   UNL     1      -6.535  13.690  21.051  0.00  0.00    +0.000 HD
ENDBRANCH  30  36
BRANCH  31  38
ATOM     38  O   UNL     1      -3.560  12.416  20.488  0.00  0.00    +0.000 OA
ATOM     39  H   UNL     1      -4.255  12.815  19.935  0.00  0.00    +0.000 HD
ENDBRANCH  31  38
ENDBRANCH  25  26
ENDBRANCH  24  25
ENDBRANCH  22  24
ENDBRANCH  13  22
TORSDOF 10
ENDMDL
