MODEL 1
REMARK VINA RESULT:      -8.0      0.000      0.000
REMARK  Name = 
REMARK  5 active torsions:
REMARK  status: ('A' for Active; 'I' for Inactive)
REMARK    1  A    between atoms: C_2  and  C_3
REMARK    2  A    between atoms: C_3  and  C_4
REMARK    3  A    between atoms: C_4  and  C_5
REMARK    4  A    between atoms: C_8  and  O_9
REMARK    5  A    between atoms: O_9  and  C_10
REMARK                            x       y       z     vdW  Elec       q    Type
REMARK                         _______ _______ _______ _____ _____    ______ ____
ROOT
ATOM      1  O   UNL     1       7.063   6.459  18.551  0.00  0.00    +0.000 OA
ATOM      2  C   UNL     1       6.620   5.370  18.166  0.00  0.00    +0.000 C 
ATOM      3  N   UNL     1       5.445   4.835  18.670  0.00  0.00    +0.000 N 
ATOM      4  C   UNL     1       4.636   5.658  19.556  0.00  0.00    +0.000 C 
ATOM      5  C   UNL     1       3.185   5.637  19.081  0.00  0.00    +0.000 C 
ATOM      6  C   UNL     1       2.705   4.229  18.827  0.00  0.00    +0.000 A 
ATOM      7  N   UNL     1       1.340   4.069  18.805  0.00  0.00    +0.000 NA
ATOM      8  C   UNL     1       0.893   2.875  18.630  0.00  0.00    +0.000 A 
ATOM      9  N   UNL     1       1.688   1.778  18.480  0.00  0.00    +0.000 N 
ATOM     10  C   UNL     1       3.050   1.867  18.506  0.00  0.00    +0.000 A 
ATOM     11  O   UNL     1       3.773   0.880  18.427  0.00  0.00    +0.000 OA
ATOM     12  C   UNL     1       3.598   3.229  18.659  0.00  0.00    +0.000 A 
ATOM     13  C   UNL     1       5.085   3.408  18.648  0.00  0.00    +0.000 C 
ATOM     14  H   UNL     1       1.288   0.859  18.384  0.00  0.00    +0.000 HD
ENDROOT
BRANCH   2  15
ATOM     15  C   UNL     1       7.278   4.582  17.052  0.00  0.00    +0.000 C 
BRANCH  15  16
ATOM     16  C   UNL     1       7.432   5.415  15.774  0.00  0.00    +0.000 C 
BRANCH  16  17
ATOM     17  C   UNL     1       6.807   4.791  14.541  0.00  0.00    +0.000 A 
ATOM     18  C   UNL     1       5.553   4.171  14.617  0.00  0.00    +0.000 A 
ATOM     19  C   UNL     1       4.978   3.577  13.480  0.00  0.00    +0.000 A 
ATOM     20  C   UNL     1       5.639   3.609  12.253  0.00  0.00    +0.000 A 
ATOM     21  C   UNL     1       6.888   4.218  12.169  0.00  0.00    +0.000 A 
ATOM     22  C   UNL     1       7.466   4.812  13.307  0.00  0.00    +0.000 A 
BRANCH  20  23
ATOM     23  O   UNL     1       4.998   2.988  11.213  0.00  0.00    +0.000 OA
BRANCH  23  24
ATOM     24  C   UNL     1       3.669   3.429  10.974  0.00  0.00    +0.000 C 
ATOM     25  F   UNL     1       3.641   4.138   9.820  0.00  0.00    +0.000 F 
ATOM     26  F   UNL     1       2.902   2.325  10.770  0.00  0.00    +0.000 F 
ENDBRANCH  23  24
ENDBRANCH  20  23
ENDBRANCH  16  17
ENDBRANCH  15  16
ENDBRANCH   2  15
TORSDOF 5
ENDMDL
MODEL 2
REMARK VINA RESULT:      -7.9      4.203      7.348
REMARK  Name = 
REMARK  5 active torsions:
REMARK  status: ('A' for Active; 'I' for Inactive)
REMARK    1  A    between atoms: C_2  and  C_3
REMARK    2  A    between atoms: C_3  and  C_4
REMARK    3  A    between atoms: C_4  and  C_5
REMARK    4  A    between atoms: C_8  and  O_9
REMARK    5  A    between atoms: O_9  and  C_10
REMARK                            x       y       z     vdW  Elec       q    Type
REMARK                         _______ _______ _______ _____ _____    ______ ____
ROOT
ATOM      1  O   UNL     1       2.982   2.592  17.092  0.00  0.00    +0.000 OA
ATOM      2  C   UNL     1       3.653   3.140  17.974  0.00  0.00    +0.000 C 
ATOM      3  N   UNL     1       4.788   3.880  17.682  0.00  0.00    +0.000 N 
ATOM      4  C   UNL     1       5.097   4.148  16.285  0.00  0.00    +0.000 C 
ATOM      5  C   UNL     1       5.379   5.637  16.107  0.00  0.00    +0.000 C 
ATOM      6  C   UNL     1       6.362   6.143  17.134  0.00  0.00    +0.000 A 
ATOM      7  N   UNL     1       6.988   7.324  16.815  0.00  0.00    +0.000 NA
ATOM      8  C   UNL     1       7.863   7.767  17.650  0.00  0.00    +0.000 A 
ATOM      9  N   UNL     1       8.204   7.130  18.805  0.00  0.00    +0.000 N 
ATOM     10  C   UNL     1       7.630   5.947  19.172  0.00  0.00    +0.000 A 
ATOM     11  O   UNL     1       7.968   5.339  20.182  0.00  0.00    +0.000 OA
ATOM     12  C   UNL     1       6.589   5.433  18.261  0.00  0.00    +0.000 A 
ATOM     13  C   UNL     1       5.882   4.164  18.625  0.00  0.00    +0.000 C 
ATOM     14  H   UNL     1       8.924   7.499  19.406  0.00  0.00    +0.000 HD
ENDROOT
BRANCH   2  15
ATOM     15  C   UNL     1       3.237   3.119  19.430  0.00  0.00    +0.000 C 
BRANCH  15  16
ATOM     16  C   UNL     1       1.892   3.820  19.653  0.00  0.00    +0.000 C 
BRANCH  16  17
ATOM     17  C   UNL     1       1.929   5.323  19.460  0.00  0.00    +0.000 A 
ATOM     18  C   UNL     1       2.206   5.871  18.201  0.00  0.00    +0.000 A 
ATOM     19  C   UNL     1       2.258   7.264  18.020  0.00  0.00    +0.000 A 
ATOM     20  C   UNL     1       2.020   8.126  19.090  0.00  0.00    +0.000 A 
ATOM     21  C   UNL     1       1.749   7.591  20.347  0.00  0.00    +0.000 A 
ATOM     22  C   UNL     1       1.697   6.197  20.529  0.00  0.00    +0.000 A 
BRANCH  20  23
ATOM     23  O   UNL     1       2.110   9.464  18.810  0.00  0.00    +0.000 OA
BRANCH  23  24
ATOM     24  C   UNL     1       0.985  10.239  19.202  0.00  0.00    +0.000 C 
ATOM     25  F   UNL     1       1.389  11.509  19.447  0.00  0.00    +0.000 F 
ATOM     26  F   UNL     1       0.140  10.299  18.138  0.00  0.00    +0.000 F 
ENDBRANCH  23  24
ENDBRANCH  20  23
ENDBRANCH  16  17
ENDBRANCH  15  16
ENDBRANCH   2  15
TORSDOF 5
ENDMDL
MODEL 3
REMARK VINA RESULT:      -7.7      0.886      1.080
REMARK  Name = 
REMARK  5 active torsions:
REMARK  status: ('A' for Active; 'I' for Inactive)
REMARK    1  A    between atoms: C_2  and  C_3
REMARK    2  A    between atoms: C_3  and  C_4
REMARK    3  A    between atoms: C_4  and  C_5
REMARK    4  A    between atoms: C_8  and  O_9
REMARK    5  A    between atoms: O_9  and  C_10
REMARK                            x       y       z     vdW  Elec       q    Type
REMARK                         _______ _______ _______ _____ _____    ______ ____
ROOT
ATOM      1  O   UNL     1       6.265   7.154  17.024  0.00  0.00    +0.000 OA
ATOM      2  C   UNL     1       6.137   5.931  17.160  0.00  0.00    +0.000 C 
ATOM      3  N   UNL     1       5.046   5.374  17.808  0.00  0.00    +0.000 N 
ATOM      4  C   UNL     1       3.949   6.251  18.192  0.00  0.00    +0.000 C 
ATOM      5  C   UNL     1       2.629   5.644  17.725  0.00  0.00    +0.000 C 
ATOM      6  C   UNL     1       2.515   4.192  18.120  0.00  0.00    +0.000 A 
ATOM      7  N   UNL     1       1.239   3.683  18.123  0.00  0.00    +0.000 NA
ATOM      8  C   UNL     1       1.097   2.459  18.494  0.00  0.00    +0.000 A 
ATOM      9  N   UNL     1       2.128   1.658  18.888  0.00  0.00    +0.000 N 
ATOM     10  C   UNL     1       3.416   2.107  18.922  0.00  0.00    +0.000 A 
ATOM     11  O   UNL     1       4.342   1.413  19.327  0.00  0.00    +0.000 OA
ATOM     12  C   UNL     1       3.621   3.494  18.460  0.00  0.00    +0.000 A 
ATOM     13  C   UNL     1       5.016   4.038  18.424  0.00  0.00    +0.000 C 
ATOM     14  H   UNL     1       1.959   0.717  19.206  0.00  0.00    +0.000 HD
ENDROOT
BRANCH   2  15
ATOM     15  C   UNL     1       7.114   4.947  16.552  0.00  0.00    +0.000 C 
BRANCH  15  16
ATOM     16  C   UNL     1       7.527   5.352  15.132  0.00  0.00    +0.000 C 
BRANCH  16  17
ATOM     17  C   UNL     1       6.812   4.594  14.031  0.00  0.00    +0.000 A 
ATOM     18  C   UNL     1       5.519   4.097  14.236  0.00  0.00    +0.000 A 
ATOM     19  C   UNL     1       4.858   3.379  13.224  0.00  0.00    +0.000 A 
ATOM     20  C   UNL     1       5.474   3.163  11.992  0.00  0.00    +0.000 A 
ATOM     21  C   UNL     1       6.761   3.649  11.780  0.00  0.00    +0.000 A 
ATOM     22  C   UNL     1       7.424   4.367  12.793  0.00  0.00    +0.000 A 
BRANCH  20  23
ATOM     23  O   UNL     1       4.749   2.439  11.081  0.00  0.00    +0.000 OA
BRANCH  23  24
ATOM     24  C   UNL     1       3.591   3.090  10.578  0.00  0.00    +0.000 C 
ATOM     25  F   UNL     1       2.550   2.839  11.407  0.00  0.00    +0.000 F 
ATOM     26  F   UNL     1       3.818   4.429  10.634  0.00  0.00    +0.000 F 
ENDBRANCH  23  24
ENDBRANCH  20  23
ENDBRANCH  16  17
ENDBRANCH  15  16
ENDBRANCH   2  15
TORSDOF 5
ENDMDL
MODEL 4
REMARK VINA RESULT:      -7.7      4.283      7.400
REMARK  Name = 
REMARK  5 active torsions:
REMARK  status: ('A' for Active; 'I' for Inactive)
REMARK    1  A    between atoms: C_2  and  C_3
REMARK    2  A    between atoms: C_3  and  C_4
REMARK    3  A    between atoms: C_4  and  C_5
REMARK    4  A    between atoms: C_8  and  O_9
REMARK    5  A    between atoms: O_9  and  C_10
REMARK                            x       y       z     vdW  Elec       q    Type
REMARK                         _______ _______ _______ _____ _____    ______ ____
ROOT
ATOM      1  O   UNL     1       2.151   3.427  17.001  0.00  0.00    +0.000 OA
ATOM      2  C   UNL     1       2.868   3.896  17.894  0.00  0.00    +0.000 C 
ATOM      3  N   UNL     1       4.158   4.337  17.644  0.00  0.00    +0.000 N 
ATOM      4  C   UNL     1       4.612   4.396  16.262  0.00  0.00    +0.000 C 
ATOM      5  C   UNL     1       5.237   5.763  15.994  0.00  0.00    +0.000 C 
ATOM      6  C   UNL     1       6.238   6.135  17.059  0.00  0.00    +0.000 A 
ATOM      7  N   UNL     1       7.135   7.113  16.706  0.00  0.00    +0.000 NA
ATOM      8  C   UNL     1       8.030   7.430  17.575  0.00  0.00    +0.000 A 
ATOM      9  N   UNL     1       8.140   6.847  18.802  0.00  0.00    +0.000 N 
ATOM     10  C   UNL     1       7.289   5.859  19.209  0.00  0.00    +0.000 A 
ATOM     11  O   UNL     1       7.413   5.291  20.288  0.00  0.00    +0.000 OA
ATOM     12  C   UNL     1       6.222   5.503  18.254  0.00  0.00    +0.000 A 
ATOM     13  C   UNL     1       5.222   4.461  18.653  0.00  0.00    +0.000 C 
ATOM     14  H   UNL     1       8.882   7.104  19.432  0.00  0.00    +0.000 HD
ENDROOT
BRANCH   2  15
ATOM     15  C   UNL     1       2.362   4.105  19.305  0.00  0.00    +0.000 C 
BRANCH  15  16
ATOM     16  C   UNL     1       3.068   5.276  19.999  0.00  0.00    +0.000 C 
BRANCH  16  17
ATOM     17  C   UNL     1       2.463   6.635  19.707  0.00  0.00    +0.000 A 
ATOM     18  C   UNL     1       1.691   7.292  20.673  0.00  0.00    +0.000 A 
ATOM     19  C   UNL     1       1.114   8.544  20.401  0.00  0.00    +0.000 A 
ATOM     20  C   UNL     1       1.315   9.163  19.168  0.00  0.00    +0.000 A 
ATOM     21  C   UNL     1       2.077   8.516  18.198  0.00  0.00    +0.000 A 
ATOM     22  C   UNL     1       2.654   7.261  18.470  0.00  0.00    +0.000 A 
BRANCH  20  23
ATOM     23  O   UNL     1       0.696  10.374  18.999  0.00  0.00    +0.000 OA
BRANCH  23  24
ATOM     24  C   UNL     1      -0.553  10.324  18.326  0.00  0.00    +0.000 C 
ATOM     25  F   UNL     1      -0.485   9.400  17.337  0.00  0.00    +0.000 F 
ATOM     26  F   UNL     1      -1.479   9.875  19.214  0.00  0.00    +0.000 F 
ENDBRANCH  23  24
ENDBRANCH  20  23
ENDBRANCH  16  17
ENDBRANCH  15  16
ENDBRANCH   2  15
TORSDOF 5
ENDMDL
MODEL 5
REMARK VINA RESULT:      -7.7      4.517      7.666
REMARK  Name = 
REMARK  5 active torsions:
REMARK  status: ('A' for Active; 'I' for Inactive)
REMARK    1  A    between atoms: C_2  and  C_3
REMARK    2  A    between atoms: C_3  and  C_4
REMARK    3  A    between atoms: C_4  and  C_5
REMARK    4  A    between atoms: C_8  and  O_9
REMARK    5  A    between atoms: O_9  and  C_10
REMARK                            x       y       z     vdW  Elec       q    Type
REMARK                         _______ _______ _______ _____ _____    ______ ____
ROOT
ATOM      1  O   UNL     1       2.206   3.680  16.835  0.00  0.00    +0.000 OA
ATOM      2  C   UNL     1       2.922   4.089  17.757  0.00  0.00    +0.000 C 
ATOM      3  N   UNL     1       4.216   4.535  17.539  0.00  0.00    +0.000 N 
ATOM      4  C   UNL     1       4.677   4.673  16.165  0.00  0.00    +0.000 C 
ATOM      5  C   UNL     1       5.313   6.048  15.982  0.00  0.00    +0.000 C 
ATOM      6  C   UNL     1       6.311   6.349  17.071  0.00  0.00    +0.000 A 
ATOM      7  N   UNL     1       7.218   7.340  16.780  0.00  0.00    +0.000 NA
ATOM      8  C   UNL     1       8.110   7.597  17.671  0.00  0.00    +0.000 A 
ATOM      9  N   UNL     1       8.210   6.942  18.862  0.00  0.00    +0.000 N 
ATOM     10  C   UNL     1       7.351   5.938  19.205  0.00  0.00    +0.000 A 
ATOM     11  O   UNL     1       7.465   5.306  20.250  0.00  0.00    +0.000 OA
ATOM     12  C   UNL     1       6.285   5.647  18.226  0.00  0.00    +0.000 A 
ATOM     13  C   UNL     1       5.277   4.591  18.558  0.00  0.00    +0.000 C 
ATOM     14  H   UNL     1       8.952   7.155  19.509  0.00  0.00    +0.000 HD
ENDROOT
BRANCH   2  15
ATOM     15  C   UNL     1       2.411   4.219  19.176  0.00  0.00    +0.000 C 
BRANCH  15  16
ATOM     16  C   UNL     1       3.088   5.372  19.926  0.00  0.00    +0.000 C 
BRANCH  16  17
ATOM     17  C   UNL     1       2.408   6.716  19.755  0.00  0.00    +0.000 A 
ATOM     18  C   UNL     1       2.485   7.400  18.535  0.00  0.00    +0.000 A 
ATOM     19  C   UNL     1       1.870   8.654  18.377  0.00  0.00    +0.000 A 
ATOM     20  C   UNL     1       1.158   9.232  19.427  0.00  0.00    +0.000 A 
ATOM     21  C   UNL     1       1.079   8.561  20.645  0.00  0.00    +0.000 A 
ATOM     22  C   UNL     1       1.695   7.306  20.805  0.00  0.00    +0.000 A 
BRANCH  20  23
ATOM     23  O   UNL     1       0.611  10.462  19.172  0.00  0.00    +0.000 OA
BRANCH  23  24
ATOM     24  C   UNL     1      -0.490  10.458  18.275  0.00  0.00    +0.000 C 
ATOM     25  F   UNL     1      -1.534   9.822  18.860  0.00  0.00    +0.000 F 
ATOM     26  F   UNL     1      -0.874  11.750  18.094  0.00  0.00    +0.000 F 
ENDBRANCH  23  24
ENDBRANCH  20  23
ENDBRANCH  16  17
ENDBRANCH  15  16
ENDBRANCH   2  15
TORSDOF 5
ENDMDL
MODEL 6
REMARK VINA RESULT:      -7.4      6.179      8.145
REMARK  Name = 
REMARK  5 active torsions:
REMARK  status: ('A' for Active; 'I' for Inactive)
REMARK    1  A    between atoms: C_2  and  C_3
REMARK    2  A    between atoms: C_3  and  C_4
REMARK    3  A    between atoms: C_4  and  C_5
REMARK    4  A    between atoms: C_8  and  O_9
REMARK    5  A    between atoms: O_9  and  C_10
REMARK                            x       y       z     vdW  Elec       q    Type
REMARK                         _______ _______ _______ _____ _____    ______ ____
ROOT
ATOM      1  O   UNL     1       7.465   6.188  16.181  0.00  0.00    +0.000 OA
ATOM      2  C   UNL     1       6.682   6.772  16.939  0.00  0.00    +0.000 C 
ATOM      3  N   UNL     1       5.551   6.151  17.448  0.00  0.00    +0.000 N 
ATOM      4  C   UNL     1       5.378   4.726  17.206  0.00  0.00    +0.000 C 
ATOM      5  C   UNL     1       5.049   4.028  18.523  0.00  0.00    +0.000 C 
ATOM      6  C   UNL     1       3.942   4.735  19.265  0.00  0.00    +0.000 A 
ATOM      7  N   UNL     1       3.300   3.982  20.218  0.00  0.00    +0.000 NA
ATOM      8  C   UNL     1       2.324   4.539  20.845  0.00  0.00    +0.000 A 
ATOM      9  N   UNL     1       1.893   5.810  20.609  0.00  0.00    +0.000 N 
ATOM     10  C   UNL     1       2.478   6.605  19.666  0.00  0.00    +0.000 A 
ATOM     11  O   UNL     1       2.064   7.730  19.408  0.00  0.00    +0.000 OA
ATOM     12  C   UNL     1       3.631   6.014  18.959  0.00  0.00    +0.000 A 
ATOM     13  C   UNL     1       4.353   6.847  17.945  0.00  0.00    +0.000 C 
ATOM     14  H   UNL     1       1.099   6.187  21.101  0.00  0.00    +0.000 HD
ENDROOT
BRANCH   2  15
ATOM     15  C   UNL     1       6.943   8.177  17.440  0.00  0.00    +0.000 C 
BRANCH  15  16
ATOM     16  C   UNL     1       8.243   8.264  18.250  0.00  0.00    +0.000 C 
BRANCH  16  17
ATOM     17  C   UNL     1       8.716   9.677  18.525  0.00  0.00    +0.000 A 
ATOM     18  C   UNL     1       8.462  10.703  17.606  0.00  0.00    +0.000 A 
ATOM     19  C   UNL     1       8.913  12.012  17.849  0.00  0.00    +0.000 A 
ATOM     20  C   UNL     1       9.609  12.315  19.018  0.00  0.00    +0.000 A 
ATOM     21  C   UNL     1       9.871  11.301  19.936  0.00  0.00    +0.000 A 
ATOM     22  C   UNL     1       9.421   9.991  19.693  0.00  0.00    +0.000 A 
BRANCH  20  23
ATOM     23  O   UNL     1      10.017  13.617  19.149  0.00  0.00    +0.000 OA
BRANCH  23  24
ATOM     24  C   UNL     1      11.373  13.861  18.803  0.00  0.00    +0.000 C 
ATOM     25  F   UNL     1      12.162  13.537  19.856  0.00  0.00    +0.000 F 
ATOM     26  F   UNL     1      11.698  13.006  17.797  0.00  0.00    +0.000 F 
ENDBRANCH  23  24
ENDBRANCH  20  23
ENDBRANCH  16  17
ENDBRANCH  15  16
ENDBRANCH   2  15
TORSDOF 5
ENDMDL
MODEL 7
REMARK VINA RESULT:      -7.3      4.895      7.664
REMARK  Name = 
REMARK  5 active torsions:
REMARK  status: ('A' for Active; 'I' for Inactive)
REMARK    1  A    between atoms: C_2  and  C_3
REMARK    2  A    between atoms: C_3  and  C_4
REMARK    3  A    between atoms: C_4  and  C_5
REMARK    4  A    between atoms: C_8  and  O_9
REMARK    5  A    between atoms: O_9  and  C_10
REMARK                            x       y       z     vdW  Elec       q    Type
REMARK                         _______ _______ _______ _____ _____    ______ ____
ROOT
ATOM      1  O   UNL     1       0.586   3.662  19.956  0.00  0.00    +0.000 OA
ATOM      2  C   UNL     1       1.660   4.276  19.962  0.00  0.00    +0.000 C 
ATOM      3  N   UNL     1       2.752   3.853  19.220  0.00  0.00    +0.000 N 
ATOM      4  C   UNL     1       2.568   2.750  18.288  0.00  0.00    +0.000 C 
ATOM      5  C   UNL     1       3.145   3.136  16.929  0.00  0.00    +0.000 C 
ATOM      6  C   UNL     1       4.540   3.698  17.057  0.00  0.00    +0.000 A 
ATOM      7  N   UNL     1       5.287   3.683  15.904  0.00  0.00    +0.000 NA
ATOM      8  C   UNL     1       6.496   4.118  15.984  0.00  0.00    +0.000 A 
ATOM      9  N   UNL     1       7.067   4.574  17.134  0.00  0.00    +0.000 N 
ATOM     10  C   UNL     1       6.384   4.602  18.315  0.00  0.00    +0.000 A 
ATOM     11  O   UNL     1       6.905   4.959  19.367  0.00  0.00    +0.000 OA
ATOM     12  C   UNL     1       4.979   4.152  18.251  0.00  0.00    +0.000 A 
ATOM     13  C   UNL     1       4.154   4.201  19.500  0.00  0.00    +0.000 C 
ATOM     14  H   UNL     1       8.030   4.868  17.151  0.00  0.00    +0.000 HD
ENDROOT
BRANCH   2  15
ATOM     15  C   UNL     1       1.837   5.581  20.708  0.00  0.00    +0.000 C 
BRANCH  15  16
ATOM     16  C   UNL     1       2.682   6.585  19.915  0.00  0.00    +0.000 C 
BRANCH  16  17
ATOM     17  C   UNL     1       1.957   7.867  19.554  0.00  0.00    +0.000 A 
ATOM     18  C   UNL     1       1.197   8.547  20.513  0.00  0.00    +0.000 A 
ATOM     19  C   UNL     1       0.509   9.727  20.179  0.00  0.00    +0.000 A 
ATOM     20  C   UNL     1       0.586  10.249  18.889  0.00  0.00    +0.000 A 
ATOM     21  C   UNL     1       1.335   9.577  17.926  0.00  0.00    +0.000 A 
ATOM     22  C   UNL     1       2.023   8.396  18.260  0.00  0.00    +0.000 A 
BRANCH  20  23
ATOM     23  O   UNL     1      -0.133  11.394  18.664  0.00  0.00    +0.000 OA
BRANCH  23  24
ATOM     24  C   UNL     1      -1.480  11.190  18.262  0.00  0.00    +0.000 C 
ATOM     25  F   UNL     1      -1.641   9.894  17.899  0.00  0.00    +0.000 F 
ATOM     26  F   UNL     1      -2.267  11.388  19.354  0.00  0.00    +0.000 F 
ENDBRANCH  23  24
ENDBRANCH  20  23
ENDBRANCH  16  17
ENDBRANCH  15  16
ENDBRANCH   2  15
TORSDOF 5
ENDMDL
MODEL 8
REMARK VINA RESULT:      -7.3      5.556      8.561
REMARK  Name = 
REMARK  5 active torsions:
REMARK  status: ('A' for Active; 'I' for Inactive)
REMARK    1  A    between atoms: C_2  and  C_3
REMARK    2  A    between atoms: C_3  and  C_4
REMARK    3  A    between atoms: C_4  and  C_5
REMARK    4  A    between atoms: C_8  and  O_9
REMARK    5  A    between atoms: O_9  and  C_10
REMARK                            x       y       z     vdW  Elec       q    Type
REMARK                         _______ _______ _______ _____ _____    ______ ____
ROOT
ATOM      1  O   UNL     1       0.885   3.899  19.663  0.00  0.00    +0.000 OA
ATOM      2  C   UNL     1       1.932   4.547  19.785  0.00  0.00    +0.000 C 
ATOM      3  N   UNL     1       3.108   4.167  19.158  0.00  0.00    +0.000 N 
ATOM      4  C   UNL     1       3.058   3.070  18.203  0.00  0.00    +0.000 C 
ATOM      5  C   UNL     1       3.760   3.489  16.914  0.00  0.00    +0.000 C 
ATOM      6  C   UNL     1       5.114   4.094  17.191  0.00  0.00    +0.000 A 
ATOM      7  N   UNL     1       5.978   4.116  16.122  0.00  0.00    +0.000 NA
ATOM      8  C   UNL     1       7.156   4.589  16.330  0.00  0.00    +0.000 A 
ATOM      9  N   UNL     1       7.590   5.049  17.537  0.00  0.00    +0.000 N 
ATOM     10  C   UNL     1       6.788   5.042  18.641  0.00  0.00    +0.000 A 
ATOM     11  O   UNL     1       7.185   5.404  19.744  0.00  0.00    +0.000 OA
ATOM     12  C   UNL     1       5.413   4.549  18.428  0.00  0.00    +0.000 A 
ATOM     13  C   UNL     1       4.461   4.557  19.585  0.00  0.00    +0.000 C 
ATOM     14  H   UNL     1       8.536   5.374  17.657  0.00  0.00    +0.000 HD
ENDROOT
BRANCH   2  15
ATOM     15  C   UNL     1       1.987   5.849  20.556  0.00  0.00    +0.000 C 
BRANCH  15  16
ATOM     16  C   UNL     1       2.351   7.034  19.654  0.00  0.00    +0.000 C 
BRANCH  16  17
ATOM     17  C   UNL     1       1.580   8.306  19.948  0.00  0.00    +0.000 A 
ATOM     18  C   UNL     1       1.090   8.556  21.236  0.00  0.00    +0.000 A 
ATOM     19  C   UNL     1       0.360   9.726  21.510  0.00  0.00    +0.000 A 
ATOM     20  C   UNL     1       0.125  10.666  20.507  0.00  0.00    +0.000 A 
ATOM     21  C   UNL     1       0.605  10.423  19.223  0.00  0.00    +0.000 A 
ATOM     22  C   UNL     1       1.335   9.252  18.947  0.00  0.00    +0.000 A 
BRANCH  20  23
ATOM     23  O   UNL     1      -0.609  11.763  20.876  0.00  0.00    +0.000 OA
BRANCH  23  24
ATOM     24  C   UNL     1      -1.364  12.361  19.832  0.00  0.00    +0.000 C 
ATOM     25  F   UNL     1      -2.427  11.569  19.548  0.00  0.00    +0.000 F 
ATOM     26  F   UNL     1      -1.868  13.530  20.311  0.00  0.00    +0.000 F 
ENDBRANCH  23  24
ENDBRANCH  20  23
ENDBRANCH  16  17
ENDBRANCH  15  16
ENDBRANCH   2  15
TORSDOF 5
ENDMDL
MODEL 9
REMARK VINA RESULT:      -7.3      5.165      8.069
REMARK  Name = 
REMARK  5 active torsions:
REMARK  status: ('A' for Active; 'I' for Inactive)
REMARK    1  A    between atoms: C_2  and  C_3
REMARK    2  A    between atoms: C_3  and  C_4
REMARK    3  A    between atoms: C_4  and  C_5
REMARK    4  A    between atoms: C_8  and  O_9
REMARK    5  A    between atoms: O_9  and  C_10
REMARK                            x       y       z     vdW  Elec       q    Type
REMARK                         _______ _______ _______ _____ _____    ______ ____
ROOT
ATOM      1  O   UNL     1       2.072   3.926  20.164  0.00  0.00    +0.000 OA
ATOM      2  C   UNL     1       2.862   4.793  19.773  0.00  0.00    +0.000 C 
ATOM      3  N   UNL     1       3.937   4.491  18.952  0.00  0.00    +0.000 N 
ATOM      4  C   UNL     1       4.035   3.143  18.411  0.00  0.00    +0.000 C 
ATOM      5  C   UNL     1       4.279   3.219  16.906  0.00  0.00    +0.000 C 
ATOM      6  C   UNL     1       5.400   4.173  16.573  0.00  0.00    +0.000 A 
ATOM      7  N   UNL     1       5.965   4.004  15.332  0.00  0.00    +0.000 NA
ATOM      8  C   UNL     1       6.951   4.774  15.028  0.00  0.00    +0.000 A 
ATOM      9  N   UNL     1       7.462   5.723  15.862  0.00  0.00    +0.000 N 
ATOM     10  C   UNL     1       6.956   5.931  17.112  0.00  0.00    +0.000 A 
ATOM     11  O   UNL     1       7.442   6.744  17.890  0.00  0.00    +0.000 OA
ATOM     12  C   UNL     1       5.794   5.096  17.477  0.00  0.00    +0.000 A 
ATOM     13  C   UNL     1       5.156   5.304  18.816  0.00  0.00    +0.000 C 
ATOM     14  H   UNL     1       8.260   6.274  15.590  0.00  0.00    +0.000 HD
ENDROOT
BRANCH   2  15
ATOM     15  C   UNL     1       2.665   6.261  20.086  0.00  0.00    +0.000 C 
BRANCH  15  16
ATOM     16  C   UNL     1       2.501   7.102  18.815  0.00  0.00    +0.000 C 
BRANCH  16  17
ATOM     17  C   UNL     1       1.841   8.449  19.035  0.00  0.00    +0.000 A 
ATOM     18  C   UNL     1       1.229   8.748  20.259  0.00  0.00    +0.000 A 
ATOM     19  C   UNL     1       0.601   9.989  20.462  0.00  0.00    +0.000 A 
ATOM     20  C   UNL     1       0.590  10.951  19.453  0.00  0.00    +0.000 A 
ATOM     21  C   UNL     1       1.192  10.661  18.231  0.00  0.00    +0.000 A 
ATOM     22  C   UNL     1       1.820   9.419  18.026  0.00  0.00    +0.000 A 
BRANCH  20  23
ATOM     23  O   UNL     1      -0.061  12.120  19.748  0.00  0.00    +0.000 OA
BRANCH  23  24
ATOM     24  C   UNL     1      -1.312  12.293  19.098  0.00  0.00    +0.000 C 
ATOM     25  F   UNL     1      -1.100  12.817  17.866  0.00  0.00    +0.000 F 
ATOM     26  F   UNL     1      -1.849  11.059  18.908  0.00  0.00    +0.000 F 
ENDBRANCH  23  24
ENDBRANCH  20  23
ENDBRANCH  16  17
ENDBRANCH  15  16
ENDBRANCH   2  15
TORSDOF 5
ENDMDL
