MODEL 1
REMARK VINA RESULT:      -6.3      0.000      0.000
REMARK  Name = 
REMARK  11 active torsions:
REMARK  status: ('A' for Active; 'I' for Inactive)
REMARK    1  A    between atoms: O_1  and  C_2
REMARK    2  A    between atoms: C_2  and  C_3
REMARK    3  A    between atoms: C_2  and  C_15
REMARK    4  A    between atoms: C_3  and  N_4
REMARK    5  A    between atoms: N_4  and  C_5
REMARK    6  A    between atoms: C_5  and  C_6
REMARK    7  A    between atoms: C_6  and  C_7
REMARK    8  A    between atoms: C_7  and  O_8
REMARK    9  A    between atoms: O_8  and  C_9
REMARK   10  A    between atoms: C_15  and  O_16
REMARK   11  A    between atoms: O_16  and  C_17
REMARK                            x       y       z     vdW  Elec       q    Type
REMARK                         _______ _______ _______ _____ _____    ______ ____
ROOT
ATOM      1  C   UNL     1       1.876   2.607  20.066  0.00  0.00    +0.000 C 
ENDROOT
BRANCH   1   2
ATOM      2  N   UNL     1       2.764   2.386  18.912  0.00  0.00    +0.000 NA
ATOM      3  H   UNL     1       2.907   1.356  18.789  0.00  0.00    +0.000 HD
BRANCH   2   4
ATOM      4  C   UNL     1       2.151   2.924  17.696  0.00  0.00    +0.000 C 
BRANCH   4   5
ATOM      5  C   UNL     1       3.190   3.644  16.825  0.00  0.00    +0.000 C 
BRANCH   5   6
ATOM      6  C   UNL     1       4.547   3.584  17.523  0.00  0.00    +0.000 C 
BRANCH   6   7
ATOM      7  O   UNL     1       4.735   4.660  18.371  0.00  0.00    +0.000 OA
BRANCH   7   8
ATOM      8  C   UNL     1       5.785   5.522  18.273  0.00  0.00    +0.000 A 
ATOM      9  C   UNL     1       5.802   6.583  17.338  0.00  0.00    +0.000 A 
ATOM     10  C   UNL     1       6.895   7.447  17.268  0.00  0.00    +0.000 A 
ATOM     11  C   UNL     1       7.985   7.270  18.119  0.00  0.00    +0.000 A 
ATOM     12  C   UNL     1       7.981   6.222  19.046  0.00  0.00    +0.000 A 
ATOM     13  C   UNL     1       6.888   5.352  19.124  0.00  0.00    +0.000 A 
ENDBRANCH   7   8
ENDBRANCH   6   7
ENDBRANCH   5   6
ENDBRANCH   4   5
ENDBRANCH   2   4
ENDBRANCH   1   2
BRANCH   1  14
ATOM     14  C   UNL     1       2.528   3.552  21.086  0.00  0.00    +0.000 C 
BRANCH  14  15
ATOM     15  O   UNL     1       2.335   3.051  22.384  0.00  0.00    +0.000 OA
ATOM     16  H   UNL     1       3.199   2.653  22.670  0.00  0.00    +0.000 HD
ENDBRANCH  14  15
BRANCH  14  17
ATOM     17  C   UNL     1       1.916   4.951  20.997  0.00  0.00    +0.000 C 
BRANCH  17  18
ATOM     18  O   UNL     1       2.598   5.717  20.073  0.00  0.00    +0.000 OA
BRANCH  18  19
ATOM     19  C   UNL     1       2.202   6.944  19.645  0.00  0.00    +0.000 A 
ATOM     20  C   UNL     1       1.535   7.858  20.489  0.00  0.00    +0.000 A 
ATOM     21  C   UNL     1       1.137   9.105  20.005  0.00  0.00    +0.000 A 
ATOM     22  C   UNL     1       1.397   9.456  18.679  0.00  0.00    +0.000 A 
ATOM     23  C   UNL     1       2.058   8.560  17.835  0.00  0.00    +0.000 A 
ATOM     24  C   UNL     1       2.459   7.309  18.316  0.00  0.00    +0.000 A 
ENDBRANCH  18  19
ENDBRANCH  17  18
ENDBRANCH  14  17
ENDBRANCH   1  14
TORSDOF 11
ENDMDL
MODEL 2
REMARK VINA RESULT:      -6.3      0.767      1.306
REMARK  Name = 
REMARK  11 active torsions:
REMARK  status: ('A' for Active; 'I' for Inactive)
REMARK    1  A    between atoms: O_1  and  C_2
REMARK    2  A    between atoms: C_2  and  C_3
REMARK    3  A    between atoms: C_2  and  C_15
REMARK    4  A    between atoms: C_3  and  N_4
REMARK    5  A    between atoms: N_4  and  C_5
REMARK    6  A    between atoms: C_5  and  C_6
REMARK    7  A    between atoms: C_6  and  C_7
REMARK    8  A    between atoms: C_7  and  O_8
REMARK    9  A    between atoms: O_8  and  C_9
REMARK   10  A    between atoms: C_15  and  O_16
REMARK   11  A    between atoms: O_16  and  C_17
REMARK                            x       y       z     vdW  Elec       q    Type
REMARK                         _______ _______ _______ _____ _____    ______ ____
ROOT
ATOM      1  C   UNL     1       0.904   3.367  20.334  0.00  0.00    +0.000 C 
ENDROOT
BRANCH   1   2
ATOM      2  N   UNL     1       1.152   3.045  18.918  0.00  0.00    +0.000 NA
ATOM      3  H   UNL     1       1.407   3.926  18.412  0.00  0.00    +0.000 HD
BRANCH   2   4
ATOM      4  C   UNL     1       2.264   2.099  18.806  0.00  0.00    +0.000 C 
BRANCH   4   5
ATOM      5  C   UNL     1       3.049   2.320  17.506  0.00  0.00    +0.000 C 
BRANCH   5   6
ATOM      6  C   UNL     1       3.591   3.747  17.493  0.00  0.00    +0.000 C 
BRANCH   6   7
ATOM      7  O   UNL     1       4.835   3.828  18.090  0.00  0.00    +0.000 OA
BRANCH   7   8
ATOM      8  C   UNL     1       5.679   4.887  17.937  0.00  0.00    +0.000 A 
ATOM      9  C   UNL     1       6.785   5.096  18.793  0.00  0.00    +0.000 A 
ATOM     10  C   UNL     1       7.627   6.192  18.606  0.00  0.00    +0.000 A 
ATOM     11  C   UNL     1       7.383   7.095  17.571  0.00  0.00    +0.000 A 
ATOM     12  C   UNL     1       6.291   6.900  16.720  0.00  0.00    +0.000 A 
ATOM     13  C   UNL     1       5.442   5.802  16.901  0.00  0.00    +0.000 A 
ENDBRANCH   7   8
ENDBRANCH   6   7
ENDBRANCH   5   6
ENDBRANCH   4   5
ENDBRANCH   2   4
ENDBRANCH   1   2
BRANCH   1  14
ATOM     14  C   UNL     1       2.221   3.670  21.065  0.00  0.00    +0.000 C 
BRANCH  14  15
ATOM     15  O   UNL     1       2.170   3.142  22.366  0.00  0.00    +0.000 OA
ATOM     16  H   UNL     1       2.908   3.566  22.878  0.00  0.00    +0.000 HD
ENDBRANCH  14  15
BRANCH  14  17
ATOM     17  C   UNL     1       2.458   5.179  21.150  0.00  0.00    +0.000 C 
BRANCH  17  18
ATOM     18  O   UNL     1       2.641   5.709  19.888  0.00  0.00    +0.000 OA
BRANCH  18  19
ATOM     19  C   UNL     1       2.255   6.956  19.511  0.00  0.00    +0.000 A 
ATOM     20  C   UNL     1       1.564   7.827  20.382  0.00  0.00    +0.000 A 
ATOM     21  C   UNL     1       1.178   9.096  19.950  0.00  0.00    +0.000 A 
ATOM     22  C   UNL     1       1.474   9.513  18.650  0.00  0.00    +0.000 A 
ATOM     23  C   UNL     1       2.159   8.660  17.781  0.00  0.00    +0.000 A 
ATOM     24  C   UNL     1       2.548   7.387  18.210  0.00  0.00    +0.000 A 
ENDBRANCH  18  19
ENDBRANCH  17  18
ENDBRANCH  14  17
ENDBRANCH   1  14
TORSDOF 11
ENDMDL
MODEL 3
REMARK VINA RESULT:      -6.2      3.798      6.027
REMARK  Name = 
REMARK  11 active torsions:
REMARK  status: ('A' for Active; 'I' for Inactive)
REMARK    1  A    between atoms: O_1  and  C_2
REMARK    2  A    between atoms: C_2  and  C_3
REMARK    3  A    between atoms: C_2  and  C_15
REMARK    4  A    between atoms: C_3  and  N_4
REMARK    5  A    between atoms: N_4  and  C_5
REMARK    6  A    between atoms: C_5  and  C_6
REMARK    7  A    between atoms: C_6  and  C_7
REMARK    8  A    between atoms: C_7  and  O_8
REMARK    9  A    between atoms: O_8  and  C_9
REMARK   10  A    between atoms: C_15  and  O_16
REMARK   11  A    between atoms: O_16  and  C_17
REMARK                            x       y       z     vdW  Elec       q    Type
REMARK                         _______ _______ _______ _____ _____    ______ ____
ROOT
ATOM      1  C   UNL     1       6.590   4.897  16.372  0.00  0.00    +0.000 C 
ENDROOT
BRANCH   1   2
ATOM      2  N   UNL     1       7.493   6.059  16.310  0.00  0.00    +0.000 NA
ATOM      3  H   UNL     1       7.098   6.758  15.638  0.00  0.00    +0.000 HD
BRANCH   2   4
ATOM      4  C   UNL     1       7.600   6.684  17.630  0.00  0.00    +0.000 C 
BRANCH   4   5
ATOM      5  C   UNL     1       7.391   8.201  17.542  0.00  0.00    +0.000 C 
BRANCH   5   6
ATOM      6  C   UNL     1       8.494   8.899  18.335  0.00  0.00    +0.000 C 
BRANCH   6   7
ATOM      7  O   UNL     1       8.689  10.199  17.906  0.00  0.00    +0.000 OA
BRANCH   7   8
ATOM      8  C   UNL     1       9.438  11.113  18.584  0.00  0.00    +0.000 A 
ATOM      9  C   UNL     1       9.959  12.269  17.959  0.00  0.00    +0.000 A 
ATOM     10  C   UNL     1      10.721  13.184  18.686  0.00  0.00    +0.000 A 
ATOM     11  C   UNL     1      10.978  12.964  20.039  0.00  0.00    +0.000 A 
ATOM     12  C   UNL     1      10.471  11.822  20.667  0.00  0.00    +0.000 A 
ATOM     13  C   UNL     1       9.704  10.900  19.945  0.00  0.00    +0.000 A 
ENDBRANCH   7   8
ENDBRANCH   6   7
ENDBRANCH   5   6
ENDBRANCH   4   5
ENDBRANCH   2   4
ENDBRANCH   1   2
BRANCH   1  14
ATOM     14  C   UNL     1       5.152   5.302  16.015  0.00  0.00    +0.000 C 
BRANCH  14  15
ATOM     15  O   UNL     1       5.165   6.525  15.323  0.00  0.00    +0.000 OA
ATOM     16  H   UNL     1       4.266   6.930  15.438  0.00  0.00    +0.000 HD
ENDBRANCH  14  15
BRANCH  14  17
ATOM     17  C   UNL     1       4.303   5.454  17.277  0.00  0.00    +0.000 C 
BRANCH  17  18
ATOM     18  O   UNL     1       3.257   4.551  17.266  0.00  0.00    +0.000 OA
BRANCH  18  19
ATOM     19  C   UNL     1       2.519   4.212  18.355  0.00  0.00    +0.000 A 
ATOM     20  C   UNL     1       2.659   4.870  19.596  0.00  0.00    +0.000 A 
ATOM     21  C   UNL     1       1.886   4.481  20.691  0.00  0.00    +0.000 A 
ATOM     22  C   UNL     1       0.968   3.437  20.564  0.00  0.00    +0.000 A 
ATOM     23  C   UNL     1       0.821   2.779  19.340  0.00  0.00    +0.000 A 
ATOM     24  C   UNL     1       1.593   3.166  18.239  0.00  0.00    +0.000 A 
ENDBRANCH  18  19
ENDBRANCH  17  18
ENDBRANCH  14  17
ENDBRANCH   1  14
TORSDOF 11
ENDMDL
MODEL 4
REMARK VINA RESULT:      -6.2      3.758      6.358
REMARK  Name = 
REMARK  11 active torsions:
REMARK  status: ('A' for Active; 'I' for Inactive)
REMARK    1  A    between atoms: O_1  and  C_2
REMARK    2  A    between atoms: C_2  and  C_3
REMARK    3  A    between atoms: C_2  and  C_15
REMARK    4  A    between atoms: C_3  and  N_4
REMARK    5  A    between atoms: N_4  and  C_5
REMARK    6  A    between atoms: C_5  and  C_6
REMARK    7  A    between atoms: C_6  and  C_7
REMARK    8  A    between atoms: C_7  and  O_8
REMARK    9  A    between atoms: O_8  and  C_9
REMARK   10  A    between atoms: C_15  and  O_16
REMARK   11  A    between atoms: O_16  and  C_17
REMARK                            x       y       z     vdW  Elec       q    Type
REMARK                         _______ _______ _______ _____ _____    ______ ____
ROOT
ATOM      1  C   UNL     1       7.633   4.709  17.604  0.00  0.00    +0.000 C 
ENDROOT
BRANCH   1   2
ATOM      2  N   UNL     1       6.961   5.878  18.196  0.00  0.00    +0.000 NA
ATOM      3  H   UNL     1       6.543   5.597  19.114  0.00  0.00    +0.000 HD
BRANCH   2   4
ATOM      4  C   UNL     1       7.930   6.951  18.428  0.00  0.00    +0.000 C 
BRANCH   4   5
ATOM      5  C   UNL     1       7.764   8.078  17.401  0.00  0.00    +0.000 C 
BRANCH   5   6
ATOM      6  C   UNL     1       7.960   9.420  18.104  0.00  0.00    +0.000 C 
BRANCH   6   7
ATOM      7  O   UNL     1       9.262   9.870  17.994  0.00  0.00    +0.000 OA
BRANCH   7   8
ATOM      8  C   UNL     1       9.792  10.849  18.780  0.00  0.00    +0.000 A 
ATOM      9  C   UNL     1      10.676  11.827  18.268  0.00  0.00    +0.000 A 
ATOM     10  C   UNL     1      11.198  12.815  19.104  0.00  0.00    +0.000 A 
ATOM     11  C   UNL     1      10.854  12.844  20.455  0.00  0.00    +0.000 A 
ATOM     12  C   UNL     1       9.983  11.880  20.973  0.00  0.00    +0.000 A 
ATOM     13  C   UNL     1       9.454  10.887  20.140  0.00  0.00    +0.000 A 
ENDBRANCH   7   8
ENDBRANCH   6   7
ENDBRANCH   5   6
ENDBRANCH   4   5
ENDBRANCH   2   4
ENDBRANCH   1   2
BRANCH   1  14
ATOM     14  C   UNL     1       7.063   4.397  16.212  0.00  0.00    +0.000 C 
BRANCH  14  15
ATOM     15  O   UNL     1       7.414   5.423  15.318  0.00  0.00    +0.000 OA
ATOM     16  H   UNL     1       8.393   5.562  15.409  0.00  0.00    +0.000 HD
ENDBRANCH  14  15
BRANCH  14  17
ATOM     17  C   UNL     1       5.539   4.283  16.264  0.00  0.00    +0.000 C 
BRANCH  17  18
ATOM     18  O   UNL     1       5.139   3.725  17.462  0.00  0.00    +0.000 OA
BRANCH  18  19
ATOM     19  C   UNL     1       3.848   3.470  17.802  0.00  0.00    +0.000 A 
ATOM     20  C   UNL     1       3.436   2.220  18.312  0.00  0.00    +0.000 A 
ATOM     21  C   UNL     1       2.097   1.999  18.638  0.00  0.00    +0.000 A 
ATOM     22  C   UNL     1       1.157   3.016  18.463  0.00  0.00    +0.000 A 
ATOM     23  C   UNL     1       1.555   4.258  17.960  0.00  0.00    +0.000 A 
ATOM     24  C   UNL     1       2.896   4.484  17.632  0.00  0.00    +0.000 A 
ENDBRANCH  18  19
ENDBRANCH  17  18
ENDBRANCH  14  17
ENDBRANCH   1  14
TORSDOF 11
ENDMDL
MODEL 5
REMARK VINA RESULT:      -6.2      1.158      1.923
REMARK  Name = 
REMARK  11 active torsions:
REMARK  status: ('A' for Active; 'I' for Inactive)
REMARK    1  A    between atoms: O_1  and  C_2
REMARK    2  A    between atoms: C_2  and  C_3
REMARK    3  A    between atoms: C_2  and  C_15
REMARK    4  A    between atoms: C_3  and  N_4
REMARK    5  A    between atoms: N_4  and  C_5
REMARK    6  A    between atoms: C_5  and  C_6
REMARK    7  A    between atoms: C_6  and  C_7
REMARK    8  A    between atoms: C_7  and  O_8
REMARK    9  A    between atoms: O_8  and  C_9
REMARK   10  A    between atoms: C_15  and  O_16
REMARK   11  A    between atoms: O_16  and  C_17
REMARK                            x       y       z     vdW  Elec       q    Type
REMARK                         _______ _______ _______ _____ _____    ______ ____
ROOT
ATOM      1  C   UNL     1       2.807   2.882  21.017  0.00  0.00    +0.000 C 
ENDROOT
BRANCH   1   2
ATOM      2  N   UNL     1       3.615   2.863  19.785  0.00  0.00    +0.000 NA
ATOM      3  H   UNL     1       4.616   2.694  20.042  0.00  0.00    +0.000 HD
BRANCH   2   4
ATOM      4  C   UNL     1       3.165   1.782  18.906  0.00  0.00    +0.000 C 
BRANCH   4   5
ATOM      5  C   UNL     1       2.677   2.331  17.559  0.00  0.00    +0.000 C 
BRANCH   5   6
ATOM      6  C   UNL     1       3.168   3.769  17.405  0.00  0.00    +0.000 C 
BRANCH   6   7
ATOM      7  O   UNL     1       4.425   3.823  16.833  0.00  0.00    +0.000 OA
BRANCH   7   8
ATOM      8  C   UNL     1       5.364   4.754  17.159  0.00  0.00    +0.000 A 
ATOM      9  C   UNL     1       6.487   4.440  17.960  0.00  0.00    +0.000 A 
ATOM     10  C   UNL     1       7.429   5.420  18.274  0.00  0.00    +0.000 A 
ATOM     11  C   UNL     1       7.268   6.723  17.803  0.00  0.00    +0.000 A 
ATOM     12  C   UNL     1       6.160   7.046  17.013  0.00  0.00    +0.000 A 
ATOM     13  C   UNL     1       5.212   6.068  16.692  0.00  0.00    +0.000 A 
ENDBRANCH   7   8
ENDBRANCH   6   7
ENDBRANCH   5   6
ENDBRANCH   4   5
ENDBRANCH   2   4
ENDBRANCH   1   2
BRANCH   1  14
ATOM     14  C   UNL     1       1.882   4.108  21.046  0.00  0.00    +0.000 C 
BRANCH  14  15
ATOM     15  O   UNL     1       0.636   3.772  20.490  0.00  0.00    +0.000 OA
ATOM     16  H   UNL     1       0.700   3.947  19.515  0.00  0.00    +0.000 HD
ENDBRANCH  14  15
BRANCH  14  17
ATOM     17  C   UNL     1       2.488   5.262  20.247  0.00  0.00    +0.000 C 
BRANCH  17  18
ATOM     18  O   UNL     1       1.960   6.468  20.665  0.00  0.00    +0.000 OA
BRANCH  18  19
ATOM     19  C   UNL     1       1.825   7.566  19.878  0.00  0.00    +0.000 A 
ATOM     20  C   UNL     1       2.390   7.642  18.586  0.00  0.00    +0.000 A 
ATOM     21  C   UNL     1       2.235   8.795  17.815  0.00  0.00    +0.000 A 
ATOM     22  C   UNL     1       1.518   9.882  18.318  0.00  0.00    +0.000 A 
ATOM     23  C   UNL     1       0.953   9.817  19.594  0.00  0.00    +0.000 A 
ATOM     24  C   UNL     1       1.105   8.663  20.371  0.00  0.00    +0.000 A 
ENDBRANCH  18  19
ENDBRANCH  17  18
ENDBRANCH  14  17
ENDBRANCH   1  14
TORSDOF 11
ENDMDL
MODEL 6
REMARK VINA RESULT:      -6.1      3.177      6.941
REMARK  Name = 
REMARK  11 active torsions:
REMARK  status: ('A' for Active; 'I' for Inactive)
REMARK    1  A    between atoms: O_1  and  C_2
REMARK    2  A    between atoms: C_2  and  C_3
REMARK    3  A    between atoms: C_2  and  C_15
REMARK    4  A    between atoms: C_3  and  N_4
REMARK    5  A    between atoms: N_4  and  C_5
REMARK    6  A    between atoms: C_5  and  C_6
REMARK    7  A    between atoms: C_6  and  C_7
REMARK    8  A    between atoms: C_7  and  O_8
REMARK    9  A    between atoms: O_8  and  C_9
REMARK   10  A    between atoms: C_15  and  O_16
REMARK   11  A    between atoms: O_16  and  C_17
REMARK                            x       y       z     vdW  Elec       q    Type
REMARK                         _______ _______ _______ _____ _____    ______ ____
ROOT
ATOM      1  C   UNL     1       6.605   7.089  17.138  0.00  0.00    +0.000 C 
ENDROOT
BRANCH   1   2
ATOM      2  N   UNL     1       5.417   6.967  16.275  0.00  0.00    +0.000 NA
ATOM      3  H   UNL     1       5.636   6.306  15.493  0.00  0.00    +0.000 HD
BRANCH   2   4
ATOM      4  C   UNL     1       4.292   6.431  17.043  0.00  0.00    +0.000 C 
BRANCH   4   5
ATOM      5  C   UNL     1       3.663   7.514  17.931  0.00  0.00    +0.000 C 
BRANCH   5   6
ATOM      6  C   UNL     1       2.263   7.065  18.341  0.00  0.00    +0.000 C 
BRANCH   6   7
ATOM      7  O   UNL     1       2.255   6.497  19.602  0.00  0.00    +0.000 OA
BRANCH   7   8
ATOM      8  C   UNL     1       2.044   5.171  19.832  0.00  0.00    +0.000 A 
ATOM      9  C   UNL     1       2.272   4.583  21.097  0.00  0.00    +0.000 A 
ATOM     10  C   UNL     1       2.044   3.220  21.296  0.00  0.00    +0.000 A 
ATOM     11  C   UNL     1       1.592   2.425  20.243  0.00  0.00    +0.000 A 
ATOM     12  C   UNL     1       1.366   2.995  18.987  0.00  0.00    +0.000 A 
ATOM     13  C   UNL     1       1.591   4.361  18.780  0.00  0.00    +0.000 A 
ENDBRANCH   7   8
ENDBRANCH   6   7
ENDBRANCH   5   6
ENDBRANCH   4   5
ENDBRANCH   2   4
ENDBRANCH   1   2
BRANCH   1  14
ATOM     14  C   UNL     1       6.941   5.745  17.801  0.00  0.00    +0.000 C 
BRANCH  14  15
ATOM     15  O   UNL     1       7.924   5.938  18.786  0.00  0.00    +0.000 OA
ATOM     16  H   UNL     1       8.804   5.841  18.338  0.00  0.00    +0.000 HD
ENDBRANCH  14  15
BRANCH  14  17
ATOM     17  C   UNL     1       7.463   4.746  16.767  0.00  0.00    +0.000 C 
BRANCH  17  18
ATOM     18  O   UNL     1       7.571   5.348  15.529  0.00  0.00    +0.000 OA
BRANCH  18  19
ATOM     19  C   UNL     1       7.130   4.803  14.365  0.00  0.00    +0.000 A 
ATOM     20  C   UNL     1       5.999   3.960  14.308  0.00  0.00    +0.000 A 
ATOM     21  C   UNL     1       5.587   3.414  13.092  0.00  0.00    +0.000 A 
ATOM     22  C   UNL     1       6.293   3.699  11.921  0.00  0.00    +0.000 A 
ATOM     23  C   UNL     1       7.413   4.534  11.966  0.00  0.00    +0.000 A 
ATOM     24  C   UNL     1       7.829   5.085  13.183  0.00  0.00    +0.000 A 
ENDBRANCH  18  19
ENDBRANCH  17  18
ENDBRANCH  14  17
ENDBRANCH   1  14
TORSDOF 11
ENDMDL
MODEL 7
REMARK VINA RESULT:      -6.1      4.184      6.746
REMARK  Name = 
REMARK  11 active torsions:
REMARK  status: ('A' for Active; 'I' for Inactive)
REMARK    1  A    between atoms: O_1  and  C_2
REMARK    2  A    between atoms: C_2  and  C_3
REMARK    3  A    between atoms: C_2  and  C_15
REMARK    4  A    between atoms: C_3  and  N_4
REMARK    5  A    between atoms: N_4  and  C_5
REMARK    6  A    between atoms: C_5  and  C_6
REMARK    7  A    between atoms: C_6  and  C_7
REMARK    8  A    between atoms: C_7  and  O_8
REMARK    9  A    between atoms: O_8  and  C_9
REMARK   10  A    between atoms: C_15  and  O_16
REMARK   11  A    between atoms: O_16  and  C_17
REMARK                            x       y       z     vdW  Elec       q    Type
REMARK                         _______ _______ _______ _____ _____    ______ ____
ROOT
ATOM      1  C   UNL     1       7.307   5.245  17.081  0.00  0.00    +0.000 C 
ENDROOT
BRANCH   1   2
ATOM      2  N   UNL     1       6.967   6.677  17.020  0.00  0.00    +0.000 NA
ATOM      3  H   UNL     1       5.970   6.800  17.317  0.00  0.00    +0.000 HD
BRANCH   2   4
ATOM      4  C   UNL     1       7.827   7.437  17.930  0.00  0.00    +0.000 C 
BRANCH   4   5
ATOM      5  C   UNL     1       7.678   8.946  17.700  0.00  0.00    +0.000 C 
BRANCH   5   6
ATOM      6  C   UNL     1       8.708   9.680  18.556  0.00  0.00    +0.000 C 
BRANCH   6   7
ATOM      7  O   UNL     1       9.501  10.519  17.795  0.00  0.00    +0.000 OA
BRANCH   7   8
ATOM      8  C   UNL     1      10.406  11.388  18.326  0.00  0.00    +0.000 A 
ATOM      9  C   UNL     1      11.254  12.178  17.514  0.00  0.00    +0.000 A 
ATOM     10  C   UNL     1      12.169  13.058  18.093  0.00  0.00    +0.000 A 
ATOM     11  C   UNL     1      12.257  13.164  19.481  0.00  0.00    +0.000 A 
ATOM     12  C   UNL     1      11.427  12.386  20.293  0.00  0.00    +0.000 A 
ATOM     13  C   UNL     1      10.505  11.502  19.720  0.00  0.00    +0.000 A 
ENDBRANCH   7   8
ENDBRANCH   6   7
ENDBRANCH   5   6
ENDBRANCH   4   5
ENDBRANCH   2   4
ENDBRANCH   1   2
BRANCH   1  14
ATOM     14  C   UNL     1       6.916   4.533  15.777  0.00  0.00    +0.000 C 
BRANCH  14  15
ATOM     15  O   UNL     1       6.771   5.480  14.749  0.00  0.00    +0.000 OA
ATOM     16  H   UNL     1       6.992   6.365  15.140  0.00  0.00    +0.000 HD
ENDBRANCH  14  15
BRANCH  14  17
ATOM     17  C   UNL     1       5.597   3.778  15.947  0.00  0.00    +0.000 C 
BRANCH  17  18
ATOM     18  O   UNL     1       5.106   3.948  17.227  0.00  0.00    +0.000 OA
BRANCH  18  19
ATOM     19  C   UNL     1       3.837   3.652  17.612  0.00  0.00    +0.000 A 
ATOM     20  C   UNL     1       2.799   4.608  17.586  0.00  0.00    +0.000 A 
ATOM     21  C   UNL     1       1.512   4.262  18.000  0.00  0.00    +0.000 A 
ATOM     22  C   UNL     1       1.244   2.966  18.444  0.00  0.00    +0.000 A 
ATOM     23  C   UNL     1       2.264   2.012  18.473  0.00  0.00    +0.000 A 
ATOM     24  C   UNL     1       3.555   2.353  18.057  0.00  0.00    +0.000 A 
ENDBRANCH  18  19
ENDBRANCH  17  18
ENDBRANCH  14  17
ENDBRANCH   1  14
TORSDOF 11
ENDMDL
MODEL 8
REMARK VINA RESULT:      -6.1      3.643      7.291
REMARK  Name = 
REMARK  11 active torsions:
REMARK  status: ('A' for Active; 'I' for Inactive)
REMARK    1  A    between atoms: O_1  and  C_2
REMARK    2  A    between atoms: C_2  and  C_3
REMARK    3  A    between atoms: C_2  and  C_15
REMARK    4  A    between atoms: C_3  and  N_4
REMARK    5  A    between atoms: N_4  and  C_5
REMARK    6  A    between atoms: C_5  and  C_6
REMARK    7  A    between atoms: C_6  and  C_7
REMARK    8  A    between atoms: C_7  and  O_8
REMARK    9  A    between atoms: O_8  and  C_9
REMARK   10  A    between atoms: C_15  and  O_16
REMARK   11  A    between atoms: O_16  and  C_17
REMARK                            x       y       z     vdW  Elec       q    Type
REMARK                         _______ _______ _______ _____ _____    ______ ____
ROOT
ATOM      1  C   UNL     1       6.410   7.357  17.505  0.00  0.00    +0.000 C 
ENDROOT
BRANCH   1   2
ATOM      2  N   UNL     1       6.187   6.684  16.214  0.00  0.00    +0.000 NA
ATOM      3  H   UNL     1       7.080   6.229  15.911  0.00  0.00    +0.000 HD
BRANCH   2   4
ATOM      4  C   UNL     1       5.158   5.653  16.356  0.00  0.00    +0.000 C 
BRANCH   4   5
ATOM      5  C   UNL     1       4.787   5.441  17.830  0.00  0.00    +0.000 C 
BRANCH   5   6
ATOM      6  C   UNL     1       5.354   4.102  18.296  0.00  0.00    +0.000 C 
BRANCH   6   7
ATOM      7  O   UNL     1       4.707   3.636  19.424  0.00  0.00    +0.000 OA
BRANCH   7   8
ATOM      8  C   UNL     1       3.360   3.441  19.496  0.00  0.00    +0.000 A 
ATOM      9  C   UNL     1       2.564   4.061  20.487  0.00  0.00    +0.000 A 
ATOM     10  C   UNL     1       1.187   3.838  20.530  0.00  0.00    +0.000 A 
ATOM     11  C   UNL     1       0.584   2.998  19.594  0.00  0.00    +0.000 A 
ATOM     12  C   UNL     1       1.361   2.377  18.612  0.00  0.00    +0.000 A 
ATOM     13  C   UNL     1       2.743   2.597  18.562  0.00  0.00    +0.000 A 
ENDBRANCH   7   8
ENDBRANCH   6   7
ENDBRANCH   5   6
ENDBRANCH   4   5
ENDBRANCH   2   4
ENDBRANCH   1   2
BRANCH   1  14
ATOM     14  C   UNL     1       7.897   7.695  17.696  0.00  0.00    +0.000 C 
BRANCH  14  15
ATOM     15  O   UNL     1       8.361   7.118  18.889  0.00  0.00    +0.000 OA
ATOM     16  H   UNL     1       8.149   6.149  18.843  0.00  0.00    +0.000 HD
ENDBRANCH  14  15
BRANCH  14  17
ATOM     17  C   UNL     1       8.104   9.208  17.762  0.00  0.00    +0.000 C 
BRANCH  17  18
ATOM     18  O   UNL     1       8.715   9.560  18.949  0.00  0.00    +0.000 OA
BRANCH  18  19
ATOM     19  C   UNL     1       9.605  10.576  19.088  0.00  0.00    +0.000 A 
ATOM     20  C   UNL     1      10.297  11.128  17.988  0.00  0.00    +0.000 A 
ATOM     21  C   UNL     1      11.210  12.166  18.178  0.00  0.00    +0.000 A 
ATOM     22  C   UNL     1      11.445  12.665  19.461  0.00  0.00    +0.000 A 
ATOM     23  C   UNL     1      10.765  12.127  20.556  0.00  0.00    +0.000 A 
ATOM     24  C   UNL     1       9.847  11.088  20.370  0.00  0.00    +0.000 A 
ENDBRANCH  18  19
ENDBRANCH  17  18
ENDBRANCH  14  17
ENDBRANCH   1  14
TORSDOF 11
ENDMDL
MODEL 9
REMARK VINA RESULT:      -6.1      2.979      6.238
REMARK  Name = 
REMARK  11 active torsions:
REMARK  status: ('A' for Active; 'I' for Inactive)
REMARK    1  A    between atoms: O_1  and  C_2
REMARK    2  A    between atoms: C_2  and  C_3
REMARK    3  A    between atoms: C_2  and  C_15
REMARK    4  A    between atoms: C_3  and  N_4
REMARK    5  A    between atoms: N_4  and  C_5
REMARK    6  A    between atoms: C_5  and  C_6
REMARK    7  A    between atoms: C_6  and  C_7
REMARK    8  A    between atoms: C_7  and  O_8
REMARK    9  A    between atoms: O_8  and  C_9
REMARK   10  A    between atoms: C_15  and  O_16
REMARK   11  A    between atoms: O_16  and  C_17
REMARK                            x       y       z     vdW  Elec       q    Type
REMARK                         _______ _______ _______ _____ _____    ______ ____
ROOT
ATOM      1  C   UNL     1       5.110   3.507  17.760  0.00  0.00    +0.000 C 
ENDROOT
BRANCH   1   2
ATOM      2  N   UNL     1       5.100   3.321  19.221  0.00  0.00    +0.000 NA
ATOM      3  H   UNL     1       4.616   4.139  19.662  0.00  0.00    +0.000 HD
BRANCH   2   4
ATOM      4  C   UNL     1       4.369   2.100  19.566  0.00  0.00    +0.000 C 
BRANCH   4   5
ATOM      5  C   UNL     1       3.336   1.750  18.488  0.00  0.00    +0.000 C 
BRANCH   5   6
ATOM      6  C   UNL     1       1.935   1.909  19.075  0.00  0.00    +0.000 C 
BRANCH   6   7
ATOM      7  O   UNL     1       1.299   3.034  18.585  0.00  0.00    +0.000 OA
BRANCH   7   8
ATOM      8  C   UNL     1       1.627   4.306  18.948  0.00  0.00    +0.000 A 
ATOM      9  C   UNL     1       1.538   4.751  20.288  0.00  0.00    +0.000 A 
ATOM     10  C   UNL     1       1.883   6.061  20.622  0.00  0.00    +0.000 A 
ATOM     11  C   UNL     1       2.317   6.946  19.635  0.00  0.00    +0.000 A 
ATOM     12  C   UNL     1       2.406   6.518  18.307  0.00  0.00    +0.000 A 
ATOM     13  C   UNL     1       2.063   5.204  17.964  0.00  0.00    +0.000 A 
ENDBRANCH   7   8
ENDBRANCH   6   7
ENDBRANCH   5   6
ENDBRANCH   4   5
ENDBRANCH   2   4
ENDBRANCH   1   2
BRANCH   1  14
ATOM     14  C   UNL     1       6.408   4.190  17.304  0.00  0.00    +0.000 C 
BRANCH  14  15
ATOM     15  O   UNL     1       7.264   4.358  18.406  0.00  0.00    +0.000 OA
ATOM     16  H   UNL     1       6.704   4.274  19.221  0.00  0.00    +0.000 HD
ENDBRANCH  14  15
BRANCH  14  17
ATOM     17  C   UNL     1       6.113   5.560  16.692  0.00  0.00    +0.000 C 
BRANCH  17  18
ATOM     18  O   UNL     1       6.836   5.733  15.528  0.00  0.00    +0.000 OA
BRANCH  18  19
ATOM     19  C   UNL     1       6.654   5.012  14.391  0.00  0.00    +0.000 A 
ATOM     20  C   UNL     1       7.620   4.969  13.363  0.00  0.00    +0.000 A 
ATOM     21  C   UNL     1       7.386   4.222  12.207  0.00  0.00    +0.000 A 
ATOM     22  C   UNL     1       6.193   3.511  12.062  0.00  0.00    +0.000 A 
ATOM     23  C   UNL     1       5.232   3.545  13.076  0.00  0.00    +0.000 A 
ATOM     24  C   UNL     1       5.462   4.292  14.236  0.00  0.00    +0.000 A 
ENDBRANCH  18  19
ENDBRANCH  17  18
ENDBRANCH  14  17
ENDBRANCH   1  14
TORSDOF 11
ENDMDL
