MODEL 1
REMARK VINA RESULT:      -7.7      0.000      0.000
REMARK  Name = 
REMARK  11 active torsions:
REMARK  status: ('A' for Active; 'I' for Inactive)
REMARK    1  A    between atoms: C_1  and  C_2
REMARK    2  A    between atoms: C_2  and  N_3
REMARK    3  A    between atoms: C_2  and  C_17
REMARK    4  A    between atoms: C_4  and  C_6
REMARK    5  A    between atoms: C_6  and  C_7
REMARK    6  A    between atoms: C_6  and  C_8
REMARK    7  A    between atoms: C_6  and  O_9
REMARK    8  A    between atoms: O_9  and  C_10
REMARK    9  A    between atoms: C_17  and  C_18
REMARK   10  A    between atoms: C_17  and  C_26
REMARK   11  A    between atoms: C_18  and  C_19
REMARK                            x       y       z     vdW  Elec       q    Type
REMARK                         _______ _______ _______ _____ _____    ______ ____
ROOT
ATOM      1  C   UNL     1       1.595   5.674  20.667  0.00  0.00    +0.000 C 
ATOM      2  C   UNL     1       2.518   6.578  19.829  0.00  0.00    +0.000 C 
ENDROOT
BRANCH   2   3
ATOM      3  N   UNL     1       1.710   7.785  19.529  0.00  0.00    +0.000 N 
ATOM      4  C   UNL     1       1.342   8.783  20.411  0.00  0.00    +0.000 C 
ATOM      5  O   UNL     1       1.480   8.641  21.628  0.00  0.00    +0.000 OA
ATOM      6  H   UNL     1       1.739   8.042  18.552  0.00  0.00    +0.000 HD
BRANCH   4   7
ATOM      7  C   UNL     1       0.763  10.118  19.795  0.00  0.00    +0.000 C 
ATOM      8  C   UNL     1       1.567  10.450  18.510  0.00  0.00    +0.000 C 
ATOM      9  C   UNL     1      -0.694   9.964  19.292  0.00  0.00    +0.000 C 
BRANCH   7  10
ATOM     10  O   UNL     1       0.885  11.249  20.682  0.00  0.00    +0.000 OA
BRANCH  10  11
ATOM     11  C   UNL     1      -0.196  11.724  21.399  0.00  0.00    +0.000 A 
ATOM     12  C   UNL     1      -0.768  11.088  22.505  0.00  0.00    +0.000 A 
ATOM     13  C   UNL     1      -1.864  11.620  23.194  0.00  0.00    +0.000 A 
ATOM     14  C   UNL     1      -2.425  12.817  22.778  0.00  0.00    +0.000 A 
ATOM     15  C   UNL     1      -1.891  13.471  21.665  0.00  0.00    +0.000 A 
ATOM     16  C   UNL     1      -0.787  12.931  20.985  0.00  0.00    +0.000 A 
ATOM     17 CL   UNL     1      -0.211  13.796  19.602  0.00  0.00    +0.000 Cl
ENDBRANCH  10  11
ENDBRANCH   7  10
ENDBRANCH   4   7
ENDBRANCH   2   3
BRANCH   2  18
ATOM     18  C   UNL     1       3.228   5.847  18.626  0.00  0.00    +0.000 C 
BRANCH  18  19
ATOM     19  C   UNL     1       3.246   4.301  18.655  0.00  0.00    +0.000 A 
ATOM     20  C   UNL     1       4.044   3.541  19.522  0.00  0.00    +0.000 A 
ATOM     21  C   UNL     1       4.061   2.144  19.457  0.00  0.00    +0.000 A 
ATOM     22  C   UNL     1       3.340   1.478  18.472  0.00  0.00    +0.000 A 
ATOM     23  C   UNL     1       2.556   2.206  17.586  0.00  0.00    +0.000 A 
ATOM     24  C   UNL     1       2.475   3.596  17.705  0.00  0.00    +0.000 A 
ENDBRANCH  18  19
BRANCH  18  25
ATOM     25  C   UNL     1       4.689   6.362  18.381  0.00  0.00    +0.000 C 
BRANCH  25  26
ATOM     26  C   UNL     1       5.358   5.890  17.112  0.00  0.00    +0.000 A 
ATOM     27  C   UNL     1       4.902   6.327  15.858  0.00  0.00    +0.000 A 
ATOM     28  C   UNL     1       5.490   5.848  14.688  0.00  0.00    +0.000 A 
ATOM     29  C   UNL     1       6.557   4.960  14.760  0.00  0.00    +0.000 A 
ATOM     30 CL   UNL     1       7.271   4.358  13.322  0.00  0.00    +0.000 Cl
ATOM     31  C   UNL     1       7.042   4.550  16.002  0.00  0.00    +0.000 A 
ATOM     32  C   UNL     1       6.438   5.008  17.176  0.00  0.00    +0.000 A 
ENDBRANCH  25  26
ENDBRANCH  18  25
ENDBRANCH   2  18
TORSDOF 8
ENDMDL
MODEL 2
REMARK VINA RESULT:      -7.4      1.562      2.035
REMARK  Name = 
REMARK  11 active torsions:
REMARK  status: ('A' for Active; 'I' for Inactive)
REMARK    1  A    between atoms: C_1  and  C_2
REMARK    2  A    between atoms: C_2  and  N_3
REMARK    3  A    between atoms: C_2  and  C_17
REMARK    4  A    between atoms: C_4  and  C_6
REMARK    5  A    between atoms: C_6  and  C_7
REMARK    6  A    between atoms: C_6  and  C_8
REMARK    7  A    between atoms: C_6  and  O_9
REMARK    8  A    between atoms: O_9  and  C_10
REMARK    9  A    between atoms: C_17  and  C_18
REMARK   10  A    between atoms: C_17  and  C_26
REMARK   11  A    between atoms: C_18  and  C_19
REMARK                            x       y       z     vdW  Elec       q    Type
REMARK                         _______ _______ _______ _____ _____    ______ ____
ROOT
ATOM      1  C   UNL     1       3.196   8.099  17.515  0.00  0.00    +0.000 C 
ATOM      2  C   UNL     1       2.308   7.121  18.307  0.00  0.00    +0.000 C 
ENDROOT
BRANCH   2   3
ATOM      3  N   UNL     1       1.983   7.830  19.568  0.00  0.00    +0.000 N 
ATOM      4  C   UNL     1       1.270   9.006  19.704  0.00  0.00    +0.000 C 
ATOM      5  O   UNL     1       1.015   9.713  18.727  0.00  0.00    +0.000 OA
ATOM      6  H   UNL     1       1.993   7.219  20.374  0.00  0.00    +0.000 HD
BRANCH   4   7
ATOM      7  C   UNL     1       0.776   9.391  21.155  0.00  0.00    +0.000 C 
ATOM      8  C   UNL     1      -0.599   8.714  21.396  0.00  0.00    +0.000 C 
ATOM      9  C   UNL     1       1.678   8.806  22.271  0.00  0.00    +0.000 C 
BRANCH   7  10
ATOM     10  O   UNL     1       0.592  10.811  21.332  0.00  0.00    +0.000 OA
BRANCH  10  11
ATOM     11  C   UNL     1      -0.614  11.336  21.751  0.00  0.00    +0.000 A 
ATOM     12  C   UNL     1      -1.148  11.196  23.037  0.00  0.00    +0.000 A 
ATOM     13  C   UNL     1      -2.377  11.754  23.405  0.00  0.00    +0.000 A 
ATOM     14  C   UNL     1      -3.114  12.471  22.477  0.00  0.00    +0.000 A 
ATOM     15  C   UNL     1      -2.620  12.616  21.178  0.00  0.00    +0.000 A 
ATOM     16  C   UNL     1      -1.383  12.057  20.820  0.00  0.00    +0.000 A 
ATOM     17 CL   UNL     1      -0.865  12.265  19.184  0.00  0.00    +0.000 Cl
ENDBRANCH  10  11
ENDBRANCH   7  10
ENDBRANCH   4   7
ENDBRANCH   2   3
BRANCH   2  18
ATOM     18  C   UNL     1       2.884   5.657  18.410  0.00  0.00    +0.000 C 
BRANCH  18  19
ATOM     19  C   UNL     1       2.262   4.730  19.479  0.00  0.00    +0.000 A 
ATOM     20  C   UNL     1       2.723   4.636  20.800  0.00  0.00    +0.000 A 
ATOM     21  C   UNL     1       2.157   3.732  21.705  0.00  0.00    +0.000 A 
ATOM     22  C   UNL     1       1.168   2.847  21.288  0.00  0.00    +0.000 A 
ATOM     23  C   UNL     1       0.705   2.904  19.980  0.00  0.00    +0.000 A 
ATOM     24  C   UNL     1       1.214   3.864  19.100  0.00  0.00    +0.000 A 
ENDBRANCH  18  19
BRANCH  18  25
ATOM     25  C   UNL     1       4.444   5.629  18.566  0.00  0.00    +0.000 C 
BRANCH  25  26
ATOM     26  C   UNL     1       5.238   5.454  17.294  0.00  0.00    +0.000 A 
ATOM     27  C   UNL     1       4.721   4.706  16.225  0.00  0.00    +0.000 A 
ATOM     28  C   UNL     1       5.480   4.505  15.072  0.00  0.00    +0.000 A 
ATOM     29  C   UNL     1       6.742   5.076  14.963  0.00  0.00    +0.000 A 
ATOM     30 CL   UNL     1       7.683   4.817  13.553  0.00  0.00    +0.000 Cl
ATOM     31  C   UNL     1       7.249   5.854  16.004  0.00  0.00    +0.000 A 
ATOM     32  C   UNL     1       6.501   6.036  17.170  0.00  0.00    +0.000 A 
ENDBRANCH  25  26
ENDBRANCH  18  25
ENDBRANCH   2  18
TORSDOF 8
ENDMDL
MODEL 3
REMARK VINA RESULT:      -7.4      1.772      2.719
REMARK  Name = 
REMARK  11 active torsions:
REMARK  status: ('A' for Active; 'I' for Inactive)
REMARK    1  A    between atoms: C_1  and  C_2
REMARK    2  A    between atoms: C_2  and  N_3
REMARK    3  A    between atoms: C_2  and  C_17
REMARK    4  A    between atoms: C_4  and  C_6
REMARK    5  A    between atoms: C_6  and  C_7
REMARK    6  A    between atoms: C_6  and  C_8
REMARK    7  A    between atoms: C_6  and  O_9
REMARK    8  A    between atoms: O_9  and  C_10
REMARK    9  A    between atoms: C_17  and  C_18
REMARK   10  A    between atoms: C_17  and  C_26
REMARK   11  A    between atoms: C_18  and  C_19
REMARK                            x       y       z     vdW  Elec       q    Type
REMARK                         _______ _______ _______ _____ _____    ______ ____
ROOT
ATOM      1  C   UNL     1       1.221   5.695  20.869  0.00  0.00    +0.000 C 
ATOM      2  C   UNL     1       2.424   6.516  20.368  0.00  0.00    +0.000 C 
ENDROOT
BRANCH   2   3
ATOM      3  N   UNL     1       1.959   7.925  20.373  0.00  0.00    +0.000 N 
ATOM      4  C   UNL     1       1.494   8.653  19.295  0.00  0.00    +0.000 C 
ATOM      5  O   UNL     1       1.633   8.243  18.141  0.00  0.00    +0.000 OA
ATOM      6  H   UNL     1       1.649   8.230  21.285  0.00  0.00    +0.000 HD
BRANCH   4   7
ATOM      7  C   UNL     1       0.757  10.016  19.605  0.00  0.00    +0.000 C 
ATOM      8  C   UNL     1       1.231  10.522  20.993  0.00  0.00    +0.000 C 
ATOM      9  C   UNL     1       1.166  11.153  18.635  0.00  0.00    +0.000 C 
BRANCH   7  10
ATOM     10  O   UNL     1      -0.679   9.881  19.664  0.00  0.00    +0.000 OA
BRANCH  10  11
ATOM     11  C   UNL     1      -1.482  10.251  18.603  0.00  0.00    +0.000 A 
ATOM     12  C   UNL     1      -1.507   9.618  17.355  0.00  0.00    +0.000 A 
ATOM     13  C   UNL     1      -2.347  10.037  16.318  0.00  0.00    +0.000 A 
ATOM     14  C   UNL     1      -3.188  11.121  16.506  0.00  0.00    +0.000 A 
ATOM     15  C   UNL     1      -3.177  11.789  17.733  0.00  0.00    +0.000 A 
ATOM     16  C   UNL     1      -2.335  11.357  18.771  0.00  0.00    +0.000 A 
ATOM     17 CL   UNL     1      -2.368  12.261  20.244  0.00  0.00    +0.000 Cl
ENDBRANCH  10  11
ENDBRANCH   7  10
ENDBRANCH   4   7
ENDBRANCH   2   3
BRANCH   2  18
ATOM     18  C   UNL     1       3.086   5.961  19.049  0.00  0.00    +0.000 C 
BRANCH  18  19
ATOM     19  C   UNL     1       3.081   4.428  18.851  0.00  0.00    +0.000 A 
ATOM     20  C   UNL     1       3.805   3.531  19.650  0.00  0.00    +0.000 A 
ATOM     21  C   UNL     1       3.809   2.158  19.381  0.00  0.00    +0.000 A 
ATOM     22  C   UNL     1       3.151   1.660  18.261  0.00  0.00    +0.000 A 
ATOM     23  C   UNL     1       2.441   2.528  17.440  0.00  0.00    +0.000 A 
ATOM     24  C   UNL     1       2.370   3.887  17.757  0.00  0.00    +0.000 A 
ENDBRANCH  18  19
BRANCH  18  25
ATOM     25  C   UNL     1       4.547   6.491  18.835  0.00  0.00    +0.000 C 
BRANCH  25  26
ATOM     26  C   UNL     1       5.245   6.032  17.578  0.00  0.00    +0.000 A 
ATOM     27  C   UNL     1       6.376   5.204  17.649  0.00  0.00    +0.000 A 
ATOM     28  C   UNL     1       7.047   4.825  16.486  0.00  0.00    +0.000 A 
ATOM     29  C   UNL     1       6.576   5.241  15.246  0.00  0.00    +0.000 A 
ATOM     30 CL   UNL     1       7.410   4.789  13.817  0.00  0.00    +0.000 Cl
ATOM     31  C   UNL     1       5.431   6.032  15.163  0.00  0.00    +0.000 A 
ATOM     32  C   UNL     1       4.772   6.434  16.327  0.00  0.00    +0.000 A 
ENDBRANCH  25  26
ENDBRANCH  18  25
ENDBRANCH   2  18
TORSDOF 8
ENDMDL
MODEL 4
REMARK VINA RESULT:      -7.4      0.784      1.402
REMARK  Name = 
REMARK  11 active torsions:
REMARK  status: ('A' for Active; 'I' for Inactive)
REMARK    1  A    between atoms: C_1  and  C_2
REMARK    2  A    between atoms: C_2  and  N_3
REMARK    3  A    between atoms: C_2  and  C_17
REMARK    4  A    between atoms: C_4  and  C_6
REMARK    5  A    between atoms: C_6  and  C_7
REMARK    6  A    between atoms: C_6  and  C_8
REMARK    7  A    between atoms: C_6  and  O_9
REMARK    8  A    between atoms: O_9  and  C_10
REMARK    9  A    between atoms: C_17  and  C_18
REMARK   10  A    between atoms: C_17  and  C_26
REMARK   11  A    between atoms: C_18  and  C_19
REMARK                            x       y       z     vdW  Elec       q    Type
REMARK                         _______ _______ _______ _____ _____    ______ ____
ROOT
ATOM      1  C   UNL     1       1.674   6.297  20.896  0.00  0.00    +0.000 C 
ATOM      2  C   UNL     1       2.501   6.975  19.788  0.00  0.00    +0.000 C 
ENDROOT
BRANCH   2   3
ATOM      3  N   UNL     1       1.719   8.175  19.401  0.00  0.00    +0.000 N 
ATOM      4  C   UNL     1       1.242   9.165  20.238  0.00  0.00    +0.000 C 
ATOM      5  O   UNL     1       1.242   9.020  21.463  0.00  0.00    +0.000 OA
ATOM      6  H   UNL     1       1.857   8.436  18.434  0.00  0.00    +0.000 HD
BRANCH   4   7
ATOM      7  C   UNL     1       0.724  10.497  19.564  0.00  0.00    +0.000 C 
ATOM      8  C   UNL     1       1.628  10.808  18.342  0.00  0.00    +0.000 C 
ATOM      9  C   UNL     1      -0.691  10.347  18.951  0.00  0.00    +0.000 C 
BRANCH   7  10
ATOM     10  O   UNL     1       0.785  11.638  20.445  0.00  0.00    +0.000 OA
BRANCH  10  11
ATOM     11  C   UNL     1      -0.329  12.080  21.132  0.00  0.00    +0.000 A 
ATOM     12  C   UNL     1      -0.842  11.494  22.293  0.00  0.00    +0.000 A 
ATOM     13  C   UNL     1      -1.975  11.990  22.947  0.00  0.00    +0.000 A 
ATOM     14  C   UNL     1      -2.634  13.097  22.440  0.00  0.00    +0.000 A 
ATOM     15  C   UNL     1      -2.160  13.698  21.272  0.00  0.00    +0.000 A 
ATOM     16  C   UNL     1      -1.019  13.197  20.626  0.00  0.00    +0.000 A 
ATOM     17 CL   UNL     1      -0.522  13.987  19.171  0.00  0.00    +0.000 Cl
ENDBRANCH  10  11
ENDBRANCH   7  10
ENDBRANCH   4   7
ENDBRANCH   2   3
BRANCH   2  18
ATOM     18  C   UNL     1       2.975   6.001  18.642  0.00  0.00    +0.000 C 
BRANCH  18  19
ATOM     19  C   UNL     1       2.567   4.515  18.769  0.00  0.00    +0.000 A 
ATOM     20  C   UNL     1       1.435   3.958  18.156  0.00  0.00    +0.000 A 
ATOM     21  C   UNL     1       1.084   2.619  18.360  0.00  0.00    +0.000 A 
ATOM     22  C   UNL     1       1.813   1.828  19.242  0.00  0.00    +0.000 A 
ATOM     23  C   UNL     1       2.928   2.360  19.878  0.00  0.00    +0.000 A 
ATOM     24  C   UNL     1       3.326   3.672  19.609  0.00  0.00    +0.000 A 
ENDBRANCH  18  19
BRANCH  18  25
ATOM     25  C   UNL     1       4.520   6.079  18.383  0.00  0.00    +0.000 C 
BRANCH  25  26
ATOM     26  C   UNL     1       5.002   5.532  17.061  0.00  0.00    +0.000 A 
ATOM     27  C   UNL     1       5.451   4.206  16.956  0.00  0.00    +0.000 A 
ATOM     28  C   UNL     1       5.943   3.722  15.744  0.00  0.00    +0.000 A 
ATOM     29  C   UNL     1       5.957   4.543  14.623  0.00  0.00    +0.000 A 
ATOM     30 CL   UNL     1       6.577   3.954  13.136  0.00  0.00    +0.000 Cl
ATOM     31  C   UNL     1       5.477   5.849  14.707  0.00  0.00    +0.000 A 
ATOM     32  C   UNL     1       5.008   6.345  15.926  0.00  0.00    +0.000 A 
ENDBRANCH  25  26
ENDBRANCH  18  25
ENDBRANCH   2  18
TORSDOF 8
ENDMDL
MODEL 5
REMARK VINA RESULT:      -7.3      2.948      9.020
REMARK  Name = 
REMARK  11 active torsions:
REMARK  status: ('A' for Active; 'I' for Inactive)
REMARK    1  A    between atoms: C_1  and  C_2
REMARK    2  A    between atoms: C_2  and  N_3
REMARK    3  A    between atoms: C_2  and  C_17
REMARK    4  A    between atoms: C_4  and  C_6
REMARK    5  A    between atoms: C_6  and  C_7
REMARK    6  A    between atoms: C_6  and  C_8
REMARK    7  A    between atoms: C_6  and  O_9
REMARK    8  A    between atoms: O_9  and  C_10
REMARK    9  A    between atoms: C_17  and  C_18
REMARK   10  A    between atoms: C_17  and  C_26
REMARK   11  A    between atoms: C_18  and  C_19
REMARK                            x       y       z     vdW  Elec       q    Type
REMARK                         _______ _______ _______ _____ _____    ______ ____
ROOT
ATOM      1  C   UNL     1      -0.856   9.918  17.905  0.00  0.00    +0.000 C 
ATOM      2  C   UNL     1       0.644  10.016  18.240  0.00  0.00    +0.000 C 
ENDROOT
BRANCH   2   3
ATOM      3  N   UNL     1       1.111   8.612  18.338  0.00  0.00    +0.000 N 
ATOM      4  C   UNL     1       2.369   8.129  18.036  0.00  0.00    +0.000 C 
ATOM      5  O   UNL     1       3.189   8.820  17.428  0.00  0.00    +0.000 OA
ATOM      6  H   UNL     1       0.566   8.064  18.990  0.00  0.00    +0.000 HD
BRANCH   4   7
ATOM      7  C   UNL     1       2.721   6.668  18.525  0.00  0.00    +0.000 C 
ATOM      8  C   UNL     1       2.292   6.534  20.010  0.00  0.00    +0.000 C 
ATOM      9  C   UNL     1       1.893   5.577  17.799  0.00  0.00    +0.000 C 
BRANCH   7  10
ATOM     10  O   UNL     1       4.132   6.374  18.457  0.00  0.00    +0.000 OA
BRANCH  10  11
ATOM     11  C   UNL     1       4.682   5.718  17.372  0.00  0.00    +0.000 A 
ATOM     12  C   UNL     1       4.985   6.314  16.143  0.00  0.00    +0.000 A 
ATOM     13  C   UNL     1       5.544   5.597  15.080  0.00  0.00    +0.000 A 
ATOM     14  C   UNL     1       5.809   4.245  15.222  0.00  0.00    +0.000 A 
ATOM     15  C   UNL     1       5.502   3.613  16.429  0.00  0.00    +0.000 A 
ATOM     16  C   UNL     1       4.947   4.342  17.494  0.00  0.00    +0.000 A 
ATOM     17 CL   UNL     1       4.574   3.471  18.940  0.00  0.00    +0.000 Cl
ENDBRANCH  10  11
ENDBRANCH   7  10
ENDBRANCH   4   7
ENDBRANCH   2   3
BRANCH   2  18
ATOM     18  C   UNL     1       0.981  10.992  19.433  0.00  0.00    +0.000 C 
BRANCH  18  19
ATOM     19  C   UNL     1       0.218  10.772  20.759  0.00  0.00    +0.000 A 
ATOM     20  C   UNL     1      -0.674  11.701  21.314  0.00  0.00    +0.000 A 
ATOM     21  C   UNL     1      -1.287  11.471  22.550  0.00  0.00    +0.000 A 
ATOM     22  C   UNL     1      -0.965  10.341  23.295  0.00  0.00    +0.000 A 
ATOM     23  C   UNL     1      -0.070   9.412  22.778  0.00  0.00    +0.000 A 
ATOM     24  C   UNL     1       0.479   9.604  21.507  0.00  0.00    +0.000 A 
ENDBRANCH  18  19
BRANCH  18  25
ATOM     25  C   UNL     1       0.867  12.503  19.030  0.00  0.00    +0.000 C 
BRANCH  25  26
ATOM     26  C   UNL     1       2.095  13.349  19.262  0.00  0.00    +0.000 A 
ATOM     27  C   UNL     1       2.836  13.847  18.178  0.00  0.00    +0.000 A 
ATOM     28  C   UNL     1       3.998  14.585  18.398  0.00  0.00    +0.000 A 
ATOM     29  C   UNL     1       4.411  14.860  19.697  0.00  0.00    +0.000 A 
ATOM     30 CL   UNL     1       5.849  15.754  19.969  0.00  0.00    +0.000 Cl
ATOM     31  C   UNL     1       3.661  14.403  20.780  0.00  0.00    +0.000 A 
ATOM     32  C   UNL     1       2.510  13.642  20.562  0.00  0.00    +0.000 A 
ENDBRANCH  25  26
ENDBRANCH  18  25
ENDBRANCH   2  18
TORSDOF 8
ENDMDL
MODEL 6
REMARK VINA RESULT:      -7.2      3.050      9.086
REMARK  Name = 
REMARK  11 active torsions:
REMARK  status: ('A' for Active; 'I' for Inactive)
REMARK    1  A    between atoms: C_1  and  C_2
REMARK    2  A    between atoms: C_2  and  N_3
REMARK    3  A    between atoms: C_2  and  C_17
REMARK    4  A    between atoms: C_4  and  C_6
REMARK    5  A    between atoms: C_6  and  C_7
REMARK    6  A    between atoms: C_6  and  C_8
REMARK    7  A    between atoms: C_6  and  O_9
REMARK    8  A    between atoms: O_9  and  C_10
REMARK    9  A    between atoms: C_17  and  C_18
REMARK   10  A    between atoms: C_17  and  C_26
REMARK   11  A    between atoms: C_18  and  C_19
REMARK                            x       y       z     vdW  Elec       q    Type
REMARK                         _______ _______ _______ _____ _____    ______ ____
ROOT
ATOM      1  C   UNL     1       1.156   9.535  21.916  0.00  0.00    +0.000 C 
ATOM      2  C   UNL     1       0.660   9.452  20.461  0.00  0.00    +0.000 C 
ENDROOT
BRANCH   2   3
ATOM      3  N   UNL     1       1.661   8.614  19.758  0.00  0.00    +0.000 N 
ATOM      4  C   UNL     1       1.922   7.273  19.969  0.00  0.00    +0.000 C 
ATOM      5  O   UNL     1       1.472   6.684  20.954  0.00  0.00    +0.000 OA
ATOM      6  H   UNL     1       1.905   8.978  18.847  0.00  0.00    +0.000 HD
BRANCH   4   7
ATOM      7  C   UNL     1       2.795   6.526  18.885  0.00  0.00    +0.000 C 
ATOM      8  C   UNL     1       3.252   7.564  17.827  0.00  0.00    +0.000 C 
ATOM      9  C   UNL     1       4.124   5.974  19.462  0.00  0.00    +0.000 C 
BRANCH   7  10
ATOM     10  O   UNL     1       2.069   5.492  18.188  0.00  0.00    +0.000 OA
BRANCH  10  11
ATOM     11  C   UNL     1       2.502   4.180  18.187  0.00  0.00    +0.000 A 
ATOM     12  C   UNL     1       3.474   3.656  17.329  0.00  0.00    +0.000 A 
ATOM     13  C   UNL     1       3.875   2.317  17.377  0.00  0.00    +0.000 A 
ATOM     14  C   UNL     1       3.295   1.456  18.295  0.00  0.00    +0.000 A 
ATOM     15  C   UNL     1       2.307   1.941  19.155  0.00  0.00    +0.000 A 
ATOM     16  C   UNL     1       1.917   3.289  19.104  0.00  0.00    +0.000 A 
ATOM     17 CL   UNL     1       0.667   3.793  20.188  0.00  0.00    +0.000 Cl
ENDBRANCH  10  11
ENDBRANCH   7  10
ENDBRANCH   4   7
ENDBRANCH   2   3
BRANCH   2  18
ATOM     18  C   UNL     1       0.282  10.844  19.822  0.00  0.00    +0.000 C 
BRANCH  18  19
ATOM     19  C   UNL     1      -0.999  10.896  18.959  0.00  0.00    +0.000 A 
ATOM     20  C   UNL     1      -2.112  11.697  19.255  0.00  0.00    +0.000 A 
ATOM     21  C   UNL     1      -3.268  11.653  18.469  0.00  0.00    +0.000 A 
ATOM     22  C   UNL     1      -3.367  10.752  17.414  0.00  0.00    +0.000 A 
ATOM     23  C   UNL     1      -2.287   9.932  17.110  0.00  0.00    +0.000 A 
ATOM     24  C   UNL     1      -1.103  10.036  17.845  0.00  0.00    +0.000 A 
ENDBRANCH  18  19
BRANCH  18  25
ATOM     25  C   UNL     1       1.464  11.477  19.008  0.00  0.00    +0.000 C 
BRANCH  25  26
ATOM     26  C   UNL     1       1.797  12.915  19.327  0.00  0.00    +0.000 A 
ATOM     27  C   UNL     1       1.999  13.848  18.297  0.00  0.00    +0.000 A 
ATOM     28  C   UNL     1       2.357  15.162  18.596  0.00  0.00    +0.000 A 
ATOM     29  C   UNL     1       2.481  15.563  19.921  0.00  0.00    +0.000 A 
ATOM     30 CL   UNL     1       2.937  17.175  20.290  0.00  0.00    +0.000 Cl
ATOM     31  C   UNL     1       2.244  14.654  20.952  0.00  0.00    +0.000 A 
ATOM     32  C   UNL     1       1.911  13.330  20.655  0.00  0.00    +0.000 A 
ENDBRANCH  25  26
ENDBRANCH  18  25
ENDBRANCH   2  18
TORSDOF 8
ENDMDL
MODEL 7
REMARK VINA RESULT:      -7.2      3.154      8.925
REMARK  Name = 
REMARK  11 active torsions:
REMARK  status: ('A' for Active; 'I' for Inactive)
REMARK    1  A    between atoms: C_1  and  C_2
REMARK    2  A    between atoms: C_2  and  N_3
REMARK    3  A    between atoms: C_2  and  C_17
REMARK    4  A    between atoms: C_4  and  C_6
REMARK    5  A    between atoms: C_6  and  C_7
REMARK    6  A    between atoms: C_6  and  C_8
REMARK    7  A    between atoms: C_6  and  O_9
REMARK    8  A    between atoms: O_9  and  C_10
REMARK    9  A    between atoms: C_17  and  C_18
REMARK   10  A    between atoms: C_17  and  C_26
REMARK   11  A    between atoms: C_18  and  C_19
REMARK                            x       y       z     vdW  Elec       q    Type
REMARK                         _______ _______ _______ _____ _____    ______ ____
ROOT
ATOM      1  C   UNL     1      -1.049   9.898  17.892  0.00  0.00    +0.000 C 
ATOM      2  C   UNL     1       0.455  10.051  18.184  0.00  0.00    +0.000 C 
ENDROOT
BRANCH   2   3
ATOM      3  N   UNL     1       0.952   8.668  18.386  0.00  0.00    +0.000 N 
ATOM      4  C   UNL     1       2.134   8.130  17.915  0.00  0.00    +0.000 C 
ATOM      5  O   UNL     1       2.809   8.718  17.067  0.00  0.00    +0.000 OA
ATOM      6  H   UNL     1       0.554   8.225  19.203  0.00  0.00    +0.000 HD
BRANCH   4   7
ATOM      7  C   UNL     1       2.596   6.748  18.527  0.00  0.00    +0.000 C 
ATOM      8  C   UNL     1       4.104   6.557  18.213  0.00  0.00    +0.000 C 
ATOM      9  C   UNL     1       2.534   6.727  20.075  0.00  0.00    +0.000 C 
BRANCH   7  10
ATOM     10  O   UNL     1       1.894   5.619  17.967  0.00  0.00    +0.000 OA
BRANCH  10  11
ATOM     11  C   UNL     1       2.397   4.336  18.064  0.00  0.00    +0.000 A 
ATOM     12  C   UNL     1       3.367   3.788  17.218  0.00  0.00    +0.000 A 
ATOM     13  C   UNL     1       3.841   2.481  17.367  0.00  0.00    +0.000 A 
ATOM     14  C   UNL     1       3.339   1.676  18.377  0.00  0.00    +0.000 A 
ATOM     15  C   UNL     1       2.356   2.184  19.229  0.00  0.00    +0.000 A 
ATOM     16  C   UNL     1       1.892   3.501  19.076  0.00  0.00    +0.000 A 
ATOM     17 CL   UNL     1       0.654   4.034  20.159  0.00  0.00    +0.000 Cl
ENDBRANCH  10  11
ENDBRANCH   7  10
ENDBRANCH   4   7
ENDBRANCH   2   3
BRANCH   2  18
ATOM     18  C   UNL     1       0.798  11.128  19.284  0.00  0.00    +0.000 C 
BRANCH  18  19
ATOM     19  C   UNL     1       0.279  10.860  20.716  0.00  0.00    +0.000 A 
ATOM     20  C   UNL     1       0.646   9.749  21.488  0.00  0.00    +0.000 A 
ATOM     21  C   UNL     1       0.092   9.530  22.754  0.00  0.00    +0.000 A 
ATOM     22  C   UNL     1      -0.898  10.376  23.244  0.00  0.00    +0.000 A 
ATOM     23  C   UNL     1      -1.296  11.473  22.491  0.00  0.00    +0.000 A 
ATOM     24  C   UNL     1      -0.682  11.737  21.263  0.00  0.00    +0.000 A 
ENDBRANCH  18  19
BRANCH  18  25
ATOM     25  C   UNL     1       0.384  12.579  18.861  0.00  0.00    +0.000 C 
BRANCH  25  26
ATOM     26  C   UNL     1       1.490  13.606  18.831  0.00  0.00    +0.000 A 
ATOM     27  C   UNL     1       1.295  14.885  19.376  0.00  0.00    +0.000 A 
ATOM     28  C   UNL     1       2.302  15.846  19.300  0.00  0.00    +0.000 A 
ATOM     29  C   UNL     1       3.521  15.529  18.712  0.00  0.00    +0.000 A 
ATOM     30 CL   UNL     1       4.756  16.714  18.603  0.00  0.00    +0.000 Cl
ATOM     31  C   UNL     1       3.739  14.249  18.202  0.00  0.00    +0.000 A 
ATOM     32  C   UNL     1       2.722  13.292  18.254  0.00  0.00    +0.000 A 
ENDBRANCH  25  26
ENDBRANCH  18  25
ENDBRANCH   2  18
TORSDOF 8
ENDMDL
MODEL 8
REMARK VINA RESULT:      -7.2      2.870      8.848
REMARK  Name = 
REMARK  11 active torsions:
REMARK  status: ('A' for Active; 'I' for Inactive)
REMARK    1  A    between atoms: C_1  and  C_2
REMARK    2  A    between atoms: C_2  and  N_3
REMARK    3  A    between atoms: C_2  and  C_17
REMARK    4  A    between atoms: C_4  and  C_6
REMARK    5  A    between atoms: C_6  and  C_7
REMARK    6  A    between atoms: C_6  and  C_8
REMARK    7  A    between atoms: C_6  and  O_9
REMARK    8  A    between atoms: O_9  and  C_10
REMARK    9  A    between atoms: C_17  and  C_18
REMARK   10  A    between atoms: C_17  and  C_26
REMARK   11  A    between atoms: C_18  and  C_19
REMARK                            x       y       z     vdW  Elec       q    Type
REMARK                         _______ _______ _______ _____ _____    ______ ____
ROOT
ATOM      1  C   UNL     1      -0.885  10.075  17.856  0.00  0.00    +0.000 C 
ATOM      2  C   UNL     1       0.602  10.183  18.243  0.00  0.00    +0.000 C 
ENDROOT
BRANCH   2   3
ATOM      3  N   UNL     1       1.056   8.784  18.428  0.00  0.00    +0.000 N 
ATOM      4  C   UNL     1       2.184   8.195  17.889  0.00  0.00    +0.000 C 
ATOM      5  O   UNL     1       2.826   8.748  16.994  0.00  0.00    +0.000 OA
ATOM      6  H   UNL     1       0.694   8.364  19.273  0.00  0.00    +0.000 HD
BRANCH   4   7
ATOM      7  C   UNL     1       2.630   6.801  18.485  0.00  0.00    +0.000 C 
ATOM      8  C   UNL     1       4.166   6.668  18.316  0.00  0.00    +0.000 C 
ATOM      9  C   UNL     1       2.415   6.708  20.017  0.00  0.00    +0.000 C 
BRANCH   7  10
ATOM     10  O   UNL     1       2.024   5.678  17.811  0.00  0.00    +0.000 OA
BRANCH  10  11
ATOM     11  C   UNL     1       1.962   4.431  18.400  0.00  0.00    +0.000 A 
ATOM     12  C   UNL     1       1.105   4.079  19.449  0.00  0.00    +0.000 A 
ATOM     13  C   UNL     1       1.086   2.795  20.004  0.00  0.00    +0.000 A 
ATOM     14  C   UNL     1       1.943   1.821  19.519  0.00  0.00    +0.000 A 
ATOM     15  C   UNL     1       2.825   2.142  18.485  0.00  0.00    +0.000 A 
ATOM     16  C   UNL     1       2.833   3.432  17.930  0.00  0.00    +0.000 A 
ATOM     17 CL   UNL     1       3.977   3.745  16.672  0.00  0.00    +0.000 Cl
ENDBRANCH  10  11
ENDBRANCH   7  10
ENDBRANCH   4   7
ENDBRANCH   2   3
BRANCH   2  18
ATOM     18  C   UNL     1       0.901  11.216  19.397  0.00  0.00    +0.000 C 
BRANCH  18  19
ATOM     19  C   UNL     1       0.354  10.876  20.803  0.00  0.00    +0.000 A 
ATOM     20  C   UNL     1       0.662   9.699  21.501  0.00  0.00    +0.000 A 
ATOM     21  C   UNL     1       0.085   9.420  22.744  0.00  0.00    +0.000 A 
ATOM     22  C   UNL     1      -0.871  10.275  23.283  0.00  0.00    +0.000 A 
ATOM     23  C   UNL     1      -1.210  11.438  22.605  0.00  0.00    +0.000 A 
ATOM     24  C   UNL     1      -0.572  11.757  21.402  0.00  0.00    +0.000 A 
ENDBRANCH  18  19
BRANCH  18  25
ATOM     25  C   UNL     1       0.469  12.678  19.029  0.00  0.00    +0.000 C 
BRANCH  25  26
ATOM     26  C   UNL     1       1.572  13.707  18.988  0.00  0.00    +0.000 A 
ATOM     27  C   UNL     1       2.754  13.462  18.270  0.00  0.00    +0.000 A 
ATOM     28  C   UNL     1       3.790  14.395  18.278  0.00  0.00    +0.000 A 
ATOM     29  C   UNL     1       3.643  15.591  18.970  0.00  0.00    +0.000 A 
ATOM     30 CL   UNL     1       4.923  16.732  18.993  0.00  0.00    +0.000 Cl
ATOM     31  C   UNL     1       2.458  15.861  19.653  0.00  0.00    +0.000 A 
ATOM     32  C   UNL     1       1.427  14.917  19.669  0.00  0.00    +0.000 A 
ENDBRANCH  25  26
ENDBRANCH  18  25
ENDBRANCH   2  18
TORSDOF 8
ENDMDL
MODEL 9
REMARK VINA RESULT:      -7.1      1.711      2.439
REMARK  Name = 
REMARK  11 active torsions:
REMARK  status: ('A' for Active; 'I' for Inactive)
REMARK    1  A    between atoms: C_1  and  C_2
REMARK    2  A    between atoms: C_2  and  N_3
REMARK    3  A    between atoms: C_2  and  C_17
REMARK    4  A    between atoms: C_4  and  C_6
REMARK    5  A    between atoms: C_6  and  C_7
REMARK    6  A    between atoms: C_6  and  C_8
REMARK    7  A    between atoms: C_6  and  O_9
REMARK    8  A    between atoms: O_9  and  C_10
REMARK    9  A    between atoms: C_17  and  C_18
REMARK   10  A    between atoms: C_17  and  C_26
REMARK   11  A    between atoms: C_18  and  C_19
REMARK                            x       y       z     vdW  Elec       q    Type
REMARK                         _______ _______ _______ _____ _____    ______ ____
ROOT
ATOM      1  C   UNL     1       4.165   7.842  17.514  0.00  0.00    +0.000 C 
ATOM      2  C   UNL     1       2.923   6.983  17.816  0.00  0.00    +0.000 C 
ENDROOT
BRANCH   2   3
ATOM      3  N   UNL     1       2.265   7.647  18.968  0.00  0.00    +0.000 N 
ATOM      4  C   UNL     1       1.672   8.894  18.985  0.00  0.00    +0.000 C 
ATOM      5  O   UNL     1       1.834   9.690  18.057  0.00  0.00    +0.000 OA
ATOM      6  H   UNL     1       1.942   6.989  19.665  0.00  0.00    +0.000 HD
BRANCH   4   7
ATOM      7  C   UNL     1       0.760   9.247  20.226  0.00  0.00    +0.000 C 
ATOM      8  C   UNL     1      -0.639   9.664  19.699  0.00  0.00    +0.000 C 
ATOM      9  C   UNL     1       0.467   8.018  21.123  0.00  0.00    +0.000 C 
BRANCH   7  10
ATOM     10  O   UNL     1       1.270  10.346  21.009  0.00  0.00    +0.000 OA
BRANCH  10  11
ATOM     11  C   UNL     1       0.573  11.533  21.126  0.00  0.00    +0.000 A 
ATOM     12  C   UNL     1       0.758  12.656  20.313  0.00  0.00    +0.000 A 
ATOM     13  C   UNL     1       0.019  13.832  20.478  0.00  0.00    +0.000 A 
ATOM     14  C   UNL     1      -0.932  13.914  21.482  0.00  0.00    +0.000 A 
ATOM     15  C   UNL     1      -1.131  12.818  22.324  0.00  0.00    +0.000 A 
ATOM     16  C   UNL     1      -0.388  11.640  22.146  0.00  0.00    +0.000 A 
ATOM     17 CL   UNL     1      -0.682  10.345  23.254  0.00  0.00    +0.000 Cl
ENDBRANCH  10  11
ENDBRANCH   7  10
ENDBRANCH   4   7
ENDBRANCH   2   3
BRANCH   2  18
ATOM     18  C   UNL     1       3.211   5.436  17.920  0.00  0.00    +0.000 C 
BRANCH  18  19
ATOM     19  C   UNL     1       2.478   4.658  19.037  0.00  0.00    +0.000 A 
ATOM     20  C   UNL     1       2.835   4.710  20.393  0.00  0.00    +0.000 A 
ATOM     21  C   UNL     1       2.172   3.933  21.348  0.00  0.00    +0.000 A 
ATOM     22  C   UNL     1       1.188   3.030  20.960  0.00  0.00    +0.000 A 
ATOM     23  C   UNL     1       0.828   2.943  19.621  0.00  0.00    +0.000 A 
ATOM     24  C   UNL     1       1.434   3.779  18.679  0.00  0.00    +0.000 A 
ENDBRANCH  18  19
BRANCH  18  25
ATOM     25  C   UNL     1       4.743   5.110  18.000  0.00  0.00    +0.000 C 
BRANCH  25  26
ATOM     26  C   UNL     1       5.453   4.919  16.682  0.00  0.00    +0.000 A 
ATOM     27  C   UNL     1       6.808   5.262  16.543  0.00  0.00    +0.000 A 
ATOM     28  C   UNL     1       7.445   5.132  15.309  0.00  0.00    +0.000 A 
ATOM     29  C   UNL     1       6.748   4.628  14.217  0.00  0.00    +0.000 A 
ATOM     30 CL   UNL     1       7.526   4.482  12.696  0.00  0.00    +0.000 Cl
ATOM     31  C   UNL     1       5.414   4.248  14.355  0.00  0.00    +0.000 A 
ATOM     32  C   UNL     1       4.765   4.401  15.584  0.00  0.00    +0.000 A 
ENDBRANCH  25  26
ENDBRANCH  18  25
ENDBRANCH   2  18
TORSDOF 8
ENDMDL
