MODEL 1
REMARK VINA RESULT:      -7.1      0.000      0.000
REMARK  Name = 
REMARK  6 active torsions:
REMARK  status: ('A' for Active; 'I' for Inactive)
REMARK    1  A    between atoms: C_1  and  C_2
REMARK    2  A    between atoms: C_5  and  S_6
REMARK    3  A    between atoms: S_6  and  C_9
REMARK    4  A    between atoms: C_9  and  C_10
REMARK    5  A    between atoms: C_10  and  C_11
REMARK    6  A    between atoms: C_18  and  C_19
REMARK                            x       y       z     vdW  Elec       q    Type
REMARK                         _______ _______ _______ _____ _____    ______ ____
ROOT
ATOM      1  S   UNL     1       2.686   3.272  18.047  0.00  0.00    +0.000 S 
ATOM      2  O   UNL     1       2.424   2.173  18.968  0.00  0.00    +0.000 OA
ATOM      3  O   UNL     1       2.027   3.321  16.761  0.00  0.00    +0.000 OA
ENDROOT
BRANCH   1   8
ATOM      4  C   UNL     1       1.414   8.490  20.933  0.00  0.00    +0.000 C 
ATOM      5  C   UNL     1       1.757   7.211  20.215  0.00  0.00    +0.000 A 
ATOM      6  C   UNL     1       1.646   5.985  20.897  0.00  0.00    +0.000 A 
ATOM      7  C   UNL     1       1.922   4.774  20.253  0.00  0.00    +0.000 A 
ATOM      8  C   UNL     1       2.302   4.786  18.909  0.00  0.00    +0.000 A 
ATOM      9  C   UNL     1       2.451   5.999  18.229  0.00  0.00    +0.000 A 
ATOM     10  C   UNL     1       2.180   7.219  18.870  0.00  0.00    +0.000 A 
ATOM     11  C   UNL     1       2.339   8.504  18.106  0.00  0.00    +0.000 C 
ENDBRANCH   1   8
BRANCH   1  12
ATOM     12  C   UNL     1       4.437   3.324  17.768  0.00  0.00    +0.000 C 
BRANCH  12  13
ATOM     13  C   UNL     1       5.174   3.805  19.015  0.00  0.00    +0.000 C 
BRANCH  13  14
ATOM     14  C   UNL     1       6.117   4.922  18.688  0.00  0.00    +0.000 A 
ATOM     15  N   UNL     1       7.163   5.258  19.413  0.00  0.00    +0.000 NA
ATOM     16  N   UNL     1       7.844   6.332  18.881  0.00  0.00    +0.000 NA
ATOM     17  C   UNL     1       7.297   6.782  17.774  0.00  0.00    +0.000 A 
ATOM     18  N   UNL     1       7.755   7.834  17.075  0.00  0.00    +0.000 N 
ATOM     19  S   UNL     1       5.906   5.893  17.285  0.00  0.00    +0.000 S 
ATOM     20  H   UNL     1       8.675   8.191  17.310  0.00  0.00    +0.000 HD
ATOM     21  H   UNL     1       7.443   7.999  16.128  0.00  0.00    +0.000 HD
ENDBRANCH  13  14
ENDBRANCH  12  13
ENDBRANCH   1  12
TORSDOF 4
ENDMDL
MODEL 2
REMARK VINA RESULT:      -7.0      2.080      2.911
REMARK  Name = 
REMARK  6 active torsions:
REMARK  status: ('A' for Active; 'I' for Inactive)
REMARK    1  A    between atoms: C_1  and  C_2
REMARK    2  A    between atoms: C_5  and  S_6
REMARK    3  A    between atoms: S_6  and  C_9
REMARK    4  A    between atoms: C_9  and  C_10
REMARK    5  A    between atoms: C_10  and  C_11
REMARK    6  A    between atoms: C_18  and  C_19
REMARK                            x       y       z     vdW  Elec       q    Type
REMARK                         _______ _______ _______ _____ _____    ______ ____
ROOT
ATOM      1  S   UNL     1       2.612   5.574  19.346  0.00  0.00    +0.000 S 
ATOM      2  O   UNL     1       2.093   5.090  20.620  0.00  0.00    +0.000 OA
ATOM      3  O   UNL     1       2.261   4.906  18.113  0.00  0.00    +0.000 OA
ENDROOT
BRANCH   1   8
ATOM      4  C   UNL     1       0.901  11.408  18.897  0.00  0.00    +0.000 C 
ATOM      5  C   UNL     1       1.295   9.960  19.017  0.00  0.00    +0.000 A 
ATOM      6  C   UNL     1       1.809   9.289  17.891  0.00  0.00    +0.000 A 
ATOM      7  C   UNL     1       2.218   7.954  17.972  0.00  0.00    +0.000 A 
ATOM      8  C   UNL     1       2.124   7.284  19.193  0.00  0.00    +0.000 A 
ATOM      9  C   UNL     1       1.582   7.927  20.311  0.00  0.00    +0.000 A 
ATOM     10  C   UNL     1       1.165   9.265  20.236  0.00  0.00    +0.000 A 
ATOM     11  C   UNL     1       0.598   9.930  21.460  0.00  0.00    +0.000 C 
ENDBRANCH   1   8
BRANCH   1  12
ATOM     12  C   UNL     1       4.381   5.602  19.470  0.00  0.00    +0.000 C 
BRANCH  12  13
ATOM     13  C   UNL     1       4.980   4.273  19.017  0.00  0.00    +0.000 C 
BRANCH  13  14
ATOM     14  C   UNL     1       5.944   4.474  17.888  0.00  0.00    +0.000 A 
ATOM     15  N   UNL     1       7.252   4.373  17.992  0.00  0.00    +0.000 NA
ATOM     16  N   UNL     1       7.891   4.623  16.796  0.00  0.00    +0.000 NA
ATOM     17  C   UNL     1       7.055   4.910  15.823  0.00  0.00    +0.000 A 
ATOM     18  N   UNL     1       7.427   5.216  14.569  0.00  0.00    +0.000 N 
ATOM     19  S   UNL     1       5.402   4.867  16.304  0.00  0.00    +0.000 S 
ATOM     20  H   UNL     1       8.391   5.041  14.307  0.00  0.00    +0.000 HD
ATOM     21  H   UNL     1       6.754   5.207  13.815  0.00  0.00    +0.000 HD
ENDBRANCH  13  14
ENDBRANCH  12  13
ENDBRANCH   1  12
TORSDOF 4
ENDMDL
MODEL 3
REMARK VINA RESULT:      -7.0      4.188      6.523
REMARK  Name = 
REMARK  6 active torsions:
REMARK  status: ('A' for Active; 'I' for Inactive)
REMARK    1  A    between atoms: C_1  and  C_2
REMARK    2  A    between atoms: C_5  and  S_6
REMARK    3  A    between atoms: S_6  and  C_9
REMARK    4  A    between atoms: C_9  and  C_10
REMARK    5  A    between atoms: C_10  and  C_11
REMARK    6  A    between atoms: C_18  and  C_19
REMARK                            x       y       z     vdW  Elec       q    Type
REMARK                         _______ _______ _______ _____ _____    ______ ____
ROOT
ATOM      1  S   UNL     1       7.134   5.697  17.029  0.00  0.00    +0.000 S 
ATOM      2  O   UNL     1       7.934   4.731  17.771  0.00  0.00    +0.000 OA
ATOM      3  O   UNL     1       7.690   6.982  16.665  0.00  0.00    +0.000 OA
ENDROOT
BRANCH   1   8
ATOM      4  C   UNL     1       5.351   3.014  11.853  0.00  0.00    +0.000 C 
ATOM      5  C   UNL     1       5.787   3.704  13.118  0.00  0.00    +0.000 A 
ATOM      6  C   UNL     1       5.087   3.460  14.314  0.00  0.00    +0.000 A 
ATOM      7  C   UNL     1       5.483   4.056  15.517  0.00  0.00    +0.000 A 
ATOM      8  C   UNL     1       6.598   4.896  15.527  0.00  0.00    +0.000 A 
ATOM      9  C   UNL     1       7.283   5.176  14.340  0.00  0.00    +0.000 A 
ATOM     10  C   UNL     1       6.887   4.584  13.129  0.00  0.00    +0.000 A 
ATOM     11  C   UNL     1       7.652   4.898  11.872  0.00  0.00    +0.000 C 
ENDBRANCH   1   8
BRANCH   1  12
ATOM     12  C   UNL     1       5.651   5.985  17.959  0.00  0.00    +0.000 C 
BRANCH  12  13
ATOM     13  C   UNL     1       5.661   5.187  19.260  0.00  0.00    +0.000 C 
BRANCH  13  14
ATOM     14  C   UNL     1       4.729   4.017  19.182  0.00  0.00    +0.000 A 
ATOM     15  N   UNL     1       4.990   2.817  19.656  0.00  0.00    +0.000 NA
ATOM     16  N   UNL     1       3.957   1.931  19.430  0.00  0.00    +0.000 NA
ATOM     17  C   UNL     1       2.948   2.480  18.791  0.00  0.00    +0.000 A 
ATOM     18  N   UNL     1       1.832   1.824  18.431  0.00  0.00    +0.000 N 
ATOM     19  S   UNL     1       3.184   4.149  18.439  0.00  0.00    +0.000 S 
ATOM     20  H   UNL     1       1.677   0.904  18.830  0.00  0.00    +0.000 HD
ATOM     21  H   UNL     1       1.004   2.331  18.149  0.00  0.00    +0.000 HD
ENDBRANCH  13  14
ENDBRANCH  12  13
ENDBRANCH   1  12
TORSDOF 4
ENDMDL
MODEL 4
REMARK VINA RESULT:      -7.0      3.285      4.431
REMARK  Name = 
REMARK  6 active torsions:
REMARK  status: ('A' for Active; 'I' for Inactive)
REMARK    1  A    between atoms: C_1  and  C_2
REMARK    2  A    between atoms: C_5  and  S_6
REMARK    3  A    between atoms: S_6  and  C_9
REMARK    4  A    between atoms: C_9  and  C_10
REMARK    5  A    between atoms: C_10  and  C_11
REMARK    6  A    between atoms: C_18  and  C_19
REMARK                            x       y       z     vdW  Elec       q    Type
REMARK                         _______ _______ _______ _____ _____    ______ ____
ROOT
ATOM      1  S   UNL     1       6.619   5.227  18.638  0.00  0.00    +0.000 S 
ATOM      2  O   UNL     1       6.975   5.758  19.948  0.00  0.00    +0.000 OA
ATOM      3  O   UNL     1       7.447   4.224  18.007  0.00  0.00    +0.000 OA
ENDROOT
BRANCH   1   8
ATOM      4  C   UNL     1       0.965   3.007  19.151  0.00  0.00    +0.000 C 
ATOM      5  C   UNL     1       2.365   3.553  19.055  0.00  0.00    +0.000 A 
ATOM      6  C   UNL     1       3.316   2.880  18.265  0.00  0.00    +0.000 A 
ATOM      7  C   UNL     1       4.616   3.376  18.123  0.00  0.00    +0.000 A 
ATOM      8  C   UNL     1       4.968   4.563  18.768  0.00  0.00    +0.000 A 
ATOM      9  C   UNL     1       4.044   5.224  19.584  0.00  0.00    +0.000 A 
ATOM     10  C   UNL     1       2.739   4.729  19.734  0.00  0.00    +0.000 A 
ATOM     11  C   UNL     1       1.766   5.470  20.611  0.00  0.00    +0.000 C 
ENDBRANCH   1   8
BRANCH   1  12
ATOM     12  C   UNL     1       6.483   6.604  17.527  0.00  0.00    +0.000 C 
BRANCH  12  13
ATOM     13  C   UNL     1       5.432   6.335  16.453  0.00  0.00    +0.000 C 
BRANCH  13  14
ATOM     14  C   UNL     1       5.998   5.506  15.341  0.00  0.00    +0.000 A 
ATOM     15  N   UNL     1       7.230   5.602  14.886  0.00  0.00    +0.000 NA
ATOM     16  N   UNL     1       7.472   4.727  13.849  0.00  0.00    +0.000 NA
ATOM     17  C   UNL     1       6.422   3.997  13.544  0.00  0.00    +0.000 A 
ATOM     18  N   UNL     1       6.393   3.087  12.556  0.00  0.00    +0.000 N 
ATOM     19  S   UNL     1       5.053   4.317  14.536  0.00  0.00    +0.000 S 
ATOM     20  H   UNL     1       7.277   2.816  12.138  0.00  0.00    +0.000 HD
ATOM     21  H   UNL     1       5.650   2.403  12.506  0.00  0.00    +0.000 HD
ENDBRANCH  13  14
ENDBRANCH  12  13
ENDBRANCH   1  12
TORSDOF 4
ENDMDL
MODEL 5
REMARK VINA RESULT:      -6.9      1.691      2.314
REMARK  Name = 
REMARK  6 active torsions:
REMARK  status: ('A' for Active; 'I' for Inactive)
REMARK    1  A    between atoms: C_1  and  C_2
REMARK    2  A    between atoms: C_5  and  S_6
REMARK    3  A    between atoms: S_6  and  C_9
REMARK    4  A    between atoms: C_9  and  C_10
REMARK    5  A    between atoms: C_10  and  C_11
REMARK    6  A    between atoms: C_18  and  C_19
REMARK                            x       y       z     vdW  Elec       q    Type
REMARK                         _______ _______ _______ _____ _____    ______ ____
ROOT
ATOM      1  S   UNL     1       2.288   4.005  19.703  0.00  0.00    +0.000 S 
ATOM      2  O   UNL     1       2.685   3.825  21.094  0.00  0.00    +0.000 OA
ATOM      3  O   UNL     1       1.088   3.374  19.198  0.00  0.00    +0.000 OA
ENDROOT
BRANCH   1   8
ATOM      4  C   UNL     1       1.726  10.009  18.811  0.00  0.00    +0.000 C 
ATOM      5  C   UNL     1       1.835   8.525  19.040  0.00  0.00    +0.000 A 
ATOM      6  C   UNL     1       2.212   7.688  17.973  0.00  0.00    +0.000 A 
ATOM      7  C   UNL     1       2.358   6.308  18.156  0.00  0.00    +0.000 A 
ATOM      8  C   UNL     1       2.136   5.760  19.420  0.00  0.00    +0.000 A 
ATOM      9  C   UNL     1       1.726   6.575  20.481  0.00  0.00    +0.000 A 
ATOM     10  C   UNL     1       1.574   7.959  20.304  0.00  0.00    +0.000 A 
ATOM     11  C   UNL     1       1.143   8.808  21.469  0.00  0.00    +0.000 C 
ENDBRANCH   1   8
BRANCH   1  12
ATOM     12  C   UNL     1       3.648   3.484  18.690  0.00  0.00    +0.000 C 
BRANCH  12  13
ATOM     13  C   UNL     1       4.967   4.040  19.222  0.00  0.00    +0.000 C 
BRANCH  13  14
ATOM     14  C   UNL     1       5.914   4.344  18.102  0.00  0.00    +0.000 A 
ATOM     15  N   UNL     1       7.216   4.483  18.238  0.00  0.00    +0.000 NA
ATOM     16  N   UNL     1       7.837   4.774  17.043  0.00  0.00    +0.000 NA
ATOM     17  C   UNL     1       6.993   4.851  16.037  0.00  0.00    +0.000 A 
ATOM     18  N   UNL     1       7.344   5.145  14.774  0.00  0.00    +0.000 N 
ATOM     19  S   UNL     1       5.361   4.543  16.487  0.00  0.00    +0.000 S 
ATOM     20  H   UNL     1       8.332   5.129  14.543  0.00  0.00    +0.000 HD
ATOM     21  H   UNL     1       6.707   4.973  14.009  0.00  0.00    +0.000 HD
ENDBRANCH  13  14
ENDBRANCH  12  13
ENDBRANCH   1  12
TORSDOF 4
ENDMDL
MODEL 6
REMARK VINA RESULT:      -6.9      1.084      1.272
REMARK  Name = 
REMARK  6 active torsions:
REMARK  status: ('A' for Active; 'I' for Inactive)
REMARK    1  A    between atoms: C_1  and  C_2
REMARK    2  A    between atoms: C_5  and  S_6
REMARK    3  A    between atoms: S_6  and  C_9
REMARK    4  A    between atoms: C_9  and  C_10
REMARK    5  A    between atoms: C_10  and  C_11
REMARK    6  A    between atoms: C_18  and  C_19
REMARK                            x       y       z     vdW  Elec       q    Type
REMARK                         _______ _______ _______ _____ _____    ______ ____
ROOT
ATOM      1  S   UNL     1       2.279   3.272  18.297  0.00  0.00    +0.000 S 
ATOM      2  O   UNL     1       1.699   2.285  19.200  0.00  0.00    +0.000 OA
ATOM      3  O   UNL     1       1.829   3.361  16.926  0.00  0.00    +0.000 OA
ENDROOT
BRANCH   1   8
ATOM      4  C   UNL     1       1.528   8.780  20.800  0.00  0.00    +0.000 C 
ATOM      5  C   UNL     1       1.743   7.426  20.177  0.00  0.00    +0.000 A 
ATOM      6  C   UNL     1       1.472   6.269  20.930  0.00  0.00    +0.000 A 
ATOM      7  C   UNL     1       1.627   4.994  20.374  0.00  0.00    +0.000 A 
ATOM      8  C   UNL     1       2.045   4.874  19.048  0.00  0.00    +0.000 A 
ATOM      9  C   UNL     1       2.352   6.014  18.298  0.00  0.00    +0.000 A 
ATOM     10  C   UNL     1       2.203   7.297  18.851  0.00  0.00    +0.000 A 
ATOM     11  C   UNL     1       2.531   8.502  18.013  0.00  0.00    +0.000 C 
ENDBRANCH   1   8
BRANCH   1  12
ATOM     12  C   UNL     1       4.034   3.013  18.283  0.00  0.00    +0.000 C 
BRANCH  12  13
ATOM     13  C   UNL     1       4.653   3.546  16.993  0.00  0.00    +0.000 C 
BRANCH  13  14
ATOM     14  C   UNL     1       5.811   4.450  17.284  0.00  0.00    +0.000 A 
ATOM     15  N   UNL     1       6.796   4.700  16.448  0.00  0.00    +0.000 NA
ATOM     16  N   UNL     1       7.733   5.556  16.986  0.00  0.00    +0.000 NA
ATOM     17  C   UNL     1       7.437   5.927  18.212  0.00  0.00    +0.000 A 
ATOM     18  N   UNL     1       8.200   6.738  18.963  0.00  0.00    +0.000 N 
ATOM     19  S   UNL     1       5.957   5.266  18.790  0.00  0.00    +0.000 S 
ATOM     20  H   UNL     1       8.953   7.238  18.502  0.00  0.00    +0.000 HD
ATOM     21  H   UNL     1       7.828   7.169  19.799  0.00  0.00    +0.000 HD
ENDBRANCH  13  14
ENDBRANCH  12  13
ENDBRANCH   1  12
TORSDOF 4
ENDMDL
MODEL 7
REMARK VINA RESULT:      -6.7      2.817      3.451
REMARK  Name = 
REMARK  6 active torsions:
REMARK  status: ('A' for Active; 'I' for Inactive)
REMARK    1  A    between atoms: C_1  and  C_2
REMARK    2  A    between atoms: C_5  and  S_6
REMARK    3  A    between atoms: S_6  and  C_9
REMARK    4  A    between atoms: C_9  and  C_10
REMARK    5  A    between atoms: C_10  and  C_11
REMARK    6  A    between atoms: C_18  and  C_19
REMARK                            x       y       z     vdW  Elec       q    Type
REMARK                         _______ _______ _______ _____ _____    ______ ____
ROOT
ATOM      1  S   UNL     1       4.355   4.197  18.678  0.00  0.00    +0.000 S 
ATOM      2  O   UNL     1       5.489   4.305  19.588  0.00  0.00    +0.000 OA
ATOM      3  O   UNL     1       3.340   3.190  18.891  0.00  0.00    +0.000 OA
ENDROOT
BRANCH   1   8
ATOM      4  C   UNL     1       1.535   9.602  18.665  0.00  0.00    +0.000 C 
ATOM      5  C   UNL     1       2.204   8.253  18.672  0.00  0.00    +0.000 A 
ATOM      6  C   UNL     1       2.967   7.855  17.558  0.00  0.00    +0.000 A 
ATOM      7  C   UNL     1       3.632   6.624  17.542  0.00  0.00    +0.000 A 
ATOM      8  C   UNL     1       3.544   5.786  18.655  0.00  0.00    +0.000 A 
ATOM      9  C   UNL     1       2.761   6.153  19.755  0.00  0.00    +0.000 A 
ATOM     10  C   UNL     1       2.088   7.384  19.776  0.00  0.00    +0.000 A 
ATOM     11  C   UNL     1       1.263   7.753  20.979  0.00  0.00    +0.000 C 
ENDBRANCH   1   8
BRANCH   1  12
ATOM     12  C   UNL     1       5.007   3.981  17.042  0.00  0.00    +0.000 C 
BRANCH  12  13
ATOM     13  C   UNL     1       6.409   4.575  16.931  0.00  0.00    +0.000 C 
BRANCH  13  14
ATOM     14  C   UNL     1       6.814   4.735  15.498  0.00  0.00    +0.000 A 
ATOM     15  N   UNL     1       7.677   5.626  15.058  0.00  0.00    +0.000 NA
ATOM     16  N   UNL     1       7.848   5.556  13.692  0.00  0.00    +0.000 NA
ATOM     17  C   UNL     1       7.111   4.622  13.134  0.00  0.00    +0.000 A 
ATOM     18  N   UNL     1       7.078   4.368  11.816  0.00  0.00    +0.000 N 
ATOM     19  S   UNL     1       6.163   3.732  14.263  0.00  0.00    +0.000 S 
ATOM     20  H   UNL     1       7.792   4.795  11.235  0.00  0.00    +0.000 HD
ATOM     21  H   UNL     1       6.677   3.508  11.466  0.00  0.00    +0.000 HD
ENDBRANCH  13  14
ENDBRANCH  12  13
ENDBRANCH   1  12
TORSDOF 4
ENDMDL
MODEL 8
REMARK VINA RESULT:      -6.6      1.312      1.488
REMARK  Name = 
REMARK  6 active torsions:
REMARK  status: ('A' for Active; 'I' for Inactive)
REMARK    1  A    between atoms: C_1  and  C_2
REMARK    2  A    between atoms: C_5  and  S_6
REMARK    3  A    between atoms: S_6  and  C_9
REMARK    4  A    between atoms: C_9  and  C_10
REMARK    5  A    between atoms: C_10  and  C_11
REMARK    6  A    between atoms: C_18  and  C_19
REMARK                            x       y       z     vdW  Elec       q    Type
REMARK                         _______ _______ _______ _____ _____    ______ ____
ROOT
ATOM      1  S   UNL     1       2.959   3.460  18.441  0.00  0.00    +0.000 S 
ATOM      2  O   UNL     1       4.026   2.956  19.298  0.00  0.00    +0.000 OA
ATOM      3  O   UNL     1       1.776   2.664  18.203  0.00  0.00    +0.000 OA
ENDROOT
BRANCH   1   8
ATOM      4  C   UNL     1       1.197   8.844  20.693  0.00  0.00    +0.000 C 
ATOM      5  C   UNL     1       1.661   7.526  20.132  0.00  0.00    +0.000 A 
ATOM      6  C   UNL     1       1.597   6.372  20.935  0.00  0.00    +0.000 A 
ATOM      7  C   UNL     1       1.986   5.124  20.438  0.00  0.00    +0.000 A 
ATOM      8  C   UNL     1       2.432   5.024  19.119  0.00  0.00    +0.000 A 
ATOM      9  C   UNL     1       2.534   6.167  18.319  0.00  0.00    +0.000 A 
ATOM     10  C   UNL     1       2.150   7.424  18.814  0.00  0.00    +0.000 A 
ATOM     11  C   UNL     1       2.261   8.631  17.924  0.00  0.00    +0.000 C 
ENDBRANCH   1   8
BRANCH   1  12
ATOM     12  C   UNL     1       3.682   3.852  16.869  0.00  0.00    +0.000 C 
BRANCH  12  13
ATOM     13  C   UNL     1       5.156   3.454  16.832  0.00  0.00    +0.000 C 
BRANCH  13  14
ATOM     14  C   UNL     1       6.036   4.658  16.701  0.00  0.00    +0.000 A 
ATOM     15  N   UNL     1       6.870   4.872  15.705  0.00  0.00    +0.000 NA
ATOM     16  N   UNL     1       7.563   6.055  15.851  0.00  0.00    +0.000 NA
ATOM     17  C   UNL     1       7.241   6.701  16.950  0.00  0.00    +0.000 A 
ATOM     18  N   UNL     1       7.791   7.865  17.334  0.00  0.00    +0.000 N 
ATOM     19  S   UNL     1       6.030   5.908  17.881  0.00  0.00    +0.000 S 
ATOM     20  H   UNL     1       8.354   8.367  16.655  0.00  0.00    +0.000 HD
ATOM     21  H   UNL     1       7.358   8.426  18.055  0.00  0.00    +0.000 HD
ENDBRANCH  13  14
ENDBRANCH  12  13
ENDBRANCH   1  12
TORSDOF 4
ENDMDL
MODEL 9
REMARK VINA RESULT:      -6.6      4.173      6.557
REMARK  Name = 
REMARK  6 active torsions:
REMARK  status: ('A' for Active; 'I' for Inactive)
REMARK    1  A    between atoms: C_1  and  C_2
REMARK    2  A    between atoms: C_5  and  S_6
REMARK    3  A    between atoms: S_6  and  C_9
REMARK    4  A    between atoms: C_9  and  C_10
REMARK    5  A    between atoms: C_10  and  C_11
REMARK    6  A    between atoms: C_18  and  C_19
REMARK                            x       y       z     vdW  Elec       q    Type
REMARK                         _______ _______ _______ _____ _____    ______ ____
ROOT
ATOM      1  S   UNL     1       6.241   6.117  17.583  0.00  0.00    +0.000 S 
ATOM      2  O   UNL     1       7.642   6.386  17.883  0.00  0.00    +0.000 OA
ATOM      3  O   UNL     1       5.291   7.204  17.496  0.00  0.00    +0.000 OA
ENDROOT
BRANCH   1   8
ATOM      4  C   UNL     1       6.127   3.152  12.258  0.00  0.00    +0.000 C 
ATOM      5  C   UNL     1       6.150   3.911  13.558  0.00  0.00    +0.000 A 
ATOM      6  C   UNL     1       5.225   3.582  14.566  0.00  0.00    +0.000 A 
ATOM      7  C   UNL     1       5.238   4.241  15.800  0.00  0.00    +0.000 A 
ATOM      8  C   UNL     1       6.193   5.232  16.035  0.00  0.00    +0.000 A 
ATOM      9  C   UNL     1       7.096   5.594  15.030  0.00  0.00    +0.000 A 
ATOM     10  C   UNL     1       7.086   4.939  13.788  0.00  0.00    +0.000 A 
ATOM     11  C   UNL     1       8.078   5.346  12.733  0.00  0.00    +0.000 C 
ENDBRANCH   1   8
BRANCH   1  12
ATOM     12  C   UNL     1       5.649   4.968  18.798  0.00  0.00    +0.000 C 
BRANCH  12  13
ATOM     13  C   UNL     1       4.322   5.436  19.390  0.00  0.00    +0.000 C 
BRANCH  13  14
ATOM     14  C   UNL     1       3.189   4.576  18.920  0.00  0.00    +0.000 A 
ATOM     15  N   UNL     1       2.347   4.902  17.962  0.00  0.00    +0.000 NA
ATOM     16  N   UNL     1       1.396   3.927  17.749  0.00  0.00    +0.000 NA
ATOM     17  C   UNL     1       1.539   2.895  18.551  0.00  0.00    +0.000 A 
ATOM     18  N   UNL     1       0.727   1.825  18.560  0.00  0.00    +0.000 N 
ATOM     19  S   UNL     1       2.882   3.036  19.618  0.00  0.00    +0.000 S 
ATOM     20  H   UNL     1       0.076   1.719  17.789  0.00  0.00    +0.000 HD
ATOM     21  H   UNL     1       1.003   0.972  19.027  0.00  0.00    +0.000 HD
ENDBRANCH  13  14
ENDBRANCH  12  13
ENDBRANCH   1  12
TORSDOF 4
ENDMDL
