MODEL 1
REMARK VINA RESULT:      -8.4      0.000      0.000
REMARK  Name = 
REMARK  8 active torsions:
REMARK  status: ('A' for Active; 'I' for Inactive)
REMARK    1  A    between atoms: C_1  and  C_2
REMARK    2  A    between atoms: C_2  and  C_3
REMARK    3  A    between atoms: C_2  and  N_4
REMARK    4  A    between atoms: C_5  and  C_7
REMARK    5  A    between atoms: C_7  and  S_8
REMARK    6  A    between atoms: S_8  and  C_9
REMARK    7  A    between atoms: C_12  and  C_13
REMARK    8  A    between atoms: N_19  and  C_20
REMARK                            x       y       z     vdW  Elec       q    Type
REMARK                         _______ _______ _______ _____ _____    ______ ____
ROOT
ATOM      1  C   UNL     1       4.640   5.410  16.935  0.00  0.00    +0.000 A 
ATOM      2  N   UNL     1       4.990   6.561  16.413  0.00  0.00    +0.000 NA
ATOM      3  N   UNL     1       4.172   7.528  16.938  0.00  0.00    +0.000 NA
ATOM      4  C   UNL     1       3.338   6.965  17.797  0.00  0.00    +0.000 A 
ATOM      5  N   UNL     1       3.543   5.573  17.766  0.00  0.00    +0.000 N 
ENDROOT
BRANCH   4   6
ATOM      6  C   UNL     1       2.415   7.713  18.669  0.00  0.00    +0.000 A 
ATOM      7  C   UNL     1       2.224   7.308  19.996  0.00  0.00    +0.000 A 
ATOM      8  C   UNL     1       1.398   8.068  20.811  0.00  0.00    +0.000 A 
ATOM      9  N   UNL     1       0.766   9.191  20.409  0.00  0.00    +0.000 NA
ATOM     10  C   UNL     1       0.930   9.546  19.121  0.00  0.00    +0.000 A 
ATOM     11  C   UNL     1       1.704   8.832  18.221  0.00  0.00    +0.000 A 
ENDBRANCH   4   6
BRANCH   5  12
ATOM     12  C   UNL     1       2.782   4.593  18.472  0.00  0.00    +0.000 A 
ATOM     13  C   UNL     1       1.579   4.121  17.925  0.00  0.00    +0.000 A 
ATOM     14  C   UNL     1       0.718   3.336  18.694  0.00  0.00    +0.000 A 
ATOM     15  C   UNL     1       1.078   2.976  19.990  0.00  0.00    +0.000 A 
ATOM     16  C   UNL     1       2.306   3.382  20.510  0.00  0.00    +0.000 A 
ATOM     17  C   UNL     1       3.160   4.193  19.759  0.00  0.00    +0.000 A 
ENDBRANCH   5  12
BRANCH   1  18
ATOM     18  S   UNL     1       5.329   3.877  16.480  0.00  0.00    +0.000 S 
BRANCH  18  19
ATOM     19  C   UNL     1       6.999   4.341  15.943  0.00  0.00    +0.000 C 
BRANCH  19  21
ATOM     20  N   UNL     1       6.216   3.614  13.739  0.00  0.00    +0.000 N 
ATOM     21  C   UNL     1       6.996   4.526  14.431  0.00  0.00    +0.000 C 
ATOM     22  O   UNL     1       7.633   5.419  13.875  0.00  0.00    +0.000 OA
ATOM     23  H   UNL     1       5.908   2.785  14.237  0.00  0.00    +0.000 HD
BRANCH  20  25
ATOM     24  C   UNL     1       7.092   2.570  11.688  0.00  0.00    +0.000 C 
ATOM     25  C   UNL     1       6.139   3.605  12.283  0.00  0.00    +0.000 C 
ATOM     26  C   UNL     1       4.707   3.331  11.834  0.00  0.00    +0.000 C 
ENDBRANCH  20  25
ENDBRANCH  19  21
ENDBRANCH  18  19
ENDBRANCH   1  18
TORSDOF 6
ENDMDL
MODEL 2
REMARK VINA RESULT:      -8.2      0.505      1.082
REMARK  Name = 
REMARK  8 active torsions:
REMARK  status: ('A' for Active; 'I' for Inactive)
REMARK    1  A    between atoms: C_1  and  C_2
REMARK    2  A    between atoms: C_2  and  C_3
REMARK    3  A    between atoms: C_2  and  N_4
REMARK    4  A    between atoms: C_5  and  C_7
REMARK    5  A    between atoms: C_7  and  S_8
REMARK    6  A    between atoms: S_8  and  C_9
REMARK    7  A    between atoms: C_12  and  C_13
REMARK    8  A    between atoms: N_19  and  C_20
REMARK                            x       y       z     vdW  Elec       q    Type
REMARK                         _______ _______ _______ _____ _____    ______ ____
ROOT
ATOM      1  C   UNL     1       4.816   5.590  16.631  0.00  0.00    +0.000 A 
ATOM      2  N   UNL     1       5.097   6.742  16.068  0.00  0.00    +0.000 NA
ATOM      3  N   UNL     1       4.246   7.683  16.586  0.00  0.00    +0.000 NA
ATOM      4  C   UNL     1       3.461   7.106  17.481  0.00  0.00    +0.000 A 
ATOM      5  N   UNL     1       3.733   5.725  17.484  0.00  0.00    +0.000 N 
ENDROOT
BRANCH   4   6
ATOM      6  C   UNL     1       2.523   7.834  18.354  0.00  0.00    +0.000 A 
ATOM      7  C   UNL     1       2.347   7.429  19.683  0.00  0.00    +0.000 A 
ATOM      8  C   UNL     1       1.506   8.171  20.499  0.00  0.00    +0.000 A 
ATOM      9  N   UNL     1       0.845   9.276  20.096  0.00  0.00    +0.000 NA
ATOM     10  C   UNL     1       0.995   9.631  18.806  0.00  0.00    +0.000 A 
ATOM     11  C   UNL     1       1.783   8.933  17.905  0.00  0.00    +0.000 A 
ENDBRANCH   4   6
BRANCH   5  12
ATOM     12  C   UNL     1       3.037   4.731  18.236  0.00  0.00    +0.000 A 
ATOM     13  C   UNL     1       3.670   4.116  19.327  0.00  0.00    +0.000 A 
ATOM     14  C   UNL     1       3.097   2.996  19.932  0.00  0.00    +0.000 A 
ATOM     15  C   UNL     1       1.867   2.519  19.485  0.00  0.00    +0.000 A 
ATOM     16  C   UNL     1       1.201   3.173  18.450  0.00  0.00    +0.000 A 
ATOM     17  C   UNL     1       1.781   4.275  17.820  0.00  0.00    +0.000 A 
ENDBRANCH   5  12
BRANCH   1  18
ATOM     18  S   UNL     1       5.569   4.080  16.203  0.00  0.00    +0.000 S 
BRANCH  18  19
ATOM     19  C   UNL     1       7.151   4.616  15.493  0.00  0.00    +0.000 C 
BRANCH  19  21
ATOM     20  N   UNL     1       6.236   3.564  13.478  0.00  0.00    +0.000 N 
ATOM     21  C   UNL     1       7.047   4.572  13.973  0.00  0.00    +0.000 C 
ATOM     22  O   UNL     1       7.636   5.374  13.249  0.00  0.00    +0.000 OA
ATOM     23  H   UNL     1       5.972   2.819  14.113  0.00  0.00    +0.000 HD
BRANCH  20  25
ATOM     24  C   UNL     1       6.737   2.035  11.614  0.00  0.00    +0.000 C 
ATOM     25  C   UNL     1       6.066   3.337  12.048  0.00  0.00    +0.000 C 
ATOM     26  C   UNL     1       4.582   3.316  11.692  0.00  0.00    +0.000 C 
ENDBRANCH  20  25
ENDBRANCH  19  21
ENDBRANCH  18  19
ENDBRANCH   1  18
TORSDOF 6
ENDMDL
MODEL 3
REMARK VINA RESULT:      -7.9      1.090      1.753
REMARK  Name = 
REMARK  8 active torsions:
REMARK  status: ('A' for Active; 'I' for Inactive)
REMARK    1  A    between atoms: C_1  and  C_2
REMARK    2  A    between atoms: C_2  and  C_3
REMARK    3  A    between atoms: C_2  and  N_4
REMARK    4  A    between atoms: C_5  and  C_7
REMARK    5  A    between atoms: C_7  and  S_8
REMARK    6  A    between atoms: S_8  and  C_9
REMARK    7  A    between atoms: C_12  and  C_13
REMARK    8  A    between atoms: N_19  and  C_20
REMARK                            x       y       z     vdW  Elec       q    Type
REMARK                         _______ _______ _______ _____ _____    ______ ____
ROOT
ATOM      1  C   UNL     1       5.112   5.275  16.249  0.00  0.00    +0.000 A 
ATOM      2  N   UNL     1       5.332   6.468  15.750  0.00  0.00    +0.000 NA
ATOM      3  N   UNL     1       4.512   7.355  16.400  0.00  0.00    +0.000 NA
ATOM      4  C   UNL     1       3.810   6.701  17.311  0.00  0.00    +0.000 A 
ATOM      5  N   UNL     1       4.099   5.329  17.193  0.00  0.00    +0.000 N 
ENDROOT
BRANCH   4   6
ATOM      6  C   UNL     1       2.936   7.347  18.306  0.00  0.00    +0.000 A 
ATOM      7  C   UNL     1       2.277   8.541  17.987  0.00  0.00    +0.000 A 
ATOM      8  C   UNL     1       1.412   9.094  18.920  0.00  0.00    +0.000 A 
ATOM      9  N   UNL     1       1.153   8.545  20.126  0.00  0.00    +0.000 NA
ATOM     10  C   UNL     1       1.823   7.419  20.433  0.00  0.00    +0.000 A 
ATOM     11  C   UNL     1       2.733   6.813  19.583  0.00  0.00    +0.000 A 
ENDBRANCH   4   6
BRANCH   5  12
ATOM     12  C   UNL     1       3.479   4.270  17.924  0.00  0.00    +0.000 A 
ATOM     13  C   UNL     1       4.156   3.682  19.003  0.00  0.00    +0.000 A 
ATOM     14  C   UNL     1       3.667   2.511  19.584  0.00  0.00    +0.000 A 
ATOM     15  C   UNL     1       2.476   1.954  19.126  0.00  0.00    +0.000 A 
ATOM     16  C   UNL     1       1.763   2.577  18.104  0.00  0.00    +0.000 A 
ATOM     17  C   UNL     1       2.260   3.732  17.497  0.00  0.00    +0.000 A 
ENDBRANCH   5  12
BRANCH   1  18
ATOM     18  S   UNL     1       5.847   3.813  15.655  0.00  0.00    +0.000 S 
BRANCH  18  19
ATOM     19  C   UNL     1       7.239   4.443  14.675  0.00  0.00    +0.000 C 
BRANCH  19  21
ATOM     20  N   UNL     1       5.946   3.276  12.953  0.00  0.00    +0.000 N 
ATOM     21  C   UNL     1       6.954   4.193  13.199  0.00  0.00    +0.000 C 
ATOM     22  O   UNL     1       7.570   4.768  12.302  0.00  0.00    +0.000 OA
ATOM     23  H   UNL     1       5.647   2.688  13.723  0.00  0.00    +0.000 HD
BRANCH  20  25
ATOM     24  C   UNL     1       5.903   1.399  11.359  0.00  0.00    +0.000 C 
ATOM     25  C   UNL     1       5.578   2.872  11.601  0.00  0.00    +0.000 C 
ATOM     26  C   UNL     1       4.095   3.137  11.359  0.00  0.00    +0.000 C 
ENDBRANCH  20  25
ENDBRANCH  19  21
ENDBRANCH  18  19
ENDBRANCH   1  18
TORSDOF 6
ENDMDL
MODEL 4
REMARK VINA RESULT:      -7.8      0.510      1.431
REMARK  Name = 
REMARK  8 active torsions:
REMARK  status: ('A' for Active; 'I' for Inactive)
REMARK    1  A    between atoms: C_1  and  C_2
REMARK    2  A    between atoms: C_2  and  C_3
REMARK    3  A    between atoms: C_2  and  N_4
REMARK    4  A    between atoms: C_5  and  C_7
REMARK    5  A    between atoms: C_7  and  S_8
REMARK    6  A    between atoms: S_8  and  C_9
REMARK    7  A    between atoms: C_12  and  C_13
REMARK    8  A    between atoms: N_19  and  C_20
REMARK                            x       y       z     vdW  Elec       q    Type
REMARK                         _______ _______ _______ _____ _____    ______ ____
ROOT
ATOM      1  C   UNL     1       4.429   5.409  17.176  0.00  0.00    +0.000 A 
ATOM      2  N   UNL     1       4.866   6.515  16.621  0.00  0.00    +0.000 NA
ATOM      3  N   UNL     1       4.090   7.550  17.076  0.00  0.00    +0.000 NA
ATOM      4  C   UNL     1       3.195   7.074  17.926  0.00  0.00    +0.000 A 
ATOM      5  N   UNL     1       3.316   5.673  17.959  0.00  0.00    +0.000 N 
ENDROOT
BRANCH   4   6
ATOM      6  C   UNL     1       2.290   7.912  18.733  0.00  0.00    +0.000 A 
ATOM      7  C   UNL     1       1.622   8.990  18.140  0.00  0.00    +0.000 A 
ATOM      8  C   UNL     1       0.728   9.722  18.907  0.00  0.00    +0.000 A 
ATOM      9  N   UNL     1       0.449   9.456  20.201  0.00  0.00    +0.000 NA
ATOM     10  C   UNL     1       1.128   8.441  20.767  0.00  0.00    +0.000 A 
ATOM     11  C   UNL     1       2.066   7.676  20.093  0.00  0.00    +0.000 A 
ENDBRANCH   4   6
BRANCH   5  12
ATOM     12  C   UNL     1       2.473   4.770  18.675  0.00  0.00    +0.000 A 
ATOM     13  C   UNL     1       2.731   4.504  20.028  0.00  0.00    +0.000 A 
ATOM     14  C   UNL     1       2.062   3.467  20.680  0.00  0.00    +0.000 A 
ATOM     15  C   UNL     1       1.097   2.728  20.000  0.00  0.00    +0.000 A 
ATOM     16  C   UNL     1       0.786   3.038  18.677  0.00  0.00    +0.000 A 
ATOM     17  C   UNL     1       1.472   4.054  18.009  0.00  0.00    +0.000 A 
ENDBRANCH   5  12
BRANCH   1  18
ATOM     18  S   UNL     1       5.039   3.820  16.809  0.00  0.00    +0.000 S 
BRANCH  18  19
ATOM     19  C   UNL     1       6.711   4.173  16.196  0.00  0.00    +0.000 C 
BRANCH  19  21
ATOM     20  N   UNL     1       6.110   3.541  13.907  0.00  0.00    +0.000 N 
ATOM     21  C   UNL     1       6.626   4.538  14.719  0.00  0.00    +0.000 C 
ATOM     22  O   UNL     1       6.983   5.633  14.289  0.00  0.00    +0.000 OA
ATOM     23  H   UNL     1       6.051   2.605  14.291  0.00  0.00    +0.000 HD
BRANCH  20  25
ATOM     24  C   UNL     1       7.379   3.954  11.837  0.00  0.00    +0.000 C 
ATOM     25  C   UNL     1       6.009   3.694  12.460  0.00  0.00    +0.000 C 
ATOM     26  C   UNL     1       5.371   2.452  11.844  0.00  0.00    +0.000 C 
ENDBRANCH  20  25
ENDBRANCH  19  21
ENDBRANCH  18  19
ENDBRANCH   1  18
TORSDOF 6
ENDMDL
MODEL 5
REMARK VINA RESULT:      -7.8      1.712      3.334
REMARK  Name = 
REMARK  8 active torsions:
REMARK  status: ('A' for Active; 'I' for Inactive)
REMARK    1  A    between atoms: C_1  and  C_2
REMARK    2  A    between atoms: C_2  and  C_3
REMARK    3  A    between atoms: C_2  and  N_4
REMARK    4  A    between atoms: C_5  and  C_7
REMARK    5  A    between atoms: C_7  and  S_8
REMARK    6  A    between atoms: S_8  and  C_9
REMARK    7  A    between atoms: C_12  and  C_13
REMARK    8  A    between atoms: N_19  and  C_20
REMARK                            x       y       z     vdW  Elec       q    Type
REMARK                         _______ _______ _______ _____ _____    ______ ____
ROOT
ATOM      1  C   UNL     1       4.305   4.001  16.790  0.00  0.00    +0.000 A 
ATOM      2  N   UNL     1       3.065   3.575  16.759  0.00  0.00    +0.000 NA
ATOM      3  N   UNL     1       2.300   4.452  17.484  0.00  0.00    +0.000 NA
ATOM      4  C   UNL     1       3.074   5.425  17.936  0.00  0.00    +0.000 A 
ATOM      5  N   UNL     1       4.405   5.131  17.587  0.00  0.00    +0.000 N 
ENDROOT
BRANCH   4   6
ATOM      6  C   UNL     1       2.576   6.628  18.626  0.00  0.00    +0.000 A 
ATOM      7  C   UNL     1       2.374   7.813  17.907  0.00  0.00    +0.000 A 
ATOM      8  C   UNL     1       1.845   8.911  18.568  0.00  0.00    +0.000 A 
ATOM      9  N   UNL     1       1.500   8.912  19.873  0.00  0.00    +0.000 NA
ATOM     10  C   UNL     1       1.736   7.778  20.560  0.00  0.00    +0.000 A 
ATOM     11  C   UNL     1       2.294   6.643  19.996  0.00  0.00    +0.000 A 
ENDBRANCH   4   6
BRANCH   5  12
ATOM     12  C   UNL     1       5.561   5.876  17.968  0.00  0.00    +0.000 A 
ATOM     13  C   UNL     1       5.922   7.021  17.241  0.00  0.00    +0.000 A 
ATOM     14  C   UNL     1       7.158   7.630  17.458  0.00  0.00    +0.000 A 
ATOM     15  C   UNL     1       8.016   7.132  18.436  0.00  0.00    +0.000 A 
ATOM     16  C   UNL     1       7.629   6.039  19.210  0.00  0.00    +0.000 A 
ATOM     17  C   UNL     1       6.406   5.406  18.980  0.00  0.00    +0.000 A 
ENDBRANCH   5  12
BRANCH   1  18
ATOM     18  S   UNL     1       5.654   3.145  16.098  0.00  0.00    +0.000 S 
BRANCH  18  19
ATOM     19  C   UNL     1       6.707   4.494  15.493  0.00  0.00    +0.000 C 
BRANCH  19  21
ATOM     20  N   UNL     1       5.922   3.481  13.406  0.00  0.00    +0.000 N 
ATOM     21  C   UNL     1       6.725   4.458  13.970  0.00  0.00    +0.000 C 
ATOM     22  O   UNL     1       7.398   5.241  13.300  0.00  0.00    +0.000 OA
ATOM     23  H   UNL     1       5.582   2.744  14.013  0.00  0.00    +0.000 HD
BRANCH  20  25
ATOM     24  C   UNL     1       6.587   1.981  11.570  0.00  0.00    +0.000 C 
ATOM     25  C   UNL     1       5.860   3.265  11.965  0.00  0.00    +0.000 C 
ATOM     26  C   UNL     1       4.406   3.217  11.503  0.00  0.00    +0.000 C 
ENDBRANCH  20  25
ENDBRANCH  19  21
ENDBRANCH  18  19
ENDBRANCH   1  18
TORSDOF 6
ENDMDL
MODEL 6
REMARK VINA RESULT:      -7.6      3.301      5.470
REMARK  Name = 
REMARK  8 active torsions:
REMARK  status: ('A' for Active; 'I' for Inactive)
REMARK    1  A    between atoms: C_1  and  C_2
REMARK    2  A    between atoms: C_2  and  C_3
REMARK    3  A    between atoms: C_2  and  N_4
REMARK    4  A    between atoms: C_5  and  C_7
REMARK    5  A    between atoms: C_7  and  S_8
REMARK    6  A    between atoms: S_8  and  C_9
REMARK    7  A    between atoms: C_12  and  C_13
REMARK    8  A    between atoms: N_19  and  C_20
REMARK                            x       y       z     vdW  Elec       q    Type
REMARK                         _______ _______ _______ _____ _____    ______ ____
ROOT
ATOM      1  C   UNL     1       3.244   4.010  17.344  0.00  0.00    +0.000 A 
ATOM      2  N   UNL     1       1.938   3.885  17.338  0.00  0.00    +0.000 NA
ATOM      3  N   UNL     1       1.401   5.056  17.805  0.00  0.00    +0.000 NA
ATOM      4  C   UNL     1       2.382   5.901  18.075  0.00  0.00    +0.000 A 
ATOM      5  N   UNL     1       3.607   5.238  17.875  0.00  0.00    +0.000 N 
ENDROOT
BRANCH   4   6
ATOM      6  C   UNL     1       2.182   7.312  18.451  0.00  0.00    +0.000 A 
ATOM      7  C   UNL     1       2.247   8.313  17.474  0.00  0.00    +0.000 A 
ATOM      8  C   UNL     1       1.993   9.625  17.846  0.00  0.00    +0.000 A 
ATOM      9  N   UNL     1       1.673  10.004  19.101  0.00  0.00    +0.000 NA
ATOM     10  C   UNL     1       1.652   9.037  20.037  0.00  0.00    +0.000 A 
ATOM     11  C   UNL     1       1.928   7.706  19.769  0.00  0.00    +0.000 A 
ENDBRANCH   4   6
BRANCH   5  12
ATOM     12  C   UNL     1       4.906   5.764  18.148  0.00  0.00    +0.000 A 
ATOM     13  C   UNL     1       5.496   6.660  17.244  0.00  0.00    +0.000 A 
ATOM     14  C   UNL     1       6.840   7.010  17.379  0.00  0.00    +0.000 A 
ATOM     15  C   UNL     1       7.585   6.508  18.444  0.00  0.00    +0.000 A 
ATOM     16  C   UNL     1       6.981   5.676  19.385  0.00  0.00    +0.000 A 
ATOM     17  C   UNL     1       5.644   5.297  19.241  0.00  0.00    +0.000 A 
ENDBRANCH   5  12
BRANCH   1  18
ATOM     18  S   UNL     1       4.354   2.731  16.937  0.00  0.00    +0.000 S 
BRANCH  18  19
ATOM     19  C   UNL     1       3.858   1.404  18.072  0.00  0.00    +0.000 C 
BRANCH  19  21
ATOM     20  N   UNL     1       2.677   2.361  19.993  0.00  0.00    +0.000 N 
ATOM     21  C   UNL     1       3.900   1.938  19.499  0.00  0.00    +0.000 C 
ATOM     22  O   UNL     1       4.938   1.981  20.156  0.00  0.00    +0.000 OA
ATOM     23  H   UNL     1       1.925   2.503  19.329  0.00  0.00    +0.000 HD
BRANCH  20  25
ATOM     24  C   UNL     1       2.360   4.467  21.230  0.00  0.00    +0.000 C 
ATOM     25  C   UNL     1       2.540   2.953  21.319  0.00  0.00    +0.000 C 
ATOM     26  C   UNL     1       1.363   2.320  22.057  0.00  0.00    +0.000 C 
ENDBRANCH  20  25
ENDBRANCH  19  21
ENDBRANCH  18  19
ENDBRANCH   1  18
TORSDOF 6
ENDMDL
MODEL 7
REMARK VINA RESULT:      -7.6      1.832      3.236
REMARK  Name = 
REMARK  8 active torsions:
REMARK  status: ('A' for Active; 'I' for Inactive)
REMARK    1  A    between atoms: C_1  and  C_2
REMARK    2  A    between atoms: C_2  and  C_3
REMARK    3  A    between atoms: C_2  and  N_4
REMARK    4  A    between atoms: C_5  and  C_7
REMARK    5  A    between atoms: C_7  and  S_8
REMARK    6  A    between atoms: S_8  and  C_9
REMARK    7  A    between atoms: C_12  and  C_13
REMARK    8  A    between atoms: N_19  and  C_20
REMARK                            x       y       z     vdW  Elec       q    Type
REMARK                         _______ _______ _______ _____ _____    ______ ____
ROOT
ATOM      1  C   UNL     1       3.952   5.290  17.495  0.00  0.00    +0.000 A 
ATOM      2  N   UNL     1       4.274   6.344  16.783  0.00  0.00    +0.000 NA
ATOM      3  N   UNL     1       3.558   7.411  17.262  0.00  0.00    +0.000 NA
ATOM      4  C   UNL     1       2.817   7.008  18.281  0.00  0.00    +0.000 A 
ATOM      5  N   UNL     1       2.970   5.616  18.417  0.00  0.00    +0.000 N 
ENDROOT
BRANCH   4   6
ATOM      6  C   UNL     1       2.031   7.909  19.143  0.00  0.00    +0.000 A 
ATOM      7  C   UNL     1       1.451   9.063  18.603  0.00  0.00    +0.000 A 
ATOM      8  C   UNL     1       0.666   9.859  19.424  0.00  0.00    +0.000 A 
ATOM      9  N   UNL     1       0.412   9.587  20.721  0.00  0.00    +0.000 NA
ATOM     10  C   UNL     1       1.008   8.495  21.235  0.00  0.00    +0.000 A 
ATOM     11  C   UNL     1       1.838   7.660  20.506  0.00  0.00    +0.000 A 
ENDBRANCH   4   6
BRANCH   5  12
ATOM     12  C   UNL     1       2.268   4.776  19.334  0.00  0.00    +0.000 A 
ATOM     13  C   UNL     1       2.720   4.661  20.657  0.00  0.00    +0.000 A 
ATOM     14  C   UNL     1       2.186   3.685  21.499  0.00  0.00    +0.000 A 
ATOM     15  C   UNL     1       1.165   2.856  21.042  0.00  0.00    +0.000 A 
ATOM     16  C   UNL     1       0.663   3.017  19.751  0.00  0.00    +0.000 A 
ATOM     17  C   UNL     1       1.212   3.971  18.892  0.00  0.00    +0.000 A 
ENDBRANCH   5  12
BRANCH   1  18
ATOM     18  S   UNL     1       4.530   3.679  17.178  0.00  0.00    +0.000 S 
BRANCH  18  19
ATOM     19  C   UNL     1       5.611   3.925  15.740  0.00  0.00    +0.000 C 
BRANCH  19  21
ATOM     20  N   UNL     1       6.818   5.125  17.502  0.00  0.00    +0.000 N 
ATOM     21  C   UNL     1       6.824   4.740  16.172  0.00  0.00    +0.000 C 
ATOM     22  O   UNL     1       7.735   5.026  15.396  0.00  0.00    +0.000 OA
ATOM     23  H   UNL     1       5.944   5.048  18.010  0.00  0.00    +0.000 HD
BRANCH  20  25
ATOM     24  C   UNL     1       7.637   7.433  17.757  0.00  0.00    +0.000 C 
ATOM     25  C   UNL     1       7.870   5.957  18.073  0.00  0.00    +0.000 C 
ATOM     26  C   UNL     1       7.948   5.743  19.583  0.00  0.00    +0.000 C 
ENDBRANCH  20  25
ENDBRANCH  19  21
ENDBRANCH  18  19
ENDBRANCH   1  18
TORSDOF 6
ENDMDL
MODEL 8
REMARK VINA RESULT:      -7.3      1.695      3.040
REMARK  Name = 
REMARK  8 active torsions:
REMARK  status: ('A' for Active; 'I' for Inactive)
REMARK    1  A    between atoms: C_1  and  C_2
REMARK    2  A    between atoms: C_2  and  C_3
REMARK    3  A    between atoms: C_2  and  N_4
REMARK    4  A    between atoms: C_5  and  C_7
REMARK    5  A    between atoms: C_7  and  S_8
REMARK    6  A    between atoms: S_8  and  C_9
REMARK    7  A    between atoms: C_12  and  C_13
REMARK    8  A    between atoms: N_19  and  C_20
REMARK                            x       y       z     vdW  Elec       q    Type
REMARK                         _______ _______ _______ _____ _____    ______ ____
ROOT
ATOM      1  C   UNL     1       4.154   5.155  17.251  0.00  0.00    +0.000 A 
ATOM      2  N   UNL     1       4.427   6.249  16.579  0.00  0.00    +0.000 NA
ATOM      3  N   UNL     1       3.700   7.273  17.128  0.00  0.00    +0.000 NA
ATOM      4  C   UNL     1       3.002   6.805  18.150  0.00  0.00    +0.000 A 
ATOM      5  N   UNL     1       3.194   5.413  18.217  0.00  0.00    +0.000 N 
ENDROOT
BRANCH   4   6
ATOM      6  C   UNL     1       2.222   7.645  19.076  0.00  0.00    +0.000 A 
ATOM      7  C   UNL     1       1.655   8.843  18.624  0.00  0.00    +0.000 A 
ATOM      8  C   UNL     1       0.874   9.582  19.501  0.00  0.00    +0.000 A 
ATOM      9  N   UNL     1       0.614   9.214  20.773  0.00  0.00    +0.000 NA
ATOM     10  C   UNL     1       1.198   8.081  21.204  0.00  0.00    +0.000 A 
ATOM     11  C   UNL     1       2.023   7.295  20.416  0.00  0.00    +0.000 A 
ENDBRANCH   4   6
BRANCH   5  12
ATOM     12  C   UNL     1       2.543   4.514  19.116  0.00  0.00    +0.000 A 
ATOM     13  C   UNL     1       1.310   3.948  18.759  0.00  0.00    +0.000 A 
ATOM     14  C   UNL     1       0.559   3.248  19.705  0.00  0.00    +0.000 A 
ATOM     15  C   UNL     1       1.059   3.067  20.992  0.00  0.00    +0.000 A 
ATOM     16  C   UNL     1       2.317   3.566  21.328  0.00  0.00    +0.000 A 
ATOM     17  C   UNL     1       3.062   4.292  20.397  0.00  0.00    +0.000 A 
ENDBRANCH   5  12
BRANCH   1  18
ATOM     18  S   UNL     1       4.762   3.576  16.843  0.00  0.00    +0.000 S 
BRANCH  18  19
ATOM     19  C   UNL     1       5.938   3.940  15.509  0.00  0.00    +0.000 C 
BRANCH  19  21
ATOM     20  N   UNL     1       7.035   5.034  17.407  0.00  0.00    +0.000 N 
ATOM     21  C   UNL     1       6.978   4.927  16.027  0.00  0.00    +0.000 C 
ATOM     22  O   UNL     1       7.708   5.569  15.274  0.00  0.00    +0.000 OA
ATOM     23  H   UNL     1       6.264   4.650  17.941  0.00  0.00    +0.000 HD
BRANCH  20  25
ATOM     24  C   UNL     1       7.552   7.416  17.757  0.00  0.00    +0.000 C 
ATOM     25  C   UNL     1       7.931   5.971  18.074  0.00  0.00    +0.000 C 
ATOM     26  C   UNL     1       7.910   5.734  19.582  0.00  0.00    +0.000 C 
ENDBRANCH  20  25
ENDBRANCH  19  21
ENDBRANCH  18  19
ENDBRANCH   1  18
TORSDOF 6
ENDMDL
MODEL 9
REMARK VINA RESULT:      -7.2      0.924      1.201
REMARK  Name = 
REMARK  8 active torsions:
REMARK  status: ('A' for Active; 'I' for Inactive)
REMARK    1  A    between atoms: C_1  and  C_2
REMARK    2  A    between atoms: C_2  and  C_3
REMARK    3  A    between atoms: C_2  and  N_4
REMARK    4  A    between atoms: C_5  and  C_7
REMARK    5  A    between atoms: C_7  and  S_8
REMARK    6  A    between atoms: S_8  and  C_9
REMARK    7  A    between atoms: C_12  and  C_13
REMARK    8  A    between atoms: N_19  and  C_20
REMARK                            x       y       z     vdW  Elec       q    Type
REMARK                         _______ _______ _______ _____ _____    ______ ____
ROOT
ATOM      1  C   UNL     1       5.125   5.413  16.347  0.00  0.00    +0.000 A 
ATOM      2  N   UNL     1       5.377   6.616  15.888  0.00  0.00    +0.000 NA
ATOM      3  N   UNL     1       4.517   7.489  16.502  0.00  0.00    +0.000 NA
ATOM      4  C   UNL     1       3.757   6.818  17.352  0.00  0.00    +0.000 A 
ATOM      5  N   UNL     1       4.053   5.449  17.225  0.00  0.00    +0.000 N 
ENDROOT
BRANCH   4   6
ATOM      6  C   UNL     1       2.822   7.446  18.302  0.00  0.00    +0.000 A 
ATOM      7  C   UNL     1       2.652   6.899  19.580  0.00  0.00    +0.000 A 
ATOM      8  C   UNL     1       1.812   7.547  20.474  0.00  0.00    +0.000 A 
ATOM      9  N   UNL     1       1.147   8.688  20.194  0.00  0.00    +0.000 NA
ATOM     10  C   UNL     1       1.291   9.179  18.950  0.00  0.00    +0.000 A 
ATOM     11  C   UNL     1       2.077   8.584  17.976  0.00  0.00    +0.000 A 
ENDBRANCH   4   6
BRANCH   5  12
ATOM     12  C   UNL     1       3.388   4.376  17.893  0.00  0.00    +0.000 A 
ATOM     13  C   UNL     1       2.065   4.058  17.549  0.00  0.00    +0.000 A 
ATOM     14  C   UNL     1       1.330   3.169  18.335  0.00  0.00    +0.000 A 
ATOM     15  C   UNL     1       1.928   2.555  19.432  0.00  0.00    +0.000 A 
ATOM     16  C   UNL     1       3.265   2.813  19.732  0.00  0.00    +0.000 A 
ATOM     17  C   UNL     1       3.998   3.724  18.970  0.00  0.00    +0.000 A 
ENDBRANCH   5  12
BRANCH   1  18
ATOM     18  S   UNL     1       5.897   3.962  15.771  0.00  0.00    +0.000 S 
BRANCH  18  19
ATOM     19  C   UNL     1       7.098   4.605  14.572  0.00  0.00    +0.000 C 
BRANCH  19  21
ATOM     20  N   UNL     1       5.770   3.089  13.180  0.00  0.00    +0.000 N 
ATOM     21  C   UNL     1       6.745   4.072  13.189  0.00  0.00    +0.000 C 
ATOM     22  O   UNL     1       7.284   4.490  12.165  0.00  0.00    +0.000 OA
ATOM     23  H   UNL     1       5.541   2.646  14.063  0.00  0.00    +0.000 HD
BRANCH  20  25
ATOM     24  C   UNL     1       4.443   3.332  11.120  0.00  0.00    +0.000 C 
ATOM     25  C   UNL     1       5.349   2.426  11.952  0.00  0.00    +0.000 C 
ATOM     26  C   UNL     1       6.569   2.002  11.139  0.00  0.00    +0.000 C 
ENDBRANCH  20  25
ENDBRANCH  19  21
ENDBRANCH  18  19
ENDBRANCH   1  18
TORSDOF 6
ENDMDL
