MODEL 1
REMARK VINA RESULT:      -7.9      0.000      0.000
REMARK  Name = 
REMARK  5 active torsions:
REMARK  status: ('A' for Active; 'I' for Inactive)
REMARK    1  A    between atoms: C_8  and  C_9
REMARK    2  A    between atoms: C_9  and  O_10
REMARK    3  A    between atoms: O_10  and  C_11
REMARK    4  A    between atoms: C_11  and  C_13
REMARK    5  A    between atoms: C_13  and  C_14
REMARK                            x       y       z     vdW  Elec       q    Type
REMARK                         _______ _______ _______ _____ _____    ______ ____
ROOT
ATOM      1  O   UNL     1       2.276   3.521  22.037  0.00  0.00    +0.000 OA
ATOM      2  C   UNL     1       1.555   3.761  21.090  0.00  0.00    +0.000 C 
ATOM      3  C   UNL     1       0.760   2.755  20.305  0.00  0.00    +0.000 C 
ATOM      4  C   UNL     1       1.609   2.227  19.398  0.00  0.00    +0.000 C 
ATOM      5  C   UNL     1       1.894   3.042  18.138  0.00  0.00    +0.000 C 
ATOM      6  C   UNL     1       3.043   4.019  18.461  0.00  0.00    +0.000 C 
ATOM      7  O   UNL     1       3.490   4.826  17.334  0.00  0.00    +0.000 OA
ATOM      8  C   UNL     1       4.007   6.020  17.965  0.00  0.00    +0.000 C 
ATOM      9  C   UNL     1       2.863   6.362  18.895  0.00  0.00    +0.000 C 
ATOM     10  C   UNL     1       2.780   5.033  19.622  0.00  0.00    +0.000 C 
ATOM     11  O   UNL     1       1.550   4.892  20.328  0.00  0.00    +0.000 OA
ENDROOT
BRANCH   8  12
ATOM     12  C   UNL     1       4.491   7.144  17.066  0.00  0.00    +0.000 C 
BRANCH  12  13
ATOM     13  O   UNL     1       5.364   6.696  16.037  0.00  0.00    +0.000 OA
BRANCH  13  14
ATOM     14  C   UNL     1       6.652   6.493  16.439  0.00  0.00    +0.000 C 
ATOM     15  O   UNL     1       7.403   7.345  16.893  0.00  0.00    +0.000 OA
BRANCH  14  16
ATOM     16  C   UNL     1       7.048   5.066  16.175  0.00  0.00    +0.000 C 
BRANCH  16  17
ATOM     17  C   UNL     1       6.869   4.684  14.729  0.00  0.00    +0.000 A 
ATOM     18  C   UNL     1       7.745   5.182  13.756  0.00  0.00    +0.000 A 
ATOM     19  C   UNL     1       7.590   4.824  12.417  0.00  0.00    +0.000 A 
ATOM     20  C   UNL     1       6.550   3.979  12.035  0.00  0.00    +0.000 A 
ATOM     21  C   UNL     1       5.654   3.503  12.990  0.00  0.00    +0.000 A 
ATOM     22  C   UNL     1       5.808   3.857  14.332  0.00  0.00    +0.000 A 
ENDBRANCH  16  17
ENDBRANCH  14  16
ENDBRANCH  13  14
ENDBRANCH  12  13
ENDBRANCH   8  12
TORSDOF 5
ENDMDL
MODEL 2
REMARK VINA RESULT:      -7.6      1.474      2.238
REMARK  Name = 
REMARK  5 active torsions:
REMARK  status: ('A' for Active; 'I' for Inactive)
REMARK    1  A    between atoms: C_8  and  C_9
REMARK    2  A    between atoms: C_9  and  O_10
REMARK    3  A    between atoms: O_10  and  C_11
REMARK    4  A    between atoms: C_11  and  C_13
REMARK    5  A    between atoms: C_13  and  C_14
REMARK                            x       y       z     vdW  Elec       q    Type
REMARK                         _______ _______ _______ _____ _____    ______ ____
ROOT
ATOM      1  O   UNL     1       0.250   2.433  18.361  0.00  0.00    +0.000 OA
ATOM      2  C   UNL     1       1.196   2.458  19.122  0.00  0.00    +0.000 C 
ATOM      3  C   UNL     1       1.129   2.621  20.614  0.00  0.00    +0.000 C 
ATOM      4  C   UNL     1       1.036   3.947  20.846  0.00  0.00    +0.000 C 
ATOM      5  C   UNL     1       2.321   4.770  20.775  0.00  0.00    +0.000 C 
ATOM      6  C   UNL     1       2.543   5.168  19.302  0.00  0.00    +0.000 C 
ATOM      7  O   UNL     1       3.697   6.025  19.071  0.00  0.00    +0.000 OA
ATOM      8  C   UNL     1       4.075   5.714  17.710  0.00  0.00    +0.000 C 
ATOM      9  C   UNL     1       4.098   4.201  17.766  0.00  0.00    +0.000 C 
ATOM     10  C   UNL     1       2.687   3.991  18.283  0.00  0.00    +0.000 C 
ATOM     11  O   UNL     1       2.503   2.674  18.798  0.00  0.00    +0.000 OA
ENDROOT
BRANCH   8  12
ATOM     12  C   UNL     1       5.322   6.376  17.152  0.00  0.00    +0.000 C 
BRANCH  12  13
ATOM     13  O   UNL     1       6.526   5.787  17.629  0.00  0.00    +0.000 OA
BRANCH  13  14
ATOM     14  C   UNL     1       7.270   5.170  16.668  0.00  0.00    +0.000 C 
ATOM     15  O   UNL     1       7.985   4.191  16.833  0.00  0.00    +0.000 OA
BRANCH  14  16
ATOM     16  C   UNL     1       7.144   5.918  15.369  0.00  0.00    +0.000 C 
BRANCH  16  17
ATOM     17  C   UNL     1       6.770   5.011  14.225  0.00  0.00    +0.000 A 
ATOM     18  C   UNL     1       5.638   4.192  14.319  0.00  0.00    +0.000 A 
ATOM     19  C   UNL     1       5.280   3.357  13.259  0.00  0.00    +0.000 A 
ATOM     20  C   UNL     1       6.059   3.322  12.104  0.00  0.00    +0.000 A 
ATOM     21  C   UNL     1       7.205   4.110  12.013  0.00  0.00    +0.000 A 
ATOM     22  C   UNL     1       7.564   4.948  13.071  0.00  0.00    +0.000 A 
ENDBRANCH  16  17
ENDBRANCH  14  16
ENDBRANCH  13  14
ENDBRANCH  12  13
ENDBRANCH   8  12
TORSDOF 5
ENDMDL
MODEL 3
REMARK VINA RESULT:      -7.6      1.066      1.502
REMARK  Name = 
REMARK  5 active torsions:
REMARK  status: ('A' for Active; 'I' for Inactive)
REMARK    1  A    between atoms: C_8  and  C_9
REMARK    2  A    between atoms: C_9  and  O_10
REMARK    3  A    between atoms: O_10  and  C_11
REMARK    4  A    between atoms: C_11  and  C_13
REMARK    5  A    between atoms: C_13  and  C_14
REMARK                            x       y       z     vdW  Elec       q    Type
REMARK                         _______ _______ _______ _____ _____    ______ ____
ROOT
ATOM      1  O   UNL     1       2.947   2.633  21.980  0.00  0.00    +0.000 OA
ATOM      2  C   UNL     1       2.185   3.396  21.422  0.00  0.00    +0.000 C 
ATOM      3  C   UNL     1       0.820   3.056  20.893  0.00  0.00    +0.000 C 
ATOM      4  C   UNL     1       1.012   2.516  19.671  0.00  0.00    +0.000 C 
ATOM      5  C   UNL     1       1.268   3.471  18.507  0.00  0.00    +0.000 C 
ATOM      6  C   UNL     1       2.779   3.777  18.475  0.00  0.00    +0.000 C 
ATOM      7  O   UNL     1       3.204   4.624  17.368  0.00  0.00    +0.000 OA
ATOM      8  C   UNL     1       4.382   5.283  17.888  0.00  0.00    +0.000 C 
ATOM      9  C   UNL     1       3.862   5.772  19.223  0.00  0.00    +0.000 C 
ATOM     10  C   UNL     1       3.378   4.438  19.759  0.00  0.00    +0.000 C 
ATOM     11  O   UNL     1       2.493   4.602  20.865  0.00  0.00    +0.000 OA
ENDROOT
BRANCH   8  12
ATOM     12  C   UNL     1       5.054   6.327  17.015  0.00  0.00    +0.000 C 
BRANCH  12  13
ATOM     13  O   UNL     1       6.465   6.166  16.940  0.00  0.00    +0.000 OA
BRANCH  13  14
ATOM     14  C   UNL     1       6.875   4.883  16.727  0.00  0.00    +0.000 C 
ATOM     15  O   UNL     1       7.876   4.363  17.201  0.00  0.00    +0.000 OA
BRANCH  14  16
ATOM     16  C   UNL     1       5.948   4.208  15.755  0.00  0.00    +0.000 C 
BRANCH  16  17
ATOM     17  C   UNL     1       6.445   4.300  14.336  0.00  0.00    +0.000 A 
ATOM     18  C   UNL     1       5.899   3.475  13.345  0.00  0.00    +0.000 A 
ATOM     19  C   UNL     1       6.348   3.561  12.027  0.00  0.00    +0.000 A 
ATOM     20  C   UNL     1       7.359   4.461  11.691  0.00  0.00    +0.000 A 
ATOM     21  C   UNL     1       7.931   5.264  12.676  0.00  0.00    +0.000 A 
ATOM     22  C   UNL     1       7.481   5.181  13.995  0.00  0.00    +0.000 A 
ENDBRANCH  16  17
ENDBRANCH  14  16
ENDBRANCH  13  14
ENDBRANCH  12  13
ENDBRANCH   8  12
TORSDOF 5
ENDMDL
MODEL 4
REMARK VINA RESULT:      -7.6      1.428      2.118
REMARK  Name = 
REMARK  5 active torsions:
REMARK  status: ('A' for Active; 'I' for Inactive)
REMARK    1  A    between atoms: C_8  and  C_9
REMARK    2  A    between atoms: C_9  and  O_10
REMARK    3  A    between atoms: O_10  and  C_11
REMARK    4  A    between atoms: C_11  and  C_13
REMARK    5  A    between atoms: C_13  and  C_14
REMARK                            x       y       z     vdW  Elec       q    Type
REMARK                         _______ _______ _______ _____ _____    ______ ____
ROOT
ATOM      1  O   UNL     1       0.731   2.912  17.835  0.00  0.00    +0.000 OA
ATOM      2  C   UNL     1       1.341   2.724  18.867  0.00  0.00    +0.000 C 
ATOM      3  C   UNL     1       0.803   2.901  20.259  0.00  0.00    +0.000 C 
ATOM      4  C   UNL     1       0.921   4.215  20.546  0.00  0.00    +0.000 C 
ATOM      5  C   UNL     1       2.297   4.725  20.972  0.00  0.00    +0.000 C 
ATOM      6  C   UNL     1       3.091   5.058  19.693  0.00  0.00    +0.000 C 
ATOM      7  O   UNL     1       4.409   5.631  19.927  0.00  0.00    +0.000 OA
ATOM      8  C   UNL     1       5.155   5.238  18.752  0.00  0.00    +0.000 C 
ATOM      9  C   UNL     1       4.833   3.760  18.698  0.00  0.00    +0.000 C 
ATOM     10  C   UNL     1       3.321   3.877  18.695  0.00  0.00    +0.000 C 
ATOM     11  O   UNL     1       2.694   2.637  19.017  0.00  0.00    +0.000 OA
ENDROOT
BRANCH   8  12
ATOM     12  C   UNL     1       6.628   5.599  18.695  0.00  0.00    +0.000 C 
BRANCH  12  13
ATOM     13  O   UNL     1       6.944   6.481  17.624  0.00  0.00    +0.000 OA
BRANCH  13  14
ATOM     14  C   UNL     1       6.447   6.098  16.413  0.00  0.00    +0.000 C 
ATOM     15  O   UNL     1       5.586   6.686  15.774  0.00  0.00    +0.000 OA
BRANCH  14  16
ATOM     16  C   UNL     1       7.065   4.791  16.000  0.00  0.00    +0.000 C 
BRANCH  16  17
ATOM     17  C   UNL     1       6.969   4.560  14.515  0.00  0.00    +0.000 A 
ATOM     18  C   UNL     1       7.801   5.266  13.637  0.00  0.00    +0.000 A 
ATOM     19  C   UNL     1       7.723   5.050  12.261  0.00  0.00    +0.000 A 
ATOM     20  C   UNL     1       6.802   4.138  11.749  0.00  0.00    +0.000 A 
ATOM     21  C   UNL     1       5.947   3.454  12.610  0.00  0.00    +0.000 A 
ATOM     22  C   UNL     1       6.025   3.666  13.988  0.00  0.00    +0.000 A 
ENDBRANCH  16  17
ENDBRANCH  14  16
ENDBRANCH  13  14
ENDBRANCH  12  13
ENDBRANCH   8  12
TORSDOF 5
ENDMDL
MODEL 5
REMARK VINA RESULT:      -7.5      1.201      1.441
REMARK  Name = 
REMARK  5 active torsions:
REMARK  status: ('A' for Active; 'I' for Inactive)
REMARK    1  A    between atoms: C_8  and  C_9
REMARK    2  A    between atoms: C_9  and  O_10
REMARK    3  A    between atoms: O_10  and  C_11
REMARK    4  A    between atoms: C_11  and  C_13
REMARK    5  A    between atoms: C_13  and  C_14
REMARK                            x       y       z     vdW  Elec       q    Type
REMARK                         _______ _______ _______ _____ _____    ______ ____
ROOT
ATOM      1  O   UNL     1       1.078   3.047  21.310  0.00  0.00    +0.000 OA
ATOM      2  C   UNL     1       1.090   3.502  20.185  0.00  0.00    +0.000 C 
ATOM      3  C   UNL     1       0.549   2.832  18.953  0.00  0.00    +0.000 C 
ATOM      4  C   UNL     1       1.519   1.999  18.519  0.00  0.00    +0.000 C 
ATOM      5  C   UNL     1       2.674   2.610  17.727  0.00  0.00    +0.000 C 
ATOM      6  C   UNL     1       3.725   3.108  18.739  0.00  0.00    +0.000 C 
ATOM      7  O   UNL     1       4.934   3.656  18.140  0.00  0.00    +0.000 OA
ATOM      8  C   UNL     1       5.399   4.599  19.134  0.00  0.00    +0.000 C 
ATOM      9  C   UNL     1       4.125   5.368  19.407  0.00  0.00    +0.000 C 
ATOM     10  C   UNL     1       3.241   4.187  19.763  0.00  0.00    +0.000 C 
ATOM     11  O   UNL     1       1.858   4.530  19.723  0.00  0.00    +0.000 OA
ENDROOT
BRANCH   8  12
ATOM     12  C   UNL     1       6.621   5.436  18.799  0.00  0.00    +0.000 C 
BRANCH  12  13
ATOM     13  O   UNL     1       6.342   6.484  17.879  0.00  0.00    +0.000 OA
BRANCH  13  14
ATOM     14  C   UNL     1       6.089   6.064  16.606  0.00  0.00    +0.000 C 
ATOM     15  O   UNL     1       5.079   6.307  15.959  0.00  0.00    +0.000 OA
BRANCH  14  16
ATOM     16  C   UNL     1       7.212   5.186  16.128  0.00  0.00    +0.000 C 
BRANCH  16  17
ATOM     17  C   UNL     1       7.058   4.804  14.678  0.00  0.00    +0.000 A 
ATOM     18  C   UNL     1       7.733   5.527  13.686  0.00  0.00    +0.000 A 
ATOM     19  C   UNL     1       7.602   5.173  12.343  0.00  0.00    +0.000 A 
ATOM     20  C   UNL     1       6.784   4.105  11.978  0.00  0.00    +0.000 A 
ATOM     21  C   UNL     1       6.084   3.399  12.955  0.00  0.00    +0.000 A 
ATOM     22  C   UNL     1       6.215   3.750  14.300  0.00  0.00    +0.000 A 
ENDBRANCH  16  17
ENDBRANCH  14  16
ENDBRANCH  13  14
ENDBRANCH  12  13
ENDBRANCH   8  12
TORSDOF 5
ENDMDL
MODEL 6
REMARK VINA RESULT:      -7.4      2.257      6.747
REMARK  Name = 
REMARK  5 active torsions:
REMARK  status: ('A' for Active; 'I' for Inactive)
REMARK    1  A    between atoms: C_8  and  C_9
REMARK    2  A    between atoms: C_9  and  O_10
REMARK    3  A    between atoms: O_10  and  C_11
REMARK    4  A    between atoms: C_11  and  C_13
REMARK    5  A    between atoms: C_13  and  C_14
REMARK                            x       y       z     vdW  Elec       q    Type
REMARK                         _______ _______ _______ _____ _____    ______ ____
ROOT
ATOM      1  O   UNL     1       7.454   5.234  15.389  0.00  0.00    +0.000 OA
ATOM      2  C   UNL     1       6.561   5.741  16.036  0.00  0.00    +0.000 C 
ATOM      3  C   UNL     1       6.700   6.903  16.979  0.00  0.00    +0.000 C 
ATOM      4  C   UNL     1       7.123   6.389  18.153  0.00  0.00    +0.000 C 
ATOM      5  C   UNL     1       6.080   5.732  19.055  0.00  0.00    +0.000 C 
ATOM      6  C   UNL     1       5.930   4.264  18.607  0.00  0.00    +0.000 C 
ATOM      7  O   UNL     1       5.018   3.471  19.420  0.00  0.00    +0.000 OA
ATOM      8  C   UNL     1       4.544   2.462  18.498  0.00  0.00    +0.000 C 
ATOM      9  C   UNL     1       4.150   3.325  17.319  0.00  0.00    +0.000 C 
ATOM     10  C   UNL     1       5.476   4.037  17.128  0.00  0.00    +0.000 C 
ATOM     11  O   UNL     1       5.341   5.200  16.315  0.00  0.00    +0.000 OA
ENDROOT
BRANCH   8  12
ATOM     12  C   UNL     1       3.487   1.491  18.992  0.00  0.00    +0.000 C 
BRANCH  12  13
ATOM     13  O   UNL     1       2.203   2.088  19.128  0.00  0.00    +0.000 OA
BRANCH  13  14
ATOM     14  C   UNL     1       1.985   2.690  20.332  0.00  0.00    +0.000 C 
ATOM     15  O   UNL     1       2.519   2.388  21.391  0.00  0.00    +0.000 OA
BRANCH  14  16
ATOM     16  C   UNL     1       0.926   3.748  20.188  0.00  0.00    +0.000 C 
BRANCH  16  17
ATOM     17  C   UNL     1       1.500   5.070  19.748  0.00  0.00    +0.000 A 
ATOM     18  C   UNL     1       1.538   6.151  20.638  0.00  0.00    +0.000 A 
ATOM     19  C   UNL     1       2.076   7.375  20.240  0.00  0.00    +0.000 A 
ATOM     20  C   UNL     1       2.565   7.535  18.945  0.00  0.00    +0.000 A 
ATOM     21  C   UNL     1       2.503   6.476  18.042  0.00  0.00    +0.000 A 
ATOM     22  C   UNL     1       1.967   5.249  18.438  0.00  0.00    +0.000 A 
ENDBRANCH  16  17
ENDBRANCH  14  16
ENDBRANCH  13  14
ENDBRANCH  12  13
ENDBRANCH   8  12
TORSDOF 5
ENDMDL
MODEL 7
REMARK VINA RESULT:      -7.3      1.435      1.952
REMARK  Name = 
REMARK  5 active torsions:
REMARK  status: ('A' for Active; 'I' for Inactive)
REMARK    1  A    between atoms: C_8  and  C_9
REMARK    2  A    between atoms: C_9  and  O_10
REMARK    3  A    between atoms: O_10  and  C_11
REMARK    4  A    between atoms: C_11  and  C_13
REMARK    5  A    between atoms: C_13  and  C_14
REMARK                            x       y       z     vdW  Elec       q    Type
REMARK                         _______ _______ _______ _____ _____    ______ ____
ROOT
ATOM      1  O   UNL     1       0.259   2.304  18.491  0.00  0.00    +0.000 OA
ATOM      2  C   UNL     1       1.282   2.361  19.142  0.00  0.00    +0.000 C 
ATOM      3  C   UNL     1       1.376   2.489  20.636  0.00  0.00    +0.000 C 
ATOM      4  C   UNL     1       1.247   3.804  20.912  0.00  0.00    +0.000 C 
ATOM      5  C   UNL     1       2.476   4.691  20.719  0.00  0.00    +0.000 C 
ATOM      6  C   UNL     1       2.512   5.129  19.242  0.00  0.00    +0.000 C 
ATOM      7  O   UNL     1       3.592   6.048  18.906  0.00  0.00    +0.000 OA
ATOM      8  C   UNL     1       3.828   5.783  17.504  0.00  0.00    +0.000 C 
ATOM      9  C   UNL     1       3.928   4.273  17.518  0.00  0.00    +0.000 C 
ATOM     10  C   UNL     1       2.596   3.982  18.183  0.00  0.00    +0.000 C 
ATOM     11  O   UNL     1       2.533   2.648  18.680  0.00  0.00    +0.000 OA
ENDROOT
BRANCH   8  12
ATOM     12  C   UNL     1       4.971   6.518  16.828  0.00  0.00    +0.000 C 
BRANCH  12  13
ATOM     13  O   UNL     1       6.233   6.261  17.432  0.00  0.00    +0.000 OA
BRANCH  13  14
ATOM     14  C   UNL     1       7.000   5.349  16.768  0.00  0.00    +0.000 C 
ATOM     15  O   UNL     1       7.386   4.277  17.215  0.00  0.00    +0.000 OA
BRANCH  14  16
ATOM     16  C   UNL     1       7.369   5.885  15.413  0.00  0.00    +0.000 C 
BRANCH  16  17
ATOM     17  C   UNL     1       6.880   4.998  14.297  0.00  0.00    +0.000 A 
ATOM     18  C   UNL     1       7.620   4.885  13.114  0.00  0.00    +0.000 A 
ATOM     19  C   UNL     1       7.177   4.058  12.081  0.00  0.00    +0.000 A 
ATOM     20  C   UNL     1       5.984   3.351  12.215  0.00  0.00    +0.000 A 
ATOM     21  C   UNL     1       5.224   3.480  13.376  0.00  0.00    +0.000 A 
ATOM     22  C   UNL     1       5.666   4.305  14.412  0.00  0.00    +0.000 A 
ENDBRANCH  16  17
ENDBRANCH  14  16
ENDBRANCH  13  14
ENDBRANCH  12  13
ENDBRANCH   8  12
TORSDOF 5
ENDMDL
MODEL 8
REMARK VINA RESULT:      -7.3      1.374      2.170
REMARK  Name = 
REMARK  5 active torsions:
REMARK  status: ('A' for Active; 'I' for Inactive)
REMARK    1  A    between atoms: C_8  and  C_9
REMARK    2  A    between atoms: C_9  and  O_10
REMARK    3  A    between atoms: O_10  and  C_11
REMARK    4  A    between atoms: C_11  and  C_13
REMARK    5  A    between atoms: C_13  and  C_14
REMARK                            x       y       z     vdW  Elec       q    Type
REMARK                         _______ _______ _______ _____ _____    ______ ____
ROOT
ATOM      1  O   UNL     1       1.886   1.592  19.349  0.00  0.00    +0.000 OA
ATOM      2  C   UNL     1       2.219   2.343  20.244  0.00  0.00    +0.000 C 
ATOM      3  C   UNL     1       1.296   3.143  21.118  0.00  0.00    +0.000 C 
ATOM      4  C   UNL     1       0.996   4.263  20.426  0.00  0.00    +0.000 C 
ATOM      5  C   UNL     1       2.029   5.388  20.420  0.00  0.00    +0.000 C 
ATOM      6  C   UNL     1       3.029   5.101  19.283  0.00  0.00    +0.000 C 
ATOM      7  O   UNL     1       4.045   6.128  19.093  0.00  0.00    +0.000 OA
ATOM      8  C   UNL     1       5.157   5.394  18.529  0.00  0.00    +0.000 C 
ATOM      9  C   UNL     1       5.246   4.234  19.498  0.00  0.00    +0.000 C 
ATOM     10  C   UNL     1       3.813   3.751  19.377  0.00  0.00    +0.000 C 
ATOM     11  O   UNL     1       3.456   2.879  20.447  0.00  0.00    +0.000 OA
ENDROOT
BRANCH   8  12
ATOM     12  C   UNL     1       6.449   6.149  18.277  0.00  0.00    +0.000 C 
BRANCH  12  13
ATOM     13  O   UNL     1       6.352   7.077  17.203  0.00  0.00    +0.000 OA
BRANCH  13  14
ATOM     14  C   UNL     1       6.060   6.514  15.997  0.00  0.00    +0.000 C 
ATOM     15  O   UNL     1       5.116   6.810  15.277  0.00  0.00    +0.000 OA
BRANCH  14  16
ATOM     16  C   UNL     1       7.037   5.409  15.702  0.00  0.00    +0.000 C 
BRANCH  16  17
ATOM     17  C   UNL     1       6.792   4.776  14.357  0.00  0.00    +0.000 A 
ATOM     18  C   UNL     1       5.712   3.902  14.178  0.00  0.00    +0.000 A 
ATOM     19  C   UNL     1       5.473   3.319  12.933  0.00  0.00    +0.000 A 
ATOM     20  C   UNL     1       6.320   3.592  11.861  0.00  0.00    +0.000 A 
ATOM     21  C   UNL     1       7.415   4.436  12.035  0.00  0.00    +0.000 A 
ATOM     22  C   UNL     1       7.655   5.022  13.280  0.00  0.00    +0.000 A 
ENDBRANCH  16  17
ENDBRANCH  14  16
ENDBRANCH  13  14
ENDBRANCH  12  13
ENDBRANCH   8  12
TORSDOF 5
ENDMDL
MODEL 9
REMARK VINA RESULT:      -7.0      1.723      6.672
REMARK  Name = 
REMARK  5 active torsions:
REMARK  status: ('A' for Active; 'I' for Inactive)
REMARK    1  A    between atoms: C_8  and  C_9
REMARK    2  A    between atoms: C_9  and  O_10
REMARK    3  A    between atoms: O_10  and  C_11
REMARK    4  A    between atoms: C_11  and  C_13
REMARK    5  A    between atoms: C_13  and  C_14
REMARK                            x       y       z     vdW  Elec       q    Type
REMARK                         _______ _______ _______ _____ _____    ______ ____
ROOT
ATOM      1  O   UNL     1       5.990   7.122  16.153  0.00  0.00    +0.000 OA
ATOM      2  C   UNL     1       6.580   6.062  16.201  0.00  0.00    +0.000 C 
ATOM      3  C   UNL     1       6.948   5.199  15.028  0.00  0.00    +0.000 C 
ATOM      4  C   UNL     1       5.854   4.461  14.743  0.00  0.00    +0.000 C 
ATOM      5  C   UNL     1       5.583   3.234  15.610  0.00  0.00    +0.000 C 
ATOM      6  C   UNL     1       4.795   3.700  16.851  0.00  0.00    +0.000 C 
ATOM      7  O   UNL     1       4.390   2.629  17.752  0.00  0.00    +0.000 OA
ATOM      8  C   UNL     1       4.309   3.290  19.036  0.00  0.00    +0.000 C 
ATOM      9  C   UNL     1       5.641   4.008  19.064  0.00  0.00    +0.000 C 
ATOM     10  C   UNL     1       5.498   4.763  17.756  0.00  0.00    +0.000 C 
ATOM     11  O   UNL     1       6.750   5.266  17.296  0.00  0.00    +0.000 OA
ENDROOT
BRANCH   8  12
ATOM     12  C   UNL     1       3.989   2.438  20.251  0.00  0.00    +0.000 C 
BRANCH  12  13
ATOM     13  O   UNL     1       2.602   2.144  20.375  0.00  0.00    +0.000 OA
BRANCH  13  14
ATOM     14  C   UNL     1       1.913   3.007  21.175  0.00  0.00    +0.000 C 
ATOM     15  O   UNL     1       2.051   3.129  22.384  0.00  0.00    +0.000 OA
BRANCH  14  16
ATOM     16  C   UNL     1       0.892   3.751  20.359  0.00  0.00    +0.000 C 
BRANCH  16  17
ATOM     17  C   UNL     1       1.462   4.998  19.734  0.00  0.00    +0.000 A 
ATOM     18  C   UNL     1       1.723   6.125  20.524  0.00  0.00    +0.000 A 
ATOM     19  C   UNL     1       2.260   7.279  19.953  0.00  0.00    +0.000 A 
ATOM     20  C   UNL     1       2.525   7.324  18.586  0.00  0.00    +0.000 A 
ATOM     21  C   UNL     1       2.240   6.220  17.785  0.00  0.00    +0.000 A 
ATOM     22  C   UNL     1       1.706   5.062  18.354  0.00  0.00    +0.000 A 
ENDBRANCH  16  17
ENDBRANCH  14  16
ENDBRANCH  13  14
ENDBRANCH  12  13
ENDBRANCH   8  12
TORSDOF 5
ENDMDL
