MODEL 1
REMARK VINA RESULT:      -7.5      0.000      0.000
REMARK  Name = 
REMARK  4 active torsions:
REMARK  status: ('A' for Active; 'I' for Inactive)
REMARK    1  A    between atoms: N_3  and  C_4
REMARK    2  A    between atoms: C_4  and  C_5
REMARK    3  A    between atoms: C_16  and  N_17
REMARK    4  A    between atoms: C_19  and  C_20
REMARK                            x       y       z     vdW  Elec       q    Type
REMARK                         _______ _______ _______ _____ _____    ______ ____
ROOT
ATOM      1  O   UNL     1       2.251   4.784  21.459  0.00  0.00    +0.000 OA
ATOM      2  C   UNL     1       1.969   5.214  20.346  0.00  0.00    +0.000 C 
ATOM      3  N   UNL     1       1.537   6.492  20.115  0.00  0.00    +0.000 N 
ATOM      4  N   UNL     1       2.092   4.462  19.219  0.00  0.00    +0.000 N 
ATOM      5  C   UNL     1       2.604   3.117  19.037  0.00  0.00    +0.000 C 
ATOM      6  C   UNL     1       2.943   3.528  17.591  0.00  0.00    +0.000 C 
ATOM      7  C   UNL     1       2.008   4.741  17.805  0.00  0.00    +0.000 C 
ATOM      8  H   UNL     1       1.023   6.642  19.260  0.00  0.00    +0.000 HD
ENDROOT
BRANCH   6   9
ATOM      9  N   UNL     1       4.314   3.925  17.381  0.00  0.00    +0.000 N 
ATOM     10  C   UNL     1       5.195   4.479  18.274  0.00  0.00    +0.000 A 
ATOM     11  C   UNL     1       6.349   4.630  17.544  0.00  0.00    +0.000 A 
ATOM     12  N   UNL     1       6.142   4.195  16.265  0.00  0.00    +0.000 NA
ATOM     13  N   UNL     1       4.895   3.755  16.177  0.00  0.00    +0.000 NA
BRANCH  11  14
ATOM     14  C   UNL     1       7.682   5.197  17.991  0.00  0.00    +0.000 C 
ATOM     15  C   UNL     1       7.817   6.690  18.212  0.00  0.00    +0.000 C 
ATOM     16  C   UNL     1       7.854   5.768  19.383  0.00  0.00    +0.000 C 
ENDBRANCH  11  14
ENDBRANCH   6   9
BRANCH   3  17
ATOM     17  C   UNL     1       1.244   7.384  21.210  0.00  0.00    +0.000 C 
BRANCH  17  18
ATOM     18  C   UNL     1       1.066   8.808  20.728  0.00  0.00    +0.000 A 
ATOM     19  C   UNL     1       1.257   9.116  19.360  0.00  0.00    +0.000 A 
ATOM     20  C   UNL     1       1.132  10.427  18.891  0.00  0.00    +0.000 A 
ATOM     21  C   UNL     1       0.817  11.408  19.804  0.00  0.00    +0.000 A 
ATOM     22  C   UNL     1       0.629  11.122  21.134  0.00  0.00    +0.000 A 
ATOM     23  C   UNL     1       0.742   9.836  21.629  0.00  0.00    +0.000 A 
ATOM     24  O   UNL     1       0.337  12.230  21.867  0.00  0.00    +0.000 OA
ATOM     25  C   UNL     1       0.390  13.251  20.848  0.00  0.00    +0.000 C 
ATOM     26  O   UNL     1       0.669  12.732  19.530  0.00  0.00    +0.000 OA
ENDBRANCH  17  18
ENDBRANCH   3  17
TORSDOF 4
ENDMDL
MODEL 2
REMARK VINA RESULT:      -7.4      2.773      3.479
REMARK  Name = 
REMARK  4 active torsions:
REMARK  status: ('A' for Active; 'I' for Inactive)
REMARK    1  A    between atoms: N_3  and  C_4
REMARK    2  A    between atoms: C_4  and  C_5
REMARK    3  A    between atoms: C_16  and  N_17
REMARK    4  A    between atoms: C_19  and  C_20
REMARK                            x       y       z     vdW  Elec       q    Type
REMARK                         _______ _______ _______ _____ _____    ______ ____
ROOT
ATOM      1  O   UNL     1       1.710   8.010  21.450  0.00  0.00    +0.000 OA
ATOM      2  C   UNL     1       1.709   7.825  20.238  0.00  0.00    +0.000 C 
ATOM      3  N   UNL     1       1.456   8.810  19.322  0.00  0.00    +0.000 N 
ATOM      4  N   UNL     1       1.998   6.618  19.682  0.00  0.00    +0.000 N 
ATOM      5  C   UNL     1       2.410   5.372  20.301  0.00  0.00    +0.000 C 
ATOM      6  C   UNL     1       3.082   5.021  18.959  0.00  0.00    +0.000 C 
ATOM      7  C   UNL     1       2.239   6.158  18.335  0.00  0.00    +0.000 C 
ATOM      8  H   UNL     1       1.150   8.505  18.411  0.00  0.00    +0.000 HD
ENDROOT
BRANCH   6   9
ATOM      9  N   UNL     1       4.498   5.296  18.901  0.00  0.00    +0.000 N 
ATOM     10  C   UNL     1       5.180   6.106  18.031  0.00  0.00    +0.000 A 
ATOM     11  C   UNL     1       6.486   6.008  18.449  0.00  0.00    +0.000 A 
ATOM     12  N   UNL     1       6.562   5.158  19.516  0.00  0.00    +0.000 NA
ATOM     13  N   UNL     1       5.337   4.734  19.792  0.00  0.00    +0.000 NA
BRANCH  11  14
ATOM     14  C   UNL     1       7.715   6.681  17.871  0.00  0.00    +0.000 C 
ATOM     15  C   UNL     1       7.640   8.138  17.462  0.00  0.00    +0.000 C 
ATOM     16  C   UNL     1       8.452   7.750  18.651  0.00  0.00    +0.000 C 
ENDBRANCH  11  14
ENDBRANCH   6   9
BRANCH   3  17
ATOM     17  C   UNL     1       1.022  10.120  19.743  0.00  0.00    +0.000 C 
BRANCH  17  18
ATOM     18  C   UNL     1      -0.269  10.520  19.063  0.00  0.00    +0.000 A 
ATOM     19  C   UNL     1      -1.118  11.473  19.674  0.00  0.00    +0.000 A 
ATOM     20  C   UNL     1      -2.334  11.838  19.087  0.00  0.00    +0.000 A 
ATOM     21  C   UNL     1      -2.675  11.241  17.894  0.00  0.00    +0.000 A 
ATOM     22  C   UNL     1      -1.860  10.315  17.292  0.00  0.00    +0.000 A 
ATOM     23  C   UNL     1      -0.650   9.934  17.845  0.00  0.00    +0.000 A 
ATOM     24  O   UNL     1      -2.385   9.838  16.131  0.00  0.00    +0.000 OA
ATOM     25  C   UNL     1      -3.638  10.552  16.087  0.00  0.00    +0.000 C 
ATOM     26  O   UNL     1      -3.818  11.464  17.192  0.00  0.00    +0.000 OA
ENDBRANCH  17  18
ENDBRANCH   3  17
TORSDOF 4
ENDMDL
MODEL 3
REMARK VINA RESULT:      -7.4      3.822      8.551
REMARK  Name = 
REMARK  4 active torsions:
REMARK  status: ('A' for Active; 'I' for Inactive)
REMARK    1  A    between atoms: N_3  and  C_4
REMARK    2  A    between atoms: C_4  and  C_5
REMARK    3  A    between atoms: C_16  and  N_17
REMARK    4  A    between atoms: C_19  and  C_20
REMARK                            x       y       z     vdW  Elec       q    Type
REMARK                         _______ _______ _______ _____ _____    ______ ____
ROOT
ATOM      1  O   UNL     1       1.179   7.539  21.345  0.00  0.00    +0.000 OA
ATOM      2  C   UNL     1       1.603   8.021  20.301  0.00  0.00    +0.000 C 
ATOM      3  N   UNL     1       2.195   7.284  19.311  0.00  0.00    +0.000 N 
ATOM      4  N   UNL     1       1.492   9.346  20.010  0.00  0.00    +0.000 N 
ATOM      5  C   UNL     1       0.849  10.419  20.744  0.00  0.00    +0.000 C 
ATOM      6  C   UNL     1       0.685  11.137  19.390  0.00  0.00    +0.000 C 
ATOM      7  C   UNL     1       1.729  10.143  18.830  0.00  0.00    +0.000 C 
ATOM      8  H   UNL     1       2.793   7.789  18.676  0.00  0.00    +0.000 HD
ENDROOT
BRANCH   6   9
ATOM      9  N   UNL     1      -0.610  10.975  18.772  0.00  0.00    +0.000 N 
ATOM     10  C   UNL     1      -0.950  10.227  17.675  0.00  0.00    +0.000 A 
ATOM     11  C   UNL     1      -2.304  10.426  17.552  0.00  0.00    +0.000 A 
ATOM     12  N   UNL     1      -2.734  11.273  18.533  0.00  0.00    +0.000 NA
ATOM     13  N   UNL     1      -1.690  11.597  19.283  0.00  0.00    +0.000 NA
BRANCH  11  14
ATOM     14  C   UNL     1      -3.251   9.855  16.515  0.00  0.00    +0.000 C 
ATOM     15  C   UNL     1      -3.918  10.789  15.525  0.00  0.00    +0.000 C 
ATOM     16  C   UNL     1      -2.876   9.836  15.048  0.00  0.00    +0.000 C 
ENDBRANCH  11  14
ENDBRANCH   6   9
BRANCH   3  17
ATOM     17  C   UNL     1       2.491   5.886  19.505  0.00  0.00    +0.000 C 
BRANCH  17  18
ATOM     18  C   UNL     1       3.323   5.335  18.368  0.00  0.00    +0.000 A 
ATOM     19  C   UNL     1       3.380   3.936  18.153  0.00  0.00    +0.000 A 
ATOM     20  C   UNL     1       4.166   3.395  17.131  0.00  0.00    +0.000 A 
ATOM     21  C   UNL     1       4.880   4.267  16.340  0.00  0.00    +0.000 A 
ATOM     22  C   UNL     1       4.833   5.625  16.539  0.00  0.00    +0.000 A 
ATOM     23  C   UNL     1       4.064   6.192  17.538  0.00  0.00    +0.000 A 
ATOM     24  O   UNL     1       5.618   6.305  15.660  0.00  0.00    +0.000 OA
ATOM     25  C   UNL     1       6.186   5.215  14.904  0.00  0.00    +0.000 C 
ATOM     26  O   UNL     1       5.702   3.919  15.314  0.00  0.00    +0.000 OA
ENDBRANCH  17  18
ENDBRANCH   3  17
TORSDOF 4
ENDMDL
MODEL 4
REMARK VINA RESULT:      -7.4      3.790      8.613
REMARK  Name = 
REMARK  4 active torsions:
REMARK  status: ('A' for Active; 'I' for Inactive)
REMARK    1  A    between atoms: N_3  and  C_4
REMARK    2  A    between atoms: C_4  and  C_5
REMARK    3  A    between atoms: C_16  and  N_17
REMARK    4  A    between atoms: C_19  and  C_20
REMARK                            x       y       z     vdW  Elec       q    Type
REMARK                         _______ _______ _______ _____ _____    ______ ____
ROOT
ATOM      1  O   UNL     1       1.287   7.462  21.172  0.00  0.00    +0.000 OA
ATOM      2  C   UNL     1       1.674   7.996  20.138  0.00  0.00    +0.000 C 
ATOM      3  N   UNL     1       2.245   7.311  19.099  0.00  0.00    +0.000 N 
ATOM      4  N   UNL     1       1.539   9.330  19.910  0.00  0.00    +0.000 N 
ATOM      5  C   UNL     1       0.906  10.362  20.710  0.00  0.00    +0.000 C 
ATOM      6  C   UNL     1       0.693  11.137  19.395  0.00  0.00    +0.000 C 
ATOM      7  C   UNL     1       1.731  10.183  18.761  0.00  0.00    +0.000 C 
ATOM      8  H   UNL     1       2.818   7.851  18.470  0.00  0.00    +0.000 HD
ENDROOT
BRANCH   6   9
ATOM      9  N   UNL     1      -0.617  10.986  18.809  0.00  0.00    +0.000 N 
ATOM     10  C   UNL     1      -0.982  10.279  17.692  0.00  0.00    +0.000 A 
ATOM     11  C   UNL     1      -2.341  10.468  17.616  0.00  0.00    +0.000 A 
ATOM     12  N   UNL     1      -2.750  11.269  18.644  0.00  0.00    +0.000 NA
ATOM     13  N   UNL     1      -1.688  11.574  19.376  0.00  0.00    +0.000 NA
BRANCH  11  14
ATOM     14  C   UNL     1      -3.313   9.929  16.585  0.00  0.00    +0.000 C 
ATOM     15  C   UNL     1      -3.806  10.844  15.482  0.00  0.00    +0.000 C 
ATOM     16  C   UNL     1      -2.883   9.723  15.147  0.00  0.00    +0.000 C 
ENDBRANCH  11  14
ENDBRANCH   6   9
BRANCH   3  17
ATOM     17  C   UNL     1       2.563   5.909  19.222  0.00  0.00    +0.000 C 
BRANCH  17  18
ATOM     18  C   UNL     1       3.892   5.586  18.573  0.00  0.00    +0.000 A 
ATOM     19  C   UNL     1       5.034   5.372  19.381  0.00  0.00    +0.000 A 
ATOM     20  C   UNL     1       6.282   5.104  18.810  0.00  0.00    +0.000 A 
ATOM     21  C   UNL     1       6.362   5.055  17.436  0.00  0.00    +0.000 A 
ATOM     22  C   UNL     1       5.261   5.261  16.642  0.00  0.00    +0.000 A 
ATOM     23  C   UNL     1       4.012   5.525  17.175  0.00  0.00    +0.000 A 
ATOM     24  O   UNL     1       5.555   5.181  15.316  0.00  0.00    +0.000 OA
ATOM     25  C   UNL     1       6.974   4.928  15.368  0.00  0.00    +0.000 C 
ATOM     26  O   UNL     1       7.489   4.822  16.713  0.00  0.00    +0.000 OA
ENDBRANCH  17  18
ENDBRANCH   3  17
TORSDOF 4
ENDMDL
MODEL 5
REMARK VINA RESULT:      -7.4      5.024      7.615
REMARK  Name = 
REMARK  4 active torsions:
REMARK  status: ('A' for Active; 'I' for Inactive)
REMARK    1  A    between atoms: N_3  and  C_4
REMARK    2  A    between atoms: C_4  and  C_5
REMARK    3  A    between atoms: C_16  and  N_17
REMARK    4  A    between atoms: C_19  and  C_20
REMARK                            x       y       z     vdW  Elec       q    Type
REMARK                         _______ _______ _______ _____ _____    ______ ____
ROOT
ATOM      1  O   UNL     1       7.821   7.008  16.101  0.00  0.00    +0.000 OA
ATOM      2  C   UNL     1       7.676   7.031  17.317  0.00  0.00    +0.000 C 
ATOM      3  N   UNL     1       7.661   8.183  18.057  0.00  0.00    +0.000 N 
ATOM      4  N   UNL     1       7.479   5.903  18.052  0.00  0.00    +0.000 N 
ATOM      5  C   UNL     1       7.333   4.521  17.632  0.00  0.00    +0.000 C 
ATOM      6  C   UNL     1       6.532   4.297  18.930  0.00  0.00    +0.000 C 
ATOM      7  C   UNL     1       7.115   5.641  19.424  0.00  0.00    +0.000 C 
ATOM      8  H   UNL     1       7.874   8.086  19.038  0.00  0.00    +0.000 HD
ENDROOT
BRANCH   6   9
ATOM      9  N   UNL     1       5.098   4.348  18.772  0.00  0.00    +0.000 N 
ATOM     10  C   UNL     1       4.124   4.186  19.723  0.00  0.00    +0.000 A 
ATOM     11  C   UNL     1       2.953   4.356  19.023  0.00  0.00    +0.000 A 
ATOM     12  N   UNL     1       3.237   4.593  17.708  0.00  0.00    +0.000 NA
ATOM     13  N   UNL     1       4.555   4.596  17.565  0.00  0.00    +0.000 NA
BRANCH  11  14
ATOM     14  C   UNL     1       1.528   4.291  19.536  0.00  0.00    +0.000 C 
ATOM     15  C   UNL     1       0.756   2.992  19.419  0.00  0.00    +0.000 C 
ATOM     16  C   UNL     1       1.183   3.474  20.764  0.00  0.00    +0.000 C 
ENDBRANCH  11  14
ENDBRANCH   6   9
BRANCH   3  17
ATOM     17  C   UNL     1       7.966   9.456  17.452  0.00  0.00    +0.000 C 
BRANCH  17  18
ATOM     18  C   UNL     1       8.985  10.224  18.266  0.00  0.00    +0.000 A 
ATOM     19  C   UNL     1       8.969  10.131  19.679  0.00  0.00    +0.000 A 
ATOM     20  C   UNL     1       9.876  10.854  20.460  0.00  0.00    +0.000 A 
ATOM     21  C   UNL     1      10.785  11.658  19.809  0.00  0.00    +0.000 A 
ATOM     22  C   UNL     1      10.810  11.756  18.439  0.00  0.00    +0.000 A 
ATOM     23  C   UNL     1       9.930  11.052  17.638  0.00  0.00    +0.000 A 
ATOM     24  O   UNL     1      11.774  12.609  17.998  0.00  0.00    +0.000 OA
ATOM     25  C   UNL     1      12.333  13.057  19.251  0.00  0.00    +0.000 C 
ATOM     26  O   UNL     1      11.726  12.437  20.405  0.00  0.00    +0.000 OA
ENDBRANCH  17  18
ENDBRANCH   3  17
TORSDOF 4
ENDMDL
MODEL 6
REMARK VINA RESULT:      -7.3      3.941      8.857
REMARK  Name = 
REMARK  4 active torsions:
REMARK  status: ('A' for Active; 'I' for Inactive)
REMARK    1  A    between atoms: N_3  and  C_4
REMARK    2  A    between atoms: C_4  and  C_5
REMARK    3  A    between atoms: C_16  and  N_17
REMARK    4  A    between atoms: C_19  and  C_20
REMARK                            x       y       z     vdW  Elec       q    Type
REMARK                         _______ _______ _______ _____ _____    ______ ____
ROOT
ATOM      1  O   UNL     1       1.254   7.961  21.231  0.00  0.00    +0.000 OA
ATOM      2  C   UNL     1       1.565   8.333  20.106  0.00  0.00    +0.000 C 
ATOM      3  N   UNL     1       2.150   7.519  19.173  0.00  0.00    +0.000 N 
ATOM      4  N   UNL     1       1.325   9.596  19.661  0.00  0.00    +0.000 N 
ATOM      5  C   UNL     1       0.644  10.705  20.301  0.00  0.00    +0.000 C 
ATOM      6  C   UNL     1       0.330  11.226  18.885  0.00  0.00    +0.000 C 
ATOM      7  C   UNL     1       1.415  10.248  18.376  0.00  0.00    +0.000 C 
ATOM      8  H   UNL     1       2.661   7.980  18.436  0.00  0.00    +0.000 HD
ENDROOT
BRANCH   6   9
ATOM      9  N   UNL     1      -0.984  10.888  18.394  0.00  0.00    +0.000 N 
ATOM     10  C   UNL     1      -2.199  11.396  18.773  0.00  0.00    +0.000 A 
ATOM     11  C   UNL     1      -3.096  10.734  17.969  0.00  0.00    +0.000 A 
ATOM     12  N   UNL     1      -2.426   9.859  17.161  0.00  0.00    +0.000 NA
ATOM     13  N   UNL     1      -1.131   9.967  17.422  0.00  0.00    +0.000 NA
BRANCH  11  14
ATOM     14  C   UNL     1      -4.605  10.871  17.925  0.00  0.00    +0.000 C 
ATOM     15  C   UNL     1      -5.257  12.098  18.529  0.00  0.00    +0.000 C 
ATOM     16  C   UNL     1      -5.264  11.916  17.049  0.00  0.00    +0.000 C 
ENDBRANCH  11  14
ENDBRANCH   6   9
BRANCH   3  17
ATOM     17  C   UNL     1       2.575   6.184  19.518  0.00  0.00    +0.000 C 
BRANCH  17  18
ATOM     18  C   UNL     1       3.373   5.553  18.397  0.00  0.00    +0.000 A 
ATOM     19  C   UNL     1       3.389   4.144  18.255  0.00  0.00    +0.000 A 
ATOM     20  C   UNL     1       4.143   3.530  17.250  0.00  0.00    +0.000 A 
ATOM     21  C   UNL     1       4.867   4.340  16.404  0.00  0.00    +0.000 A 
ATOM     22  C   UNL     1       4.859   5.707  16.533  0.00  0.00    +0.000 A 
ATOM     23  C   UNL     1       4.122   6.346  17.514  0.00  0.00    +0.000 A 
ATOM     24  O   UNL     1       5.647   6.319  15.609  0.00  0.00    +0.000 OA
ATOM     25  C   UNL     1       6.173   5.177  14.901  0.00  0.00    +0.000 C 
ATOM     26  O   UNL     1       5.662   3.917  15.386  0.00  0.00    +0.000 OA
ENDBRANCH  17  18
ENDBRANCH   3  17
TORSDOF 4
ENDMDL
MODEL 7
REMARK VINA RESULT:      -7.3      2.603      3.043
REMARK  Name = 
REMARK  4 active torsions:
REMARK  status: ('A' for Active; 'I' for Inactive)
REMARK    1  A    between atoms: N_3  and  C_4
REMARK    2  A    between atoms: C_4  and  C_5
REMARK    3  A    between atoms: C_16  and  N_17
REMARK    4  A    between atoms: C_19  and  C_20
REMARK                            x       y       z     vdW  Elec       q    Type
REMARK                         _______ _______ _______ _____ _____    ______ ____
ROOT
ATOM      1  O   UNL     1       1.918   8.395  20.716  0.00  0.00    +0.000 OA
ATOM      2  C   UNL     1       1.855   7.951  19.575  0.00  0.00    +0.000 C 
ATOM      3  N   UNL     1       1.638   8.728  18.470  0.00  0.00    +0.000 N 
ATOM      4  N   UNL     1       2.032   6.631  19.294  0.00  0.00    +0.000 N 
ATOM      5  C   UNL     1       2.377   5.522  20.163  0.00  0.00    +0.000 C 
ATOM      6  C   UNL     1       2.967   4.834  18.917  0.00  0.00    +0.000 C 
ATOM      7  C   UNL     1       2.185   5.870  18.077  0.00  0.00    +0.000 C 
ATOM      8  H   UNL     1       1.274   8.257  17.656  0.00  0.00    +0.000 HD
ENDROOT
BRANCH   6   9
ATOM      9  N   UNL     1       4.396   4.976  18.768  0.00  0.00    +0.000 N 
ATOM     10  C   UNL     1       5.098   5.962  18.125  0.00  0.00    +0.000 A 
ATOM     11  C   UNL     1       6.412   5.604  18.315  0.00  0.00    +0.000 A 
ATOM     12  N   UNL     1       6.471   4.441  19.030  0.00  0.00    +0.000 NA
ATOM     13  N   UNL     1       5.230   4.069  19.311  0.00  0.00    +0.000 NA
BRANCH  11  14
ATOM     14  C   UNL     1       7.662   6.311  17.832  0.00  0.00    +0.000 C 
ATOM     15  C   UNL     1       7.578   7.765  17.412  0.00  0.00    +0.000 C 
ATOM     16  C   UNL     1       8.306   7.403  18.661  0.00  0.00    +0.000 C 
ENDBRANCH  11  14
ENDBRANCH   6   9
BRANCH   3  17
ATOM     17  C   UNL     1       1.318  10.129  18.601  0.00  0.00    +0.000 C 
BRANCH  17  18
ATOM     18  C   UNL     1      -0.170  10.371  18.467  0.00  0.00    +0.000 A 
ATOM     19  C   UNL     1      -0.908   9.673  17.482  0.00  0.00    +0.000 A 
ATOM     20  C   UNL     1      -2.278   9.899  17.312  0.00  0.00    +0.000 A 
ATOM     21  C   UNL     1      -2.883  10.822  18.136  0.00  0.00    +0.000 A 
ATOM     22  C   UNL     1      -2.177  11.505  19.096  0.00  0.00    +0.000 A 
ATOM     23  C   UNL     1      -0.823  11.302  19.291  0.00  0.00    +0.000 A 
ATOM     24  O   UNL     1      -2.956  12.374  19.793  0.00  0.00    +0.000 OA
ATOM     25  C   UNL     1      -4.229  12.180  19.141  0.00  0.00    +0.000 C 
ATOM     26  O   UNL     1      -4.195  11.176  18.104  0.00  0.00    +0.000 OA
ENDBRANCH  17  18
ENDBRANCH   3  17
TORSDOF 4
ENDMDL
MODEL 8
REMARK VINA RESULT:      -7.3      0.886      1.451
REMARK  Name = 
REMARK  4 active torsions:
REMARK  status: ('A' for Active; 'I' for Inactive)
REMARK    1  A    between atoms: N_3  and  C_4
REMARK    2  A    between atoms: C_4  and  C_5
REMARK    3  A    between atoms: C_16  and  N_17
REMARK    4  A    between atoms: C_19  and  C_20
REMARK                            x       y       z     vdW  Elec       q    Type
REMARK                         _______ _______ _______ _____ _____    ______ ____
ROOT
ATOM      1  O   UNL     1       2.258   4.668  21.483  0.00  0.00    +0.000 OA
ATOM      2  C   UNL     1       2.042   5.253  20.428  0.00  0.00    +0.000 C 
ATOM      3  N   UNL     1       1.731   6.584  20.350  0.00  0.00    +0.000 N 
ATOM      4  N   UNL     1       2.124   4.635  19.219  0.00  0.00    +0.000 N 
ATOM      5  C   UNL     1       2.518   3.280  18.880  0.00  0.00    +0.000 C 
ATOM      6  C   UNL     1       2.927   3.830  17.500  0.00  0.00    +0.000 C 
ATOM      7  C   UNL     1       2.099   5.089  17.849  0.00  0.00    +0.000 C 
ATOM      8  H   UNL     1       1.254   6.883  19.514  0.00  0.00    +0.000 HD
ENDROOT
BRANCH   6   9
ATOM      9  N   UNL     1       4.332   4.123  17.357  0.00  0.00    +0.000 N 
ATOM     10  C   UNL     1       5.201   4.637  18.285  0.00  0.00    +0.000 A 
ATOM     11  C   UNL     1       6.401   4.686  17.617  0.00  0.00    +0.000 A 
ATOM     12  N   UNL     1       6.233   4.230  16.339  0.00  0.00    +0.000 NA
ATOM     13  N   UNL     1       4.963   3.879  16.192  0.00  0.00    +0.000 NA
BRANCH  11  14
ATOM     14  C   UNL     1       7.746   5.168  18.124  0.00  0.00    +0.000 C 
ATOM     15  C   UNL     1       7.931   6.635  18.457  0.00  0.00    +0.000 C 
ATOM     16  C   UNL     1       7.914   5.629  19.557  0.00  0.00    +0.000 C 
ENDBRANCH  11  14
ENDBRANCH   6   9
BRANCH   3  17
ATOM     17  C   UNL     1       1.494   7.361  21.542  0.00  0.00    +0.000 C 
BRANCH  17  18
ATOM     18  C   UNL     1       0.846   8.689  21.216  0.00  0.00    +0.000 A 
ATOM     19  C   UNL     1       0.074   9.354  22.198  0.00  0.00    +0.000 A 
ATOM     20  C   UNL     1      -0.565  10.565  21.917  0.00  0.00    +0.000 A 
ATOM     21  C   UNL     1      -0.415  11.091  20.652  0.00  0.00    +0.000 A 
ATOM     22  C   UNL     1       0.332  10.455  19.691  0.00  0.00    +0.000 A 
ATOM     23  C   UNL     1       0.978   9.258  19.938  0.00  0.00    +0.000 A 
ATOM     24  O   UNL     1       0.342  11.132  18.511  0.00  0.00    +0.000 OA
ATOM     25  C   UNL     1      -0.507  12.253  18.834  0.00  0.00    +0.000 C 
ATOM     26  O   UNL     1      -0.971  12.246  20.201  0.00  0.00    +0.000 OA
ENDBRANCH  17  18
ENDBRANCH   3  17
TORSDOF 4
ENDMDL
MODEL 9
REMARK VINA RESULT:      -7.3      3.819      8.829
REMARK  Name = 
REMARK  4 active torsions:
REMARK  status: ('A' for Active; 'I' for Inactive)
REMARK    1  A    between atoms: N_3  and  C_4
REMARK    2  A    between atoms: C_4  and  C_5
REMARK    3  A    between atoms: C_16  and  N_17
REMARK    4  A    between atoms: C_19  and  C_20
REMARK                            x       y       z     vdW  Elec       q    Type
REMARK                         _______ _______ _______ _____ _____    ______ ____
ROOT
ATOM      1  O   UNL     1       1.408   7.563  21.042  0.00  0.00    +0.000 OA
ATOM      2  C   UNL     1       1.730   7.987  19.938  0.00  0.00    +0.000 C 
ATOM      3  N   UNL     1       2.308   7.213  18.968  0.00  0.00    +0.000 N 
ATOM      4  N   UNL     1       1.511   9.274  19.556  0.00  0.00    +0.000 N 
ATOM      5  C   UNL     1       0.844  10.360  20.250  0.00  0.00    +0.000 C 
ATOM      6  C   UNL     1       0.545  10.956  18.861  0.00  0.00    +0.000 C 
ATOM      7  C   UNL     1       1.617   9.989  18.307  0.00  0.00    +0.000 C 
ATOM      8  H   UNL     1       2.829   7.702  18.257  0.00  0.00    +0.000 HD
ENDROOT
BRANCH   6   9
ATOM      9  N   UNL     1      -0.772  10.664  18.347  0.00  0.00    +0.000 N 
ATOM     10  C   UNL     1      -1.982  11.168  18.748  0.00  0.00    +0.000 A 
ATOM     11  C   UNL     1      -2.884  10.562  17.907  0.00  0.00    +0.000 A 
ATOM     12  N   UNL     1      -2.223   9.723  17.056  0.00  0.00    +0.000 NA
ATOM     13  N   UNL     1      -0.927   9.799  17.327  0.00  0.00    +0.000 NA
BRANCH  11  14
ATOM     14  C   UNL     1      -4.390  10.722  17.865  0.00  0.00    +0.000 C 
ATOM     15  C   UNL     1      -5.022  11.960  18.468  0.00  0.00    +0.000 C 
ATOM     16  C   UNL     1      -5.034  11.777  16.989  0.00  0.00    +0.000 C 
ENDBRANCH  11  14
ENDBRANCH   6   9
BRANCH   3  17
ATOM     17  C   UNL     1       2.711   5.856  19.246  0.00  0.00    +0.000 C 
BRANCH  17  18
ATOM     18  C   UNL     1       4.012   5.514  18.552  0.00  0.00    +0.000 A 
ATOM     19  C   UNL     1       5.195   5.364  19.315  0.00  0.00    +0.000 A 
ATOM     20  C   UNL     1       6.419   5.081  18.700  0.00  0.00    +0.000 A 
ATOM     21  C   UNL     1       6.434   4.951  17.329  0.00  0.00    +0.000 A 
ATOM     22  C   UNL     1       5.292   5.094  16.579  0.00  0.00    +0.000 A 
ATOM     23  C   UNL     1       4.066   5.371  17.156  0.00  0.00    +0.000 A 
ATOM     24  O   UNL     1       5.524   4.939  15.248  0.00  0.00    +0.000 OA
ATOM     25  C   UNL     1       6.948   4.710  15.245  0.00  0.00    +0.000 C 
ATOM     26  O   UNL     1       7.529   4.692  16.567  0.00  0.00    +0.000 OA
ENDBRANCH  17  18
ENDBRANCH   3  17
TORSDOF 4
ENDMDL
