MODEL 1
REMARK VINA RESULT:      -7.6      0.000      0.000
REMARK  Name = 
REMARK  2 active torsions:
REMARK  status: ('A' for Active; 'I' for Inactive)
REMARK    1  A    between atoms: C_5  and  C_6
REMARK    2  A    between atoms: N_12  and  C_13
REMARK                            x       y       z     vdW  Elec       q    Type
REMARK                         _______ _______ _______ _____ _____    ______ ____
ROOT
ATOM      1  O   UNL     1       4.831   2.137  20.281  0.00  0.00    +0.000 OA
ATOM      2  C   UNL     1       3.842   2.859  20.171  0.00  0.00    +0.000 C 
ATOM      3  C   UNL     1       2.544   2.504  20.856  0.00  0.00    +0.000 C 
ATOM      4  S   UNL     1       1.359   3.802  20.500  0.00  0.00    +0.000 S 
ATOM      5  C   UNL     1       2.397   4.530  19.193  0.00  0.00    +0.000 C 
ATOM      6  N   UNL     1       3.738   4.001  19.368  0.00  0.00    +0.000 N 
ENDROOT
BRANCH   6   7
ATOM      7  C   UNL     1       4.823   4.396  18.532  0.00  0.00    +0.000 A 
ATOM      8  C   UNL     1       4.863   3.979  17.193  0.00  0.00    +0.000 A 
ATOM      9  C   UNL     1       5.918   4.349  16.355  0.00  0.00    +0.000 A 
ATOM     10  C   UNL     1       6.934   5.168  16.839  0.00  0.00    +0.000 A 
ATOM     11  C   UNL     1       6.891   5.603  18.161  0.00  0.00    +0.000 A 
ATOM     12 CL   UNL     1       8.116   6.662  18.750  0.00  0.00    +0.000 Cl
ATOM     13  C   UNL     1       5.855   5.211  19.011  0.00  0.00    +0.000 A 
ENDBRANCH   6   7
BRANCH   5  14
ATOM     14  C   UNL     1       2.270   6.056  19.185  0.00  0.00    +0.000 A 
ATOM     15  C   UNL     1       2.432   6.746  17.980  0.00  0.00    +0.000 A 
ATOM     16  C   UNL     1       2.210   8.121  17.943  0.00  0.00    +0.000 A 
ATOM     17  C   UNL     1       1.824   8.780  19.102  0.00  0.00    +0.000 A 
ATOM     18  C   UNL     1       1.707   8.036  20.263  0.00  0.00    +0.000 A 
ATOM     19  N   UNL     1       1.930   6.702  20.334  0.00  0.00    +0.000 NA
ENDBRANCH   5  14
TORSDOF 2
ENDMDL
MODEL 2
REMARK VINA RESULT:      -7.6      1.181      1.616
REMARK  Name = 
REMARK  2 active torsions:
REMARK  status: ('A' for Active; 'I' for Inactive)
REMARK    1  A    between atoms: C_5  and  C_6
REMARK    2  A    between atoms: N_12  and  C_13
REMARK                            x       y       z     vdW  Elec       q    Type
REMARK                         _______ _______ _______ _____ _____    ______ ____
ROOT
ATOM      1  O   UNL     1       4.867   2.104  20.228  0.00  0.00    +0.000 OA
ATOM      2  C   UNL     1       3.877   2.822  20.109  0.00  0.00    +0.000 C 
ATOM      3  C   UNL     1       2.561   2.440  20.744  0.00  0.00    +0.000 C 
ATOM      4  S   UNL     1       1.379   3.740  20.390  0.00  0.00    +0.000 S 
ATOM      5  C   UNL     1       2.450   4.511  19.135  0.00  0.00    +0.000 C 
ATOM      6  N   UNL     1       3.788   3.986  19.336  0.00  0.00    +0.000 N 
ENDROOT
BRANCH   6   7
ATOM      7  C   UNL     1       4.895   4.411  18.544  0.00  0.00    +0.000 A 
ATOM      8  C   UNL     1       5.896   5.213  19.113  0.00  0.00    +0.000 A 
ATOM      9  C   UNL     1       6.988   5.646  18.356  0.00  0.00    +0.000 A 
ATOM     10  C   UNL     1       7.108   5.258  17.025  0.00  0.00    +0.000 A 
ATOM     11  C   UNL     1       6.129   4.445  16.459  0.00  0.00    +0.000 A 
ATOM     12 CL   UNL     1       6.299   3.916  14.829  0.00  0.00    +0.000 Cl
ATOM     13  C   UNL     1       5.020   4.035  17.202  0.00  0.00    +0.000 A 
ENDBRANCH   6   7
BRANCH   5  14
ATOM     14  C   UNL     1       2.311   6.036  19.166  0.00  0.00    +0.000 A 
ATOM     15  C   UNL     1       2.478   6.758  17.982  0.00  0.00    +0.000 A 
ATOM     16  C   UNL     1       2.246   8.132  17.979  0.00  0.00    +0.000 A 
ATOM     17  C   UNL     1       1.847   8.757  19.151  0.00  0.00    +0.000 A 
ATOM     18  C   UNL     1       1.725   7.982  20.292  0.00  0.00    +0.000 A 
ATOM     19  N   UNL     1       1.958   6.649  20.329  0.00  0.00    +0.000 NA
ENDBRANCH   5  14
TORSDOF 2
ENDMDL
MODEL 3
REMARK VINA RESULT:      -7.2      2.456      4.631
REMARK  Name = 
REMARK  2 active torsions:
REMARK  status: ('A' for Active; 'I' for Inactive)
REMARK    1  A    between atoms: C_5  and  C_6
REMARK    2  A    between atoms: N_12  and  C_13
REMARK                            x       y       z     vdW  Elec       q    Type
REMARK                         _______ _______ _______ _____ _____    ______ ____
ROOT
ATOM      1  O   UNL     1       0.693   3.640  18.660  0.00  0.00    +0.000 OA
ATOM      2  C   UNL     1       1.884   3.405  18.853  0.00  0.00    +0.000 C 
ATOM      3  C   UNL     1       2.377   1.988  19.023  0.00  0.00    +0.000 C 
ATOM      4  S   UNL     1       4.156   2.044  19.240  0.00  0.00    +0.000 S 
ATOM      5  C   UNL     1       4.167   3.845  19.510  0.00  0.00    +0.000 C 
ATOM      6  N   UNL     1       2.896   4.357  19.030  0.00  0.00    +0.000 N 
ENDROOT
BRANCH   6   7
ATOM      7  C   UNL     1       2.582   5.747  19.054  0.00  0.00    +0.000 A 
ATOM      8  C   UNL     1       2.698   6.511  17.883  0.00  0.00    +0.000 A 
ATOM      9  C   UNL     1       2.399   7.876  17.881  0.00  0.00    +0.000 A 
ATOM     10  C   UNL     1       1.953   8.490  19.048  0.00  0.00    +0.000 A 
ATOM     11  C   UNL     1       1.817   7.735  20.209  0.00  0.00    +0.000 A 
ATOM     12 CL   UNL     1       1.213   8.476  21.642  0.00  0.00    +0.000 Cl
ATOM     13  C   UNL     1       2.143   6.377  20.224  0.00  0.00    +0.000 A 
ENDBRANCH   6   7
BRANCH   5  14
ATOM     14  C   UNL     1       5.422   4.477  18.902  0.00  0.00    +0.000 A 
ATOM     15  C   UNL     1       5.609   4.421  17.518  0.00  0.00    +0.000 A 
ATOM     16  C   UNL     1       6.691   5.087  16.946  0.00  0.00    +0.000 A 
ATOM     17  C   UNL     1       7.559   5.802  17.759  0.00  0.00    +0.000 A 
ATOM     18  C   UNL     1       7.325   5.793  19.123  0.00  0.00    +0.000 A 
ATOM     19  N   UNL     1       6.292   5.143  19.710  0.00  0.00    +0.000 NA
ENDBRANCH   5  14
TORSDOF 2
ENDMDL
MODEL 4
REMARK VINA RESULT:      -7.2      1.347      1.961
REMARK  Name = 
REMARK  2 active torsions:
REMARK  status: ('A' for Active; 'I' for Inactive)
REMARK    1  A    between atoms: C_5  and  C_6
REMARK    2  A    between atoms: N_12  and  C_13
REMARK                            x       y       z     vdW  Elec       q    Type
REMARK                         _______ _______ _______ _____ _____    ______ ____
ROOT
ATOM      1  O   UNL     1       4.978   2.078  20.342  0.00  0.00    +0.000 OA
ATOM      2  C   UNL     1       3.949   2.732  20.188  0.00  0.00    +0.000 C 
ATOM      3  C   UNL     1       2.650   2.295  20.823  0.00  0.00    +0.000 C 
ATOM      4  S   UNL     1       1.398   3.510  20.412  0.00  0.00    +0.000 S 
ATOM      5  C   UNL     1       2.438   4.300  19.142  0.00  0.00    +0.000 C 
ATOM      6  N   UNL     1       3.802   3.862  19.375  0.00  0.00    +0.000 N 
ENDROOT
BRANCH   6   7
ATOM      7  C   UNL     1       4.891   4.325  18.580  0.00  0.00    +0.000 A 
ATOM      8  C   UNL     1       5.877   5.143  19.152  0.00  0.00    +0.000 A 
ATOM      9  C   UNL     1       6.952   5.613  18.393  0.00  0.00    +0.000 A 
ATOM     10  C   UNL     1       7.071   5.245  17.056  0.00  0.00    +0.000 A 
ATOM     11  C   UNL     1       6.108   4.416  16.487  0.00  0.00    +0.000 A 
ATOM     12 CL   UNL     1       6.279   3.911  14.848  0.00  0.00    +0.000 Cl
ATOM     13  C   UNL     1       5.016   3.969  17.232  0.00  0.00    +0.000 A 
ENDBRANCH   6   7
BRANCH   5  14
ATOM     14  C   UNL     1       2.210   5.814  19.119  0.00  0.00    +0.000 A 
ATOM     15  C   UNL     1       1.888   6.472  20.310  0.00  0.00    +0.000 A 
ATOM     16  C   UNL     1       1.787   7.861  20.318  0.00  0.00    +0.000 A 
ATOM     17  C   UNL     1       2.015   8.568  19.146  0.00  0.00    +0.000 A 
ATOM     18  C   UNL     1       2.305   7.849  18.000  0.00  0.00    +0.000 A 
ATOM     19  N   UNL     1       2.396   6.498  17.957  0.00  0.00    +0.000 NA
ENDBRANCH   5  14
TORSDOF 2
ENDMDL
MODEL 5
REMARK VINA RESULT:      -7.1      0.651      1.113
REMARK  Name = 
REMARK  2 active torsions:
REMARK  status: ('A' for Active; 'I' for Inactive)
REMARK    1  A    between atoms: C_5  and  C_6
REMARK    2  A    between atoms: N_12  and  C_13
REMARK                            x       y       z     vdW  Elec       q    Type
REMARK                         _______ _______ _______ _____ _____    ______ ____
ROOT
ATOM      1  O   UNL     1       5.048   2.157  20.219  0.00  0.00    +0.000 OA
ATOM      2  C   UNL     1       4.008   2.805  20.123  0.00  0.00    +0.000 C 
ATOM      3  C   UNL     1       2.752   2.365  20.838  0.00  0.00    +0.000 C 
ATOM      4  S   UNL     1       1.470   3.570  20.496  0.00  0.00    +0.000 S 
ATOM      5  C   UNL     1       2.426   4.357  19.160  0.00  0.00    +0.000 C 
ATOM      6  N   UNL     1       3.805   3.928  19.312  0.00  0.00    +0.000 N 
ENDROOT
BRANCH   6   7
ATOM      7  C   UNL     1       4.841   4.391  18.450  0.00  0.00    +0.000 A 
ATOM      8  C   UNL     1       4.854   4.006  17.101  0.00  0.00    +0.000 A 
ATOM      9  C   UNL     1       5.861   4.444  16.237  0.00  0.00    +0.000 A 
ATOM     10  C   UNL     1       6.855   5.297  16.705  0.00  0.00    +0.000 A 
ATOM     11  C   UNL     1       6.838   5.700  18.038  0.00  0.00    +0.000 A 
ATOM     12 CL   UNL     1       8.033   6.800  18.611  0.00  0.00    +0.000 Cl
ATOM     13  C   UNL     1       5.851   5.241  18.913  0.00  0.00    +0.000 A 
ENDBRANCH   6   7
BRANCH   5  14
ATOM     14  C   UNL     1       2.188   5.869  19.140  0.00  0.00    +0.000 A 
ATOM     15  C   UNL     1       1.825   6.516  20.325  0.00  0.00    +0.000 A 
ATOM     16  C   UNL     1       1.714   7.905  20.340  0.00  0.00    +0.000 A 
ATOM     17  C   UNL     1       1.973   8.622  19.180  0.00  0.00    +0.000 A 
ATOM     18  C   UNL     1       2.303   7.912  18.039  0.00  0.00    +0.000 A 
ATOM     19  N   UNL     1       2.405   6.563  17.989  0.00  0.00    +0.000 NA
ENDBRANCH   5  14
TORSDOF 2
ENDMDL
MODEL 6
REMARK VINA RESULT:      -7.0      2.541      4.741
REMARK  Name = 
REMARK  2 active torsions:
REMARK  status: ('A' for Active; 'I' for Inactive)
REMARK    1  A    between atoms: C_5  and  C_6
REMARK    2  A    between atoms: N_12  and  C_13
REMARK                            x       y       z     vdW  Elec       q    Type
REMARK                         _______ _______ _______ _____ _____    ______ ____
ROOT
ATOM      1  O   UNL     1       0.788   3.890  17.616  0.00  0.00    +0.000 OA
ATOM      2  C   UNL     1       1.973   3.634  17.815  0.00  0.00    +0.000 C 
ATOM      3  C   UNL     1       2.538   2.273  17.487  0.00  0.00    +0.000 C 
ATOM      4  S   UNL     1       4.289   2.294  17.873  0.00  0.00    +0.000 S 
ATOM      5  C   UNL     1       4.169   3.859  18.797  0.00  0.00    +0.000 C 
ATOM      6  N   UNL     1       2.908   4.477  18.428  0.00  0.00    +0.000 N 
ENDROOT
BRANCH   6   7
ATOM      7  C   UNL     1       2.508   5.745  18.941  0.00  0.00    +0.000 A 
ATOM      8  C   UNL     1       2.125   5.868  20.285  0.00  0.00    +0.000 A 
ATOM      9  C   UNL     1       1.725   7.100  20.810  0.00  0.00    +0.000 A 
ATOM     10  C   UNL     1       1.732   8.234  20.002  0.00  0.00    +0.000 A 
ATOM     11  C   UNL     1       2.130   8.124  18.673  0.00  0.00    +0.000 A 
ATOM     12 CL   UNL     1       2.194   9.532  17.683  0.00  0.00    +0.000 Cl
ATOM     13  C   UNL     1       2.501   6.890  18.135  0.00  0.00    +0.000 A 
ENDBRANCH   6   7
BRANCH   5  14
ATOM     14  C   UNL     1       5.424   4.710  18.587  0.00  0.00    +0.000 A 
ATOM     15  C   UNL     1       5.647   5.299  17.339  0.00  0.00    +0.000 A 
ATOM     16  C   UNL     1       6.727   6.163  17.172  0.00  0.00    +0.000 A 
ATOM     17  C   UNL     1       7.559   6.429  18.250  0.00  0.00    +0.000 A 
ATOM     18  C   UNL     1       7.292   5.792  19.449  0.00  0.00    +0.000 A 
ATOM     19  N   UNL     1       6.260   4.936  19.638  0.00  0.00    +0.000 NA
ENDBRANCH   5  14
TORSDOF 2
ENDMDL
MODEL 7
REMARK VINA RESULT:      -7.0      1.115      1.122
REMARK  Name = 
REMARK  2 active torsions:
REMARK  status: ('A' for Active; 'I' for Inactive)
REMARK    1  A    between atoms: C_5  and  C_6
REMARK    2  A    between atoms: N_12  and  C_13
REMARK                            x       y       z     vdW  Elec       q    Type
REMARK                         _______ _______ _______ _____ _____    ______ ____
ROOT
ATOM      1  O   UNL     1       4.137   1.220  18.674  0.00  0.00    +0.000 OA
ATOM      2  C   UNL     1       3.261   2.081  18.686  0.00  0.00    +0.000 C 
ATOM      3  C   UNL     1       1.831   1.727  19.020  0.00  0.00    +0.000 C 
ATOM      4  S   UNL     1       0.864   3.236  18.977  0.00  0.00    +0.000 S 
ATOM      5  C   UNL     1       2.189   4.181  18.159  0.00  0.00    +0.000 C 
ATOM      6  N   UNL     1       3.417   3.424  18.322  0.00  0.00    +0.000 N 
ENDROOT
BRANCH   6   7
ATOM      7  C   UNL     1       4.669   3.898  17.833  0.00  0.00    +0.000 A 
ATOM      8  C   UNL     1       4.963   3.810  16.464  0.00  0.00    +0.000 A 
ATOM      9  C   UNL     1       6.185   4.264  15.960  0.00  0.00    +0.000 A 
ATOM     10  C   UNL     1       7.119   4.839  16.817  0.00  0.00    +0.000 A 
ATOM     11  C   UNL     1       6.826   4.948  18.173  0.00  0.00    +0.000 A 
ATOM     12 CL   UNL     1       7.954   5.708  19.231  0.00  0.00    +0.000 Cl
ATOM     13  C   UNL     1       5.619   4.468  18.687  0.00  0.00    +0.000 A 
ENDBRANCH   6   7
BRANCH   5  14
ATOM     14  C   UNL     1       2.215   5.627  18.662  0.00  0.00    +0.000 A 
ATOM     15  C   UNL     1       2.385   6.665  17.741  0.00  0.00    +0.000 A 
ATOM     16  C   UNL     1       2.300   7.986  18.176  0.00  0.00    +0.000 A 
ATOM     17  C   UNL     1       2.042   8.248  19.514  0.00  0.00    +0.000 A 
ATOM     18  C   UNL     1       1.909   7.170  20.372  0.00  0.00    +0.000 A 
ATOM     19  N   UNL     1       2.001   5.876  19.983  0.00  0.00    +0.000 NA
ENDBRANCH   5  14
TORSDOF 2
ENDMDL
MODEL 8
REMARK VINA RESULT:      -7.0      2.432      4.774
REMARK  Name = 
REMARK  2 active torsions:
REMARK  status: ('A' for Active; 'I' for Inactive)
REMARK    1  A    between atoms: C_5  and  C_6
REMARK    2  A    between atoms: N_12  and  C_13
REMARK                            x       y       z     vdW  Elec       q    Type
REMARK                         _______ _______ _______ _____ _____    ______ ____
ROOT
ATOM      1  O   UNL     1       0.592   3.671  19.258  0.00  0.00    +0.000 OA
ATOM      2  C   UNL     1       1.802   3.456  19.270  0.00  0.00    +0.000 C 
ATOM      3  C   UNL     1       2.340   2.056  19.447  0.00  0.00    +0.000 C 
ATOM      4  S   UNL     1       4.129   2.137  19.369  0.00  0.00    +0.000 S 
ATOM      5  C   UNL     1       4.154   3.952  19.518  0.00  0.00    +0.000 C 
ATOM      6  N   UNL     1       2.814   4.423  19.219  0.00  0.00    +0.000 N 
ENDROOT
BRANCH   6   7
ATOM      7  C   UNL     1       2.485   5.810  19.204  0.00  0.00    +0.000 A 
ATOM      8  C   UNL     1       2.539   6.530  18.001  0.00  0.00    +0.000 A 
ATOM      9  C   UNL     1       2.224   7.891  17.962  0.00  0.00    +0.000 A 
ATOM     10  C   UNL     1       1.824   8.545  19.123  0.00  0.00    +0.000 A 
ATOM     11  C   UNL     1       1.748   7.833  20.317  0.00  0.00    +0.000 A 
ATOM     12 CL   UNL     1       1.200   8.622  21.747  0.00  0.00    +0.000 Cl
ATOM     13  C   UNL     1       2.090   6.480  20.368  0.00  0.00    +0.000 A 
ENDBRANCH   6   7
BRANCH   5  14
ATOM     14  C   UNL     1       5.283   4.550  18.674  0.00  0.00    +0.000 A 
ATOM     15  C   UNL     1       6.237   5.363  19.293  0.00  0.00    +0.000 A 
ATOM     16  C   UNL     1       7.327   5.821  18.557  0.00  0.00    +0.000 A 
ATOM     17  C   UNL     1       7.451   5.457  17.224  0.00  0.00    +0.000 A 
ATOM     18  C   UNL     1       6.455   4.670  16.671  0.00  0.00    +0.000 A 
ATOM     19  N   UNL     1       5.377   4.221  17.356  0.00  0.00    +0.000 NA
ENDBRANCH   5  14
TORSDOF 2
ENDMDL
MODEL 9
REMARK VINA RESULT:      -6.9      1.679      2.001
REMARK  Name = 
REMARK  2 active torsions:
REMARK  status: ('A' for Active; 'I' for Inactive)
REMARK    1  A    between atoms: C_5  and  C_6
REMARK    2  A    between atoms: N_12  and  C_13
REMARK                            x       y       z     vdW  Elec       q    Type
REMARK                         _______ _______ _______ _____ _____    ______ ____
ROOT
ATOM      1  O   UNL     1       4.108   1.214  18.600  0.00  0.00    +0.000 OA
ATOM      2  C   UNL     1       3.241   2.084  18.632  0.00  0.00    +0.000 C 
ATOM      3  C   UNL     1       1.818   1.746  19.012  0.00  0.00    +0.000 C 
ATOM      4  S   UNL     1       0.865   3.264  18.985  0.00  0.00    +0.000 S 
ATOM      5  C   UNL     1       2.173   4.190  18.120  0.00  0.00    +0.000 C 
ATOM      6  N   UNL     1       3.398   3.422  18.253  0.00  0.00    +0.000 N 
ENDROOT
BRANCH   6   7
ATOM      7  C   UNL     1       4.639   3.880  17.722  0.00  0.00    +0.000 A 
ATOM      8  C   UNL     1       5.622   4.393  18.581  0.00  0.00    +0.000 A 
ATOM      9  C   UNL     1       6.845   4.851  18.084  0.00  0.00    +0.000 A 
ATOM     10  C   UNL     1       7.113   4.775  16.720  0.00  0.00    +0.000 A 
ATOM     11  C   UNL     1       6.150   4.248  15.863  0.00  0.00    +0.000 A 
ATOM     12 CL   UNL     1       6.496   4.100  14.182  0.00  0.00    +0.000 Cl
ATOM     13  C   UNL     1       4.915   3.817  16.351  0.00  0.00    +0.000 A 
ENDBRANCH   6   7
BRANCH   5  14
ATOM     14  C   UNL     1       2.228   5.639  18.610  0.00  0.00    +0.000 A 
ATOM     15  C   UNL     1       2.406   6.666  17.679  0.00  0.00    +0.000 A 
ATOM     16  C   UNL     1       2.348   7.992  18.102  0.00  0.00    +0.000 A 
ATOM     17  C   UNL     1       2.106   8.270  19.440  0.00  0.00    +0.000 A 
ATOM     18  C   UNL     1       1.963   7.202  20.309  0.00  0.00    +0.000 A 
ATOM     19  N   UNL     1       2.029   5.903  19.931  0.00  0.00    +0.000 NA
ENDBRANCH   5  14
TORSDOF 2
ENDMDL
