MODEL 1
REMARK VINA RESULT:      -7.0      0.000      0.000
REMARK  Name = 
REMARK  6 active torsions:
REMARK  status: ('A' for Active; 'I' for Inactive)
REMARK    1  A    between atoms: C_1  and  N_2
REMARK    2  A    between atoms: N_2  and  C_3
REMARK    3  A    between atoms: C_7  and  C_8
REMARK    4  A    between atoms: C_8  and  N_9
REMARK    5  A    between atoms: N_9  and  S_10
REMARK    6  A    between atoms: S_10  and  C_13
REMARK                            x       y       z     vdW  Elec       q    Type
REMARK                         _______ _______ _______ _____ _____    ______ ____
ROOT
ATOM      1  N   UNL     1       5.757   5.137  17.220  0.00  0.00    +0.000 NA
ATOM      2  H   UNL     1       5.119   5.855  16.862  0.00  0.00    +0.000 HD
ENDROOT
BRANCH   1   3
ATOM      3  S   UNL     1       7.216   5.276  16.368  0.00  0.00    +0.000 S 
ATOM      4  O   UNL     1       7.561   6.679  16.330  0.00  0.00    +0.000 OA
ATOM      5  O   UNL     1       8.124   4.283  16.892  0.00  0.00    +0.000 OA
BRANCH   3   6
ATOM      6  C   UNL     1       6.929   4.787  14.686  0.00  0.00    +0.000 A 
ATOM      7  C   UNL     1       7.658   4.983  13.529  0.00  0.00    +0.000 A 
ATOM      8  C   UNL     1       7.037   4.389  12.390  0.00  0.00    +0.000 A 
ATOM      9  C   UNL     1       5.860   3.777  12.738  0.00  0.00    +0.000 A 
ATOM     10 CL   UNL     1       4.785   2.951  11.686  0.00  0.00    +0.000 Cl
ATOM     11  S   UNL     1       5.506   3.880  14.389  0.00  0.00    +0.000 S 
ENDBRANCH   3   6
ENDBRANCH   1   3
BRANCH   1  12
ATOM     12  C   UNL     1       5.911   5.226  18.684  0.00  0.00    +0.000 C 
BRANCH  12  19
ATOM     13  C   UNL     1       0.797   4.565  20.398  0.00  0.00    +0.000 C 
ATOM     14  N   UNL     1       1.854   3.724  20.936  0.00  0.00    +0.000 N 
ATOM     15  C   UNL     1       1.442   2.504  21.632  0.00  0.00    +0.000 C 
ATOM     16  C   UNL     1       3.074   3.668  20.337  0.00  0.00    +0.000 A 
ATOM     17  N   UNL     1       3.926   2.664  20.291  0.00  0.00    +0.000 NA
ATOM     18  N   UNL     1       5.067   3.083  19.654  0.00  0.00    +0.000 NA
ATOM     19  C   UNL     1       4.908   4.350  19.337  0.00  0.00    +0.000 A 
ATOM     20  N   UNL     1       3.651   4.745  19.715  0.00  0.00    +0.000 N 
ATOM     21  H   UNL     1       3.259   5.670  19.639  0.00  0.00    +0.000 HD
ENDBRANCH  12  19
ENDBRANCH   1  12
TORSDOF 4
ENDMDL
MODEL 2
REMARK VINA RESULT:      -7.0      3.803      7.426
REMARK  Name = 
REMARK  6 active torsions:
REMARK  status: ('A' for Active; 'I' for Inactive)
REMARK    1  A    between atoms: C_1  and  N_2
REMARK    2  A    between atoms: N_2  and  C_3
REMARK    3  A    between atoms: C_7  and  C_8
REMARK    4  A    between atoms: C_8  and  N_9
REMARK    5  A    between atoms: N_9  and  S_10
REMARK    6  A    between atoms: S_10  and  C_13
REMARK                            x       y       z     vdW  Elec       q    Type
REMARK                         _______ _______ _______ _____ _____    ______ ____
ROOT
ATOM      1  N   UNL     1       4.658   3.481  17.448  0.00  0.00    +0.000 NA
ATOM      2  H   UNL     1       4.590   2.735  16.747  0.00  0.00    +0.000 HD
ENDROOT
BRANCH   1   3
ATOM      3  S   UNL     1       4.141   2.843  18.930  0.00  0.00    +0.000 S 
ATOM      4  O   UNL     1       3.431   1.616  18.648  0.00  0.00    +0.000 OA
ATOM      5  O   UNL     1       5.263   2.880  19.838  0.00  0.00    +0.000 OA
BRANCH   3   6
ATOM      6  C   UNL     1       2.951   3.958  19.632  0.00  0.00    +0.000 A 
ATOM      7  C   UNL     1       1.731   3.742  20.246  0.00  0.00    +0.000 A 
ATOM      8  C   UNL     1       1.118   4.957  20.674  0.00  0.00    +0.000 A 
ATOM      9  C   UNL     1       1.901   6.038  20.357  0.00  0.00    +0.000 A 
ATOM     10 CL   UNL     1       1.546   7.687  20.675  0.00  0.00    +0.000 Cl
ATOM     11  S   UNL     1       3.349   5.623  19.587  0.00  0.00    +0.000 S 
ENDBRANCH   3   6
ENDBRANCH   1   3
BRANCH   1  12
ATOM     12  C   UNL     1       6.012   4.064  17.490  0.00  0.00    +0.000 C 
BRANCH  12  19
ATOM     13  C   UNL     1       5.427   3.280  12.145  0.00  0.00    +0.000 C 
ATOM     14  N   UNL     1       6.644   3.889  12.657  0.00  0.00    +0.000 N 
ATOM     15  C   UNL     1       7.490   4.592  11.693  0.00  0.00    +0.000 C 
ATOM     16  C   UNL     1       6.708   4.351  13.934  0.00  0.00    +0.000 A 
ATOM     17  N   UNL     1       7.419   5.350  14.416  0.00  0.00    +0.000 NA
ATOM     18  N   UNL     1       7.241   5.405  15.775  0.00  0.00    +0.000 NA
ATOM     19  C   UNL     1       6.436   4.420  16.114  0.00  0.00    +0.000 A 
ATOM     20  N   UNL     1       6.049   3.757  14.979  0.00  0.00    +0.000 N 
ATOM     21  H   UNL     1       5.468   2.935  14.927  0.00  0.00    +0.000 HD
ENDBRANCH  12  19
ENDBRANCH   1  12
TORSDOF 4
ENDMDL
MODEL 3
REMARK VINA RESULT:      -7.0      3.651      7.159
REMARK  Name = 
REMARK  6 active torsions:
REMARK  status: ('A' for Active; 'I' for Inactive)
REMARK    1  A    between atoms: C_1  and  N_2
REMARK    2  A    between atoms: N_2  and  C_3
REMARK    3  A    between atoms: C_7  and  C_8
REMARK    4  A    between atoms: C_8  and  N_9
REMARK    5  A    between atoms: N_9  and  S_10
REMARK    6  A    between atoms: S_10  and  C_13
REMARK                            x       y       z     vdW  Elec       q    Type
REMARK                         _______ _______ _______ _____ _____    ______ ____
ROOT
ATOM      1  N   UNL     1       5.699   5.593  18.212  0.00  0.00    +0.000 NA
ATOM      2  H   UNL     1       6.140   6.478  17.940  0.00  0.00    +0.000 HD
ENDROOT
BRANCH   1   3
ATOM      3  S   UNL     1       4.074   5.663  17.735  0.00  0.00    +0.000 S 
ATOM      4  O   UNL     1       3.771   7.043  17.431  0.00  0.00    +0.000 OA
ATOM      5  O   UNL     1       3.855   4.607  16.774  0.00  0.00    +0.000 OA
BRANCH   3   6
ATOM      6  C   UNL     1       3.065   5.226  19.129  0.00  0.00    +0.000 A 
ATOM      7  C   UNL     1       2.261   5.981  19.962  0.00  0.00    +0.000 A 
ATOM      8  C   UNL     1       1.616   5.188  20.957  0.00  0.00    +0.000 A 
ATOM      9  C   UNL     1       1.968   3.868  20.835  0.00  0.00    +0.000 A 
ATOM     10 CL   UNL     1       1.438   2.571  21.826  0.00  0.00    +0.000 Cl
ATOM     11  S   UNL     1       3.025   3.566  19.549  0.00  0.00    +0.000 S 
ENDBRANCH   3   6
ENDBRANCH   1   3
BRANCH   1  12
ATOM     12  C   UNL     1       6.430   4.433  17.670  0.00  0.00    +0.000 C 
BRANCH  12  19
ATOM     13  C   UNL     1       5.289   3.289  12.482  0.00  0.00    +0.000 C 
ATOM     14  N   UNL     1       6.573   3.877  12.827  0.00  0.00    +0.000 N 
ATOM     15  C   UNL     1       7.347   4.468  11.734  0.00  0.00    +0.000 C 
ATOM     16  C   UNL     1       6.782   4.427  14.052  0.00  0.00    +0.000 A 
ATOM     17  N   UNL     1       7.575   5.425  14.385  0.00  0.00    +0.000 NA
ATOM     18  N   UNL     1       7.533   5.587  15.747  0.00  0.00    +0.000 NA
ATOM     19  C   UNL     1       6.729   4.668  16.236  0.00  0.00    +0.000 A 
ATOM     20  N   UNL     1       6.206   3.942  15.198  0.00  0.00    +0.000 N 
ATOM     21  H   UNL     1       5.591   3.146  15.265  0.00  0.00    +0.000 HD
ENDBRANCH  12  19
ENDBRANCH   1  12
TORSDOF 4
ENDMDL
MODEL 4
REMARK VINA RESULT:      -6.9      4.641      6.543
REMARK  Name = 
REMARK  6 active torsions:
REMARK  status: ('A' for Active; 'I' for Inactive)
REMARK    1  A    between atoms: C_1  and  N_2
REMARK    2  A    between atoms: N_2  and  C_3
REMARK    3  A    between atoms: C_7  and  C_8
REMARK    4  A    between atoms: C_8  and  N_9
REMARK    5  A    between atoms: N_9  and  S_10
REMARK    6  A    between atoms: S_10  and  C_13
REMARK                            x       y       z     vdW  Elec       q    Type
REMARK                         _______ _______ _______ _____ _____    ______ ____
ROOT
ATOM      1  N   UNL     1       2.519   1.726  17.971  0.00  0.00    +0.000 NA
ATOM      2  H   UNL     1       2.086   0.858  17.639  0.00  0.00    +0.000 HD
ENDROOT
BRANCH   1   3
ATOM      3  S   UNL     1       1.418   2.484  19.013  0.00  0.00    +0.000 S 
ATOM      4  O   UNL     1       0.097   2.286  18.463  0.00  0.00    +0.000 OA
ATOM      5  O   UNL     1       1.748   2.085  20.361  0.00  0.00    +0.000 OA
BRANCH   3   6
ATOM      6  C   UNL     1       1.721   4.233  18.969  0.00  0.00    +0.000 A 
ATOM      7  C   UNL     1       2.063   5.086  17.938  0.00  0.00    +0.000 A 
ATOM      8  C   UNL     1       2.191   6.439  18.374  0.00  0.00    +0.000 A 
ATOM      9  C   UNL     1       1.946   6.544  19.719  0.00  0.00    +0.000 A 
ATOM     10 CL   UNL     1       1.999   7.978  20.660  0.00  0.00    +0.000 Cl
ATOM     11  S   UNL     1       1.547   5.072  20.452  0.00  0.00    +0.000 S 
ENDBRANCH   3   6
ENDBRANCH   1   3
BRANCH   1  12
ATOM     12  C   UNL     1       3.840   1.477  18.578  0.00  0.00    +0.000 C 
BRANCH  12  19
ATOM     13  C   UNL     1       5.777   5.626  15.652  0.00  0.00    +0.000 C 
ATOM     14  N   UNL     1       6.397   5.286  16.922  0.00  0.00    +0.000 N 
ATOM     15  C   UNL     1       7.270   6.293  17.524  0.00  0.00    +0.000 C 
ATOM     16  C   UNL     1       5.778   4.452  17.799  0.00  0.00    +0.000 A 
ATOM     17  N   UNL     1       5.849   4.437  19.115  0.00  0.00    +0.000 NA
ATOM     18  N   UNL     1       5.127   3.370  19.584  0.00  0.00    +0.000 NA
ATOM     19  C   UNL     1       4.639   2.727  18.545  0.00  0.00    +0.000 A 
ATOM     20  N   UNL     1       4.994   3.399  17.404  0.00  0.00    +0.000 N 
ATOM     21  H   UNL     1       4.799   3.124  16.454  0.00  0.00    +0.000 HD
ENDBRANCH  12  19
ENDBRANCH   1  12
TORSDOF 4
ENDMDL
MODEL 5
REMARK VINA RESULT:      -6.8      3.887      5.016
REMARK  Name = 
REMARK  6 active torsions:
REMARK  status: ('A' for Active; 'I' for Inactive)
REMARK    1  A    between atoms: C_1  and  N_2
REMARK    2  A    between atoms: N_2  and  C_3
REMARK    3  A    between atoms: C_7  and  C_8
REMARK    4  A    between atoms: C_8  and  N_9
REMARK    5  A    between atoms: N_9  and  S_10
REMARK    6  A    between atoms: S_10  and  C_13
REMARK                            x       y       z     vdW  Elec       q    Type
REMARK                         _______ _______ _______ _____ _____    ______ ____
ROOT
ATOM      1  N   UNL     1       2.547   3.804  19.106  0.00  0.00    +0.000 NA
ATOM      2  H   UNL     1       2.213   4.393  18.336  0.00  0.00    +0.000 HD
ENDROOT
BRANCH   1   3
ATOM      3  S   UNL     1       4.024   3.124  18.629  0.00  0.00    +0.000 S 
ATOM      4  O   UNL     1       4.774   2.833  19.830  0.00  0.00    +0.000 OA
ATOM      5  O   UNL     1       3.739   2.106  17.646  0.00  0.00    +0.000 OA
BRANCH   3   6
ATOM      6  C   UNL     1       4.949   4.359  17.751  0.00  0.00    +0.000 A 
ATOM      7  C   UNL     1       4.975   4.720  16.417  0.00  0.00    +0.000 A 
ATOM      8  C   UNL     1       5.878   5.796  16.164  0.00  0.00    +0.000 A 
ATOM      9  C   UNL     1       6.500   6.193  17.320  0.00  0.00    +0.000 A 
ATOM     10 CL   UNL     1       7.666   7.442  17.477  0.00  0.00    +0.000 Cl
ATOM     11  S   UNL     1       6.007   5.327  18.687  0.00  0.00    +0.000 S 
ENDBRANCH   3   6
ENDBRANCH   1   3
BRANCH   1  12
ATOM     12  C   UNL     1       2.619   4.556  20.373  0.00  0.00    +0.000 C 
BRANCH  12  19
ATOM     13  C   UNL     1       0.989   9.351  22.341  0.00  0.00    +0.000 C 
ATOM     14  N   UNL     1       0.921   9.096  20.911  0.00  0.00    +0.000 N 
ATOM     15  C   UNL     1       0.766  10.259  20.036  0.00  0.00    +0.000 C 
ATOM     16  C   UNL     1       1.570   8.036  20.360  0.00  0.00    +0.000 A 
ATOM     17  N   UNL     1       2.087   7.920  19.154  0.00  0.00    +0.000 NA
ATOM     18  N   UNL     1       2.569   6.645  19.001  0.00  0.00    +0.000 NA
ATOM     19  C   UNL     1       2.321   5.986  20.112  0.00  0.00    +0.000 A 
ATOM     20  N   UNL     1       1.728   6.837  21.007  0.00  0.00    +0.000 N 
ATOM     21  H   UNL     1       1.387   6.607  21.927  0.00  0.00    +0.000 HD
ENDBRANCH  12  19
ENDBRANCH   1  12
TORSDOF 4
ENDMDL
MODEL 6
REMARK VINA RESULT:      -6.7      3.547      6.667
REMARK  Name = 
REMARK  6 active torsions:
REMARK  status: ('A' for Active; 'I' for Inactive)
REMARK    1  A    between atoms: C_1  and  N_2
REMARK    2  A    between atoms: N_2  and  C_3
REMARK    3  A    between atoms: C_7  and  C_8
REMARK    4  A    between atoms: C_8  and  N_9
REMARK    5  A    between atoms: N_9  and  S_10
REMARK    6  A    between atoms: S_10  and  C_13
REMARK                            x       y       z     vdW  Elec       q    Type
REMARK                         _______ _______ _______ _____ _____    ______ ____
ROOT
ATOM      1  N   UNL     1       5.418   3.311  18.937  0.00  0.00    +0.000 NA
ATOM      2  H   UNL     1       5.862   2.723  19.649  0.00  0.00    +0.000 HD
ENDROOT
BRANCH   1   3
ATOM      3  S   UNL     1       3.740   3.197  19.150  0.00  0.00    +0.000 S 
ATOM      4  O   UNL     1       3.187   2.643  17.935  0.00  0.00    +0.000 OA
ATOM      5  O   UNL     1       3.504   2.591  20.439  0.00  0.00    +0.000 OA
BRANCH   3   6
ATOM      6  C   UNL     1       3.083   4.840  19.293  0.00  0.00    +0.000 A 
ATOM      7  C   UNL     1       2.660   5.575  20.384  0.00  0.00    +0.000 A 
ATOM      8  C   UNL     1       2.214   6.880  20.019  0.00  0.00    +0.000 A 
ATOM      9  C   UNL     1       2.313   7.069  18.664  0.00  0.00    +0.000 A 
ATOM     10 CL   UNL     1       1.878   8.482  17.793  0.00  0.00    +0.000 Cl
ATOM     11  S   UNL     1       2.946   5.735  17.839  0.00  0.00    +0.000 S 
ENDBRANCH   3   6
ENDBRANCH   1   3
BRANCH   1  12
ATOM     12  C   UNL     1       5.931   4.693  18.976  0.00  0.00    +0.000 C 
BRANCH  12  19
ATOM     13  C   UNL     1       5.862   3.785  13.619  0.00  0.00    +0.000 C 
ATOM     14  N   UNL     1       6.971   4.512  14.214  0.00  0.00    +0.000 N 
ATOM     15  C   UNL     1       7.825   5.279  13.307  0.00  0.00    +0.000 C 
ATOM     16  C   UNL     1       6.887   4.996  15.482  0.00  0.00    +0.000 A 
ATOM     17  N   UNL     1       7.461   6.064  15.999  0.00  0.00    +0.000 NA
ATOM     18  N   UNL     1       7.167   6.120  17.337  0.00  0.00    +0.000 NA
ATOM     19  C   UNL     1       6.432   5.069  17.631  0.00  0.00    +0.000 A 
ATOM     20  N   UNL     1       6.201   4.357  16.483  0.00  0.00    +0.000 N 
ATOM     21  H   UNL     1       5.705   3.483  16.402  0.00  0.00    +0.000 HD
ENDBRANCH  12  19
ENDBRANCH   1  12
TORSDOF 4
ENDMDL
MODEL 7
REMARK VINA RESULT:      -6.7      4.189      6.894
REMARK  Name = 
REMARK  6 active torsions:
REMARK  status: ('A' for Active; 'I' for Inactive)
REMARK    1  A    between atoms: C_1  and  N_2
REMARK    2  A    between atoms: N_2  and  C_3
REMARK    3  A    between atoms: C_7  and  C_8
REMARK    4  A    between atoms: C_8  and  N_9
REMARK    5  A    between atoms: N_9  and  S_10
REMARK    6  A    between atoms: S_10  and  C_13
REMARK                            x       y       z     vdW  Elec       q    Type
REMARK                         _______ _______ _______ _____ _____    ______ ____
ROOT
ATOM      1  N   UNL     1       4.440   2.886  18.459  0.00  0.00    +0.000 NA
ATOM      2  H   UNL     1       4.587   2.142  19.149  0.00  0.00    +0.000 HD
ENDROOT
BRANCH   1   3
ATOM      3  S   UNL     1       2.776   3.204  18.394  0.00  0.00    +0.000 S 
ATOM      4  O   UNL     1       2.356   3.029  17.022  0.00  0.00    +0.000 OA
ATOM      5  O   UNL     1       2.151   2.483  19.478  0.00  0.00    +0.000 OA
BRANCH   3   6
ATOM      6  C   UNL     1       2.520   4.918  18.780  0.00  0.00    +0.000 A 
ATOM      7  C   UNL     1       2.656   6.066  18.024  0.00  0.00    +0.000 A 
ATOM      8  C   UNL     1       2.322   7.242  18.760  0.00  0.00    +0.000 A 
ATOM      9  C   UNL     1       1.957   6.928  20.044  0.00  0.00    +0.000 A 
ATOM     10 CL   UNL     1       1.490   8.030  21.273  0.00  0.00    +0.000 Cl
ATOM     11  S   UNL     1       1.983   5.268  20.368  0.00  0.00    +0.000 S 
ENDBRANCH   3   6
ENDBRANCH   1   3
BRANCH   1  12
ATOM     12  C   UNL     1       5.262   4.073  18.756  0.00  0.00    +0.000 C 
BRANCH  12  19
ATOM     13  C   UNL     1       5.592   3.790  13.339  0.00  0.00    +0.000 C 
ATOM     14  N   UNL     1       6.716   4.302  14.106  0.00  0.00    +0.000 N 
ATOM     15  C   UNL     1       7.733   5.054  13.370  0.00  0.00    +0.000 C 
ATOM     16  C   UNL     1       6.570   4.646  15.413  0.00  0.00    +0.000 A 
ATOM     17  N   UNL     1       7.210   5.570  16.101  0.00  0.00    +0.000 NA
ATOM     18  N   UNL     1       6.800   5.511  17.408  0.00  0.00    +0.000 NA
ATOM     19  C   UNL     1       5.926   4.533  17.511  0.00  0.00    +0.000 A 
ATOM     20  N   UNL     1       5.725   3.989  16.270  0.00  0.00    +0.000 N 
ATOM     21  H   UNL     1       5.143   3.198  16.043  0.00  0.00    +0.000 HD
ENDBRANCH  12  19
ENDBRANCH   1  12
TORSDOF 4
ENDMDL
MODEL 8
REMARK VINA RESULT:      -6.7      3.807      7.214
REMARK  Name = 
REMARK  6 active torsions:
REMARK  status: ('A' for Active; 'I' for Inactive)
REMARK    1  A    between atoms: C_1  and  N_2
REMARK    2  A    between atoms: N_2  and  C_3
REMARK    3  A    between atoms: C_7  and  C_8
REMARK    4  A    between atoms: C_8  and  N_9
REMARK    5  A    between atoms: N_9  and  S_10
REMARK    6  A    between atoms: S_10  and  C_13
REMARK                            x       y       z     vdW  Elec       q    Type
REMARK                         _______ _______ _______ _____ _____    ______ ____
ROOT
ATOM      1  N   UNL     1       4.312   5.357  17.369  0.00  0.00    +0.000 NA
ATOM      2  H   UNL     1       3.787   5.198  16.503  0.00  0.00    +0.000 HD
ENDROOT
BRANCH   1   3
ATOM      3  S   UNL     1       4.465   3.864  18.158  0.00  0.00    +0.000 S 
ATOM      4  O   UNL     1       4.478   2.838  17.140  0.00  0.00    +0.000 OA
ATOM      5  O   UNL     1       5.528   3.988  19.127  0.00  0.00    +0.000 OA
BRANCH   3   6
ATOM      6  C   UNL     1       3.000   3.591  19.123  0.00  0.00    +0.000 A 
ATOM      7  C   UNL     1       1.665   3.839  18.868  0.00  0.00    +0.000 A 
ATOM      8  C   UNL     1       0.823   3.436  19.947  0.00  0.00    +0.000 A 
ATOM      9  C   UNL     1       1.563   2.908  20.974  0.00  0.00    +0.000 A 
ATOM     10 CL   UNL     1       0.963   2.310  22.466  0.00  0.00    +0.000 Cl
ATOM     11  S   UNL     1       3.225   2.866  20.658  0.00  0.00    +0.000 S 
ENDBRANCH   3   6
ENDBRANCH   1   3
BRANCH   1  12
ATOM     12  C   UNL     1       5.600   6.027  17.110  0.00  0.00    +0.000 C 
BRANCH  12  19
ATOM     13  C   UNL     1       4.729   3.566  12.344  0.00  0.00    +0.000 C 
ATOM     14  N   UNL     1       6.074   3.621  12.894  0.00  0.00    +0.000 N 
ATOM     15  C   UNL     1       7.178   3.339  11.976  0.00  0.00    +0.000 C 
ATOM     16  C   UNL     1       6.372   4.457  13.924  0.00  0.00    +0.000 A 
ATOM     17  N   UNL     1       7.514   5.053  14.199  0.00  0.00    +0.000 NA
ATOM     18  N   UNL     1       7.383   5.734  15.382  0.00  0.00    +0.000 NA
ATOM     19  C   UNL     1       6.164   5.528  15.831  0.00  0.00    +0.000 A 
ATOM     20  N   UNL     1       5.483   4.760  14.923  0.00  0.00    +0.000 N 
ATOM     21  H   UNL     1       4.544   4.406  15.013  0.00  0.00    +0.000 HD
ENDBRANCH  12  19
ENDBRANCH   1  12
TORSDOF 4
ENDMDL
MODEL 9
REMARK VINA RESULT:      -6.6      1.670      1.930
REMARK  Name = 
REMARK  6 active torsions:
REMARK  status: ('A' for Active; 'I' for Inactive)
REMARK    1  A    between atoms: C_1  and  N_2
REMARK    2  A    between atoms: N_2  and  C_3
REMARK    3  A    between atoms: C_7  and  C_8
REMARK    4  A    between atoms: C_8  and  N_9
REMARK    5  A    between atoms: N_9  and  S_10
REMARK    6  A    between atoms: S_10  and  C_13
REMARK                            x       y       z     vdW  Elec       q    Type
REMARK                         _______ _______ _______ _____ _____    ______ ____
ROOT
ATOM      1  N   UNL     1       7.169   5.248  18.195  0.00  0.00    +0.000 NA
ATOM      2  H   UNL     1       7.203   4.284  17.847  0.00  0.00    +0.000 HD
ENDROOT
BRANCH   1   3
ATOM      3  S   UNL     1       6.699   6.242  16.905  0.00  0.00    +0.000 S 
ATOM      4  O   UNL     1       5.493   6.929  17.307  0.00  0.00    +0.000 OA
ATOM      5  O   UNL     1       7.870   6.960  16.458  0.00  0.00    +0.000 OA
BRANCH   3   6
ATOM      6  C   UNL     1       6.251   5.205  15.536  0.00  0.00    +0.000 A 
ATOM      7  C   UNL     1       5.118   4.458  15.274  0.00  0.00    +0.000 A 
ATOM      8  C   UNL     1       5.194   3.782  14.019  0.00  0.00    +0.000 A 
ATOM      9  C   UNL     1       6.386   4.044  13.394  0.00  0.00    +0.000 A 
ATOM     10 CL   UNL     1       6.902   3.431  11.876  0.00  0.00    +0.000 Cl
ATOM     11  S   UNL     1       7.391   5.091  14.263  0.00  0.00    +0.000 S 
ENDBRANCH   3   6
ENDBRANCH   1   3
BRANCH   1  12
ATOM     12  C   UNL     1       6.305   5.367  19.384  0.00  0.00    +0.000 C 
BRANCH  12  19
ATOM     13  C   UNL     1       1.292   4.318  17.571  0.00  0.00    +0.000 C 
ATOM     14  N   UNL     1       1.854   3.515  18.644  0.00  0.00    +0.000 N 
ATOM     15  C   UNL     1       1.198   2.240  18.932  0.00  0.00    +0.000 C 
ATOM     16  C   UNL     1       3.184   3.562  18.926  0.00  0.00    +0.000 A 
ATOM     17  N   UNL     1       3.959   2.614  19.413  0.00  0.00    +0.000 NA
ATOM     18  N   UNL     1       5.212   3.131  19.618  0.00  0.00    +0.000 NA
ATOM     19  C   UNL     1       5.185   4.401  19.275  0.00  0.00    +0.000 A 
ATOM     20  N   UNL     1       3.936   4.701  18.798  0.00  0.00    +0.000 N 
ATOM     21  H   UNL     1       3.603   5.605  18.499  0.00  0.00    +0.000 HD
ENDBRANCH  12  19
ENDBRANCH   1  12
TORSDOF 4
ENDMDL
