MODEL 1
REMARK VINA RESULT:      -7.8      0.000      0.000
REMARK  Name = 
REMARK  6 active torsions:
REMARK  status: ('A' for Active; 'I' for Inactive)
REMARK    1  A    between atoms: C_4  and  C_5
REMARK    2  A    between atoms: C_8  and  C_9
REMARK    3  A    between atoms: C_14  and  O_15
REMARK    4  A    between atoms: C_18  and  C_19
REMARK    5  A    between atoms: C_19  and  C_20
REMARK    6  A    between atoms: C_26  and  C_27
REMARK                            x       y       z     vdW  Elec       q    Type
REMARK                         _______ _______ _______ _____ _____    ______ ____
ROOT
ATOM      1  O   UNL     1      -0.359   8.002  22.476  0.00  0.00    +0.000 OA
ATOM      2  C   UNL     1       0.251   8.376  21.496  0.00  0.00    +0.000 A 
ATOM      3  C   UNL     1       0.304   9.770  21.006  0.00  0.00    +0.000 A 
ATOM      4  C   UNL     1       1.010  10.106  19.905  0.00  0.00    +0.000 A 
ATOM      5  N   UNL     1       1.703   9.130  19.175  0.00  0.00    +0.000 N 
ATOM      6  N   UNL     1       2.457   9.258  18.068  0.00  0.00    +0.000 NA
ATOM      7  C   UNL     1       2.916   8.022  17.793  0.00  0.00    +0.000 A 
ATOM      8  C   UNL     1       2.427   7.047  18.728  0.00  0.00    +0.000 A 
ATOM      9  C   UNL     1       1.683   7.809  19.604  0.00  0.00    +0.000 A 
ATOM     10  N   UNL     1       1.006   7.421  20.750  0.00  0.00    +0.000 N 
ATOM     11  H   UNL     1       1.039   6.472  21.095  0.00  0.00    +0.000 HD
ENDROOT
BRANCH   8  12
ATOM     12  C   UNL     1       2.610   5.598  18.774  0.00  0.00    +0.000 A 
ATOM     13  C   UNL     1       3.535   5.028  19.661  0.00  0.00    +0.000 A 
ATOM     14  C   UNL     1       3.843   3.665  19.625  0.00  0.00    +0.000 A 
ATOM     15  C   UNL     1       3.173   2.833  18.738  0.00  0.00    +0.000 A 
ATOM     16 CL   UNL     1       3.558   1.160  18.678  0.00  0.00    +0.000 Cl
ATOM     17  C   UNL     1       2.200   3.359  17.893  0.00  0.00    +0.000 A 
ATOM     18  C   UNL     1       1.936   4.736  17.894  0.00  0.00    +0.000 A 
ENDBRANCH   8  12
BRANCH   4  19
ATOM     19  C   UNL     1       1.002  11.527  19.509  0.00  0.00    +0.000 A 
ATOM     20  C   UNL     1       1.869  12.428  20.141  0.00  0.00    +0.000 A 
ATOM     21  C   UNL     1       1.790  13.797  19.867  0.00  0.00    +0.000 A 
ATOM     22  C   UNL     1       0.846  14.290  18.955  0.00  0.00    +0.000 A 
ATOM     23  C   UNL     1      -0.001  13.381  18.297  0.00  0.00    +0.000 A 
ATOM     24  C   UNL     1       0.080  12.016  18.576  0.00  0.00    +0.000 A 
BRANCH  22  25
ATOM     25  C   UNL     1       0.707  15.773  18.695  0.00  0.00    +0.000 C 
ATOM     26  F   UNL     1       1.724  16.292  17.953  0.00  0.00    +0.000 F 
ATOM     27  F   UNL     1      -0.440  16.086  18.038  0.00  0.00    +0.000 F 
ATOM     28  F   UNL     1       0.685  16.494  19.852  0.00  0.00    +0.000 F 
ENDBRANCH  22  25
BRANCH  24  29
ATOM     29  O   UNL     1      -0.776  11.139  17.968  0.00  0.00    +0.000 OA
ATOM     30  H   UNL     1      -0.274  10.590  17.341  0.00  0.00    +0.000 HD
ENDBRANCH  24  29
ENDBRANCH   4  19
BRANCH   7  31
ATOM     31  C   UNL     1       3.790   7.833  16.579  0.00  0.00    +0.000 C 
BRANCH  31  32
ATOM     32  C   UNL     1       4.885   6.833  16.912  0.00  0.00    +0.000 A 
ATOM     33  C   UNL     1       4.892   5.589  16.252  0.00  0.00    +0.000 A 
ATOM     34  C   UNL     1       5.857   4.622  16.551  0.00  0.00    +0.000 A 
ATOM     35  C   UNL     1       6.843   4.890  17.494  0.00  0.00    +0.000 A 
ATOM     36  C   UNL     1       6.884   6.132  18.120  0.00  0.00    +0.000 A 
ATOM     37  C   UNL     1       5.924   7.101  17.817  0.00  0.00    +0.000 A 
ENDBRANCH  31  32
ENDBRANCH   7  31
TORSDOF 6
ENDMDL
MODEL 2
REMARK VINA RESULT:      -7.4      2.914      4.707
REMARK  Name = 
REMARK  6 active torsions:
REMARK  status: ('A' for Active; 'I' for Inactive)
REMARK    1  A    between atoms: C_4  and  C_5
REMARK    2  A    between atoms: C_8  and  C_9
REMARK    3  A    between atoms: C_14  and  O_15
REMARK    4  A    between atoms: C_18  and  C_19
REMARK    5  A    between atoms: C_19  and  C_20
REMARK    6  A    between atoms: C_26  and  C_27
REMARK                            x       y       z     vdW  Elec       q    Type
REMARK                         _______ _______ _______ _____ _____    ______ ____
ROOT
ATOM      1  O   UNL     1       2.701  11.108  17.075  0.00  0.00    +0.000 OA
ATOM      2  C   UNL     1       2.251  10.398  17.951  0.00  0.00    +0.000 A 
ATOM      3  C   UNL     1       1.230  10.808  18.939  0.00  0.00    +0.000 A 
ATOM      4  C   UNL     1       0.779   9.955  19.884  0.00  0.00    +0.000 A 
ATOM      5  N   UNL     1       1.286   8.651  19.970  0.00  0.00    +0.000 N 
ATOM      6  N   UNL     1       0.971   7.660  20.825  0.00  0.00    +0.000 NA
ATOM      7  C   UNL     1       1.725   6.607  20.457  0.00  0.00    +0.000 A 
ATOM      8  C   UNL     1       2.583   6.921  19.349  0.00  0.00    +0.000 A 
ATOM      9  C   UNL     1       2.243   8.225  19.058  0.00  0.00    +0.000 A 
ATOM     10  N   UNL     1       2.709   9.050  18.046  0.00  0.00    +0.000 N 
ATOM     11  H   UNL     1       3.361   8.722  17.347  0.00  0.00    +0.000 HD
ENDROOT
BRANCH   8  12
ATOM     12  C   UNL     1       3.600   6.115  18.675  0.00  0.00    +0.000 A 
ATOM     13  C   UNL     1       4.851   5.908  19.274  0.00  0.00    +0.000 A 
ATOM     14  C   UNL     1       5.895   5.274  18.594  0.00  0.00    +0.000 A 
ATOM     15  C   UNL     1       5.677   4.773  17.318  0.00  0.00    +0.000 A 
ATOM     16 CL   UNL     1       6.960   4.006  16.470  0.00  0.00    +0.000 Cl
ATOM     17  C   UNL     1       4.425   4.904  16.724  0.00  0.00    +0.000 A 
ATOM     18  C   UNL     1       3.399   5.591  17.389  0.00  0.00    +0.000 A 
ENDBRANCH   8  12
BRANCH   4  19
ATOM     19  C   UNL     1      -0.247  10.463  20.813  0.00  0.00    +0.000 A 
ATOM     20  C   UNL     1      -1.374  11.127  20.309  0.00  0.00    +0.000 A 
ATOM     21  C   UNL     1      -2.293  11.722  21.178  0.00  0.00    +0.000 A 
ATOM     22  C   UNL     1      -2.106  11.663  22.567  0.00  0.00    +0.000 A 
ATOM     23  C   UNL     1      -0.993  10.969  23.073  0.00  0.00    +0.000 A 
ATOM     24  C   UNL     1      -0.076  10.379  22.201  0.00  0.00    +0.000 A 
BRANCH  22  25
ATOM     25  C   UNL     1      -3.058  12.354  23.516  0.00  0.00    +0.000 C 
ATOM     26  F   UNL     1      -3.594  11.522  24.450  0.00  0.00    +0.000 F 
ATOM     27  F   UNL     1      -2.469  13.367  24.205  0.00  0.00    +0.000 F 
ATOM     28  F   UNL     1      -4.116  12.911  22.862  0.00  0.00    +0.000 F 
ENDBRANCH  22  25
BRANCH  24  29
ATOM     29  O   UNL     1       1.030   9.743  22.694  0.00  0.00    +0.000 OA
ATOM     30  H   UNL     1       1.799  10.334  22.608  0.00  0.00    +0.000 HD
ENDBRANCH  24  29
ENDBRANCH   4  19
BRANCH   7  31
ATOM     31  C   UNL     1       1.609   5.329  21.249  0.00  0.00    +0.000 C 
BRANCH  31  32
ATOM     32  C   UNL     1       1.798   4.149  20.310  0.00  0.00    +0.000 A 
ATOM     33  C   UNL     1       2.963   3.367  20.427  0.00  0.00    +0.000 A 
ATOM     34  C   UNL     1       3.199   2.294  19.562  0.00  0.00    +0.000 A 
ATOM     35  C   UNL     1       2.265   1.970  18.583  0.00  0.00    +0.000 A 
ATOM     36  C   UNL     1       1.083   2.699  18.485  0.00  0.00    +0.000 A 
ATOM     37  C   UNL     1       0.844   3.766  19.353  0.00  0.00    +0.000 A 
ENDBRANCH  31  32
ENDBRANCH   7  31
TORSDOF 6
ENDMDL
MODEL 3
REMARK VINA RESULT:      -7.3      5.138      9.352
REMARK  Name = 
REMARK  6 active torsions:
REMARK  status: ('A' for Active; 'I' for Inactive)
REMARK    1  A    between atoms: C_4  and  C_5
REMARK    2  A    between atoms: C_8  and  C_9
REMARK    3  A    between atoms: C_14  and  O_15
REMARK    4  A    between atoms: C_18  and  C_19
REMARK    5  A    between atoms: C_19  and  C_20
REMARK    6  A    between atoms: C_26  and  C_27
REMARK                            x       y       z     vdW  Elec       q    Type
REMARK                         _______ _______ _______ _____ _____    ______ ____
ROOT
ATOM      1  O   UNL     1      -2.620  10.749  16.918  0.00  0.00    +0.000 OA
ATOM      2  C   UNL     1      -1.609  10.888  17.575  0.00  0.00    +0.000 A 
ATOM      3  C   UNL     1      -0.632   9.820  17.872  0.00  0.00    +0.000 A 
ATOM      4  C   UNL     1       0.472  10.057  18.611  0.00  0.00    +0.000 A 
ATOM      5  N   UNL     1       0.716  11.332  19.143  0.00  0.00    +0.000 N 
ATOM      6  N   UNL     1       1.745  11.769  19.892  0.00  0.00    +0.000 NA
ATOM      7  C   UNL     1       1.508  13.076  20.110  0.00  0.00    +0.000 A 
ATOM      8  C   UNL     1       0.275  13.507  19.512  0.00  0.00    +0.000 A 
ATOM      9  C   UNL     1      -0.175  12.365  18.884  0.00  0.00    +0.000 A 
ATOM     10  N   UNL     1      -1.302  12.181  18.098  0.00  0.00    +0.000 N 
ATOM     11  H   UNL     1      -1.919  12.945  17.861  0.00  0.00    +0.000 HD
ENDROOT
BRANCH   8  12
ATOM     12  C   UNL     1      -0.400  14.803  19.550  0.00  0.00    +0.000 A 
ATOM     13  C   UNL     1      -1.431  15.038  20.471  0.00  0.00    +0.000 A 
ATOM     14  C   UNL     1      -2.196  16.207  20.433  0.00  0.00    +0.000 A 
ATOM     15  C   UNL     1      -1.891  17.197  19.509  0.00  0.00    +0.000 A 
ATOM     16 CL   UNL     1      -2.837  18.630  19.447  0.00  0.00    +0.000 Cl
ATOM     17  C   UNL     1      -0.829  17.021  18.627  0.00  0.00    +0.000 A 
ATOM     18  C   UNL     1      -0.102  15.822  18.632  0.00  0.00    +0.000 A 
ENDBRANCH   8  12
BRANCH   4  19
ATOM     19  C   UNL     1       1.387   8.922  18.838  0.00  0.00    +0.000 A 
ATOM     20  C   UNL     1       2.222   8.485  17.801  0.00  0.00    +0.000 A 
ATOM     21  C   UNL     1       3.003   7.337  17.959  0.00  0.00    +0.000 A 
ATOM     22  C   UNL     1       2.967   6.606  19.155  0.00  0.00    +0.000 A 
ATOM     23  C   UNL     1       2.154   7.064  20.206  0.00  0.00    +0.000 A 
ATOM     24  C   UNL     1       1.374   8.209  20.044  0.00  0.00    +0.000 A 
BRANCH  22  25
ATOM     25  C   UNL     1       3.759   5.328  19.317  0.00  0.00    +0.000 C 
ATOM     26  F   UNL     1       3.766   4.549  18.201  0.00  0.00    +0.000 F 
ATOM     27  F   UNL     1       5.063   5.554  19.629  0.00  0.00    +0.000 F 
ATOM     28  F   UNL     1       3.265   4.543  20.315  0.00  0.00    +0.000 F 
ENDBRANCH  22  25
BRANCH  24  29
ATOM     29  O   UNL     1       0.548   8.627  21.051  0.00  0.00    +0.000 OA
ATOM     30  H   UNL     1       1.054   8.657  21.883  0.00  0.00    +0.000 HD
ENDBRANCH  24  29
ENDBRANCH   4  19
BRANCH   7  31
ATOM     31  C   UNL     1       2.491  13.855  20.948  0.00  0.00    +0.000 C 
BRANCH  31  32
ATOM     32  C   UNL     1       3.250  14.818  20.050  0.00  0.00    +0.000 A 
ATOM     33  C   UNL     1       3.497  16.126  20.511  0.00  0.00    +0.000 A 
ATOM     34  C   UNL     1       4.158  17.059  19.707  0.00  0.00    +0.000 A 
ATOM     35  C   UNL     1       4.604  16.696  18.440  0.00  0.00    +0.000 A 
ATOM     36  C   UNL     1       4.415  15.394  17.986  0.00  0.00    +0.000 A 
ATOM     37  C   UNL     1       3.760  14.459  18.792  0.00  0.00    +0.000 A 
ENDBRANCH  31  32
ENDBRANCH   7  31
TORSDOF 6
ENDMDL
MODEL 4
REMARK VINA RESULT:      -7.2      2.897      4.638
REMARK  Name = 
REMARK  6 active torsions:
REMARK  status: ('A' for Active; 'I' for Inactive)
REMARK    1  A    between atoms: C_4  and  C_5
REMARK    2  A    between atoms: C_8  and  C_9
REMARK    3  A    between atoms: C_14  and  O_15
REMARK    4  A    between atoms: C_18  and  C_19
REMARK    5  A    between atoms: C_19  and  C_20
REMARK    6  A    between atoms: C_26  and  C_27
REMARK                            x       y       z     vdW  Elec       q    Type
REMARK                         _______ _______ _______ _____ _____    ______ ____
ROOT
ATOM      1  O   UNL     1       2.699  11.139  17.049  0.00  0.00    +0.000 OA
ATOM      2  C   UNL     1       2.251  10.434  17.931  0.00  0.00    +0.000 A 
ATOM      3  C   UNL     1       1.226  10.847  18.914  0.00  0.00    +0.000 A 
ATOM      4  C   UNL     1       0.778  10.000  19.865  0.00  0.00    +0.000 A 
ATOM      5  N   UNL     1       1.292   8.699  19.963  0.00  0.00    +0.000 N 
ATOM      6  N   UNL     1       0.980   7.714  20.825  0.00  0.00    +0.000 NA
ATOM      7  C   UNL     1       1.740   6.662  20.468  0.00  0.00    +0.000 A 
ATOM      8  C   UNL     1       2.598   6.970  19.358  0.00  0.00    +0.000 A 
ATOM      9  C   UNL     1       2.252   8.270  19.056  0.00  0.00    +0.000 A 
ATOM     10  N   UNL     1       2.716   9.089  18.038  0.00  0.00    +0.000 N 
ATOM     11  H   UNL     1       3.371   8.758  17.343  0.00  0.00    +0.000 HD
ENDROOT
BRANCH   8  12
ATOM     12  C   UNL     1       3.621   6.165  18.693  0.00  0.00    +0.000 A 
ATOM     13  C   UNL     1       4.878   5.984  19.288  0.00  0.00    +0.000 A 
ATOM     14  C   UNL     1       5.925   5.349  18.613  0.00  0.00    +0.000 A 
ATOM     15  C   UNL     1       5.705   4.821  17.348  0.00  0.00    +0.000 A 
ATOM     16 CL   UNL     1       6.991   4.054  16.506  0.00  0.00    +0.000 Cl
ATOM     17  C   UNL     1       4.448   4.925  16.761  0.00  0.00    +0.000 A 
ATOM     18  C   UNL     1       3.418   5.612  17.419  0.00  0.00    +0.000 A 
ENDBRANCH   8  12
BRANCH   4  19
ATOM     19  C   UNL     1      -0.253  10.511  20.788  0.00  0.00    +0.000 A 
ATOM     20  C   UNL     1      -1.382  11.164  20.276  0.00  0.00    +0.000 A 
ATOM     21  C   UNL     1      -2.305  11.761  21.138  0.00  0.00    +0.000 A 
ATOM     22  C   UNL     1      -2.120  11.715  22.528  0.00  0.00    +0.000 A 
ATOM     23  C   UNL     1      -1.005  11.031  23.042  0.00  0.00    +0.000 A 
ATOM     24  C   UNL     1      -0.084  10.439  22.176  0.00  0.00    +0.000 A 
BRANCH  22  25
ATOM     25  C   UNL     1      -3.078  12.410  23.469  0.00  0.00    +0.000 C 
ATOM     26  F   UNL     1      -4.179  12.915  22.849  0.00  0.00    +0.000 F 
ATOM     27  F   UNL     1      -3.538  11.589  24.450  0.00  0.00    +0.000 F 
ATOM     28  F   UNL     1      -2.494  13.464  24.106  0.00  0.00    +0.000 F 
ENDBRANCH  22  25
BRANCH  24  29
ATOM     29  O   UNL     1       1.025   9.813  22.677  0.00  0.00    +0.000 OA
ATOM     30  H   UNL     1       1.819  10.200  22.267  0.00  0.00    +0.000 HD
ENDBRANCH  24  29
ENDBRANCH   4  19
BRANCH   7  31
ATOM     31  C   UNL     1       1.629   5.390  21.270  0.00  0.00    +0.000 C 
BRANCH  31  32
ATOM     32  C   UNL     1       1.843   4.203  20.345  0.00  0.00    +0.000 A 
ATOM     33  C   UNL     1       0.863   3.908  19.379  0.00  0.00    +0.000 A 
ATOM     34  C   UNL     1       0.997   2.806  18.531  0.00  0.00    +0.000 A 
ATOM     35  C   UNL     1       2.124   1.994  18.616  0.00  0.00    +0.000 A 
ATOM     36  C   UNL     1       3.129   2.298  19.529  0.00  0.00    +0.000 A 
ATOM     37  C   UNL     1       2.998   3.404  20.373  0.00  0.00    +0.000 A 
ENDBRANCH  31  32
ENDBRANCH   7  31
TORSDOF 6
ENDMDL
MODEL 5
REMARK VINA RESULT:      -7.1      5.155      9.172
REMARK  Name = 
REMARK  6 active torsions:
REMARK  status: ('A' for Active; 'I' for Inactive)
REMARK    1  A    between atoms: C_4  and  C_5
REMARK    2  A    between atoms: C_8  and  C_9
REMARK    3  A    between atoms: C_14  and  O_15
REMARK    4  A    between atoms: C_18  and  C_19
REMARK    5  A    between atoms: C_19  and  C_20
REMARK    6  A    between atoms: C_26  and  C_27
REMARK                            x       y       z     vdW  Elec       q    Type
REMARK                         _______ _______ _______ _____ _____    ______ ____
ROOT
ATOM      1  O   UNL     1      -2.602  10.790  16.824  0.00  0.00    +0.000 OA
ATOM      2  C   UNL     1      -1.603  10.932  17.498  0.00  0.00    +0.000 A 
ATOM      3  C   UNL     1      -0.617   9.871  17.797  0.00  0.00    +0.000 A 
ATOM      4  C   UNL     1       0.472  10.113  18.556  0.00  0.00    +0.000 A 
ATOM      5  N   UNL     1       0.693  11.383  19.107  0.00  0.00    +0.000 N 
ATOM      6  N   UNL     1       1.705  11.823  19.877  0.00  0.00    +0.000 NA
ATOM      7  C   UNL     1       1.450  13.125  20.107  0.00  0.00    +0.000 A 
ATOM      8  C   UNL     1       0.221  13.548  19.496  0.00  0.00    +0.000 A 
ATOM      9  C   UNL     1      -0.206  12.409  18.847  0.00  0.00    +0.000 A 
ATOM     10  N   UNL     1      -1.319  12.221  18.042  0.00  0.00    +0.000 N 
ATOM     11  H   UNL     1      -1.942  12.982  17.805  0.00  0.00    +0.000 HD
ENDROOT
BRANCH   8  12
ATOM     12  C   UNL     1      -0.470  14.836  19.540  0.00  0.00    +0.000 A 
ATOM     13  C   UNL     1      -1.485  15.064  20.480  0.00  0.00    +0.000 A 
ATOM     14  C   UNL     1      -2.266  16.223  20.450  0.00  0.00    +0.000 A 
ATOM     15  C   UNL     1      -1.993  17.211  19.513  0.00  0.00    +0.000 A 
ATOM     16 CL   UNL     1      -2.958  18.631  19.462  0.00  0.00    +0.000 Cl
ATOM     17  C   UNL     1      -0.947  17.042  18.611  0.00  0.00    +0.000 A 
ATOM     18  C   UNL     1      -0.204  15.852  18.609  0.00  0.00    +0.000 A 
ENDBRANCH   8  12
BRANCH   4  19
ATOM     19  C   UNL     1       1.396   8.986  18.783  0.00  0.00    +0.000 A 
ATOM     20  C   UNL     1       2.188   8.513  17.728  0.00  0.00    +0.000 A 
ATOM     21  C   UNL     1       2.977   7.371  17.891  0.00  0.00    +0.000 A 
ATOM     22  C   UNL     1       2.991   6.680  19.112  0.00  0.00    +0.000 A 
ATOM     23  C   UNL     1       2.222   7.174  20.181  0.00  0.00    +0.000 A 
ATOM     24  C   UNL     1       1.434   8.314  20.012  0.00  0.00    +0.000 A 
BRANCH  22  25
ATOM     25  C   UNL     1       3.791   5.409  19.284  0.00  0.00    +0.000 C 
ATOM     26  F   UNL     1       3.265   4.557  20.207  0.00  0.00    +0.000 F 
ATOM     27  F   UNL     1       3.899   4.697  18.131  0.00  0.00    +0.000 F 
ATOM     28  F   UNL     1       5.067   5.658  19.692  0.00  0.00    +0.000 F 
ENDBRANCH  22  25
BRANCH  24  29
ATOM     29  O   UNL     1       0.651   8.766  21.038  0.00  0.00    +0.000 OA
ATOM     30  H   UNL     1       0.695   9.738  21.065  0.00  0.00    +0.000 HD
ENDBRANCH  24  29
ENDBRANCH   4  19
BRANCH   7  31
ATOM     31  C   UNL     1       2.411  13.904  20.969  0.00  0.00    +0.000 C 
BRANCH  31  32
ATOM     32  C   UNL     1       3.511  14.475  20.089  0.00  0.00    +0.000 A 
ATOM     33  C   UNL     1       3.230  14.740  18.735  0.00  0.00    +0.000 A 
ATOM     34  C   UNL     1       4.219  15.230  17.878  0.00  0.00    +0.000 A 
ATOM     35  C   UNL     1       5.497  15.487  18.363  0.00  0.00    +0.000 A 
ATOM     36  C   UNL     1       5.781  15.281  19.710  0.00  0.00    +0.000 A 
ATOM     37  C   UNL     1       4.791  14.798  20.569  0.00  0.00    +0.000 A 
ENDBRANCH  31  32
ENDBRANCH   7  31
TORSDOF 6
ENDMDL
MODEL 6
REMARK VINA RESULT:      -7.0      5.115      9.320
REMARK  Name = 
REMARK  6 active torsions:
REMARK  status: ('A' for Active; 'I' for Inactive)
REMARK    1  A    between atoms: C_4  and  C_5
REMARK    2  A    between atoms: C_8  and  C_9
REMARK    3  A    between atoms: C_14  and  O_15
REMARK    4  A    between atoms: C_18  and  C_19
REMARK    5  A    between atoms: C_19  and  C_20
REMARK    6  A    between atoms: C_26  and  C_27
REMARK                            x       y       z     vdW  Elec       q    Type
REMARK                         _______ _______ _______ _____ _____    ______ ____
ROOT
ATOM      1  O   UNL     1      -2.719  10.397  17.032  0.00  0.00    +0.000 OA
ATOM      2  C   UNL     1      -1.688  10.580  17.645  0.00  0.00    +0.000 A 
ATOM      3  C   UNL     1      -0.651   9.556  17.894  0.00  0.00    +0.000 A 
ATOM      4  C   UNL     1       0.472   9.842  18.587  0.00  0.00    +0.000 A 
ATOM      5  N   UNL     1       0.680  11.125  19.114  0.00  0.00    +0.000 N 
ATOM      6  N   UNL     1       1.720  11.606  19.820  0.00  0.00    +0.000 NA
ATOM      7  C   UNL     1       1.433  12.901  20.054  0.00  0.00    +0.000 A 
ATOM      8  C   UNL     1       0.157  13.276  19.513  0.00  0.00    +0.000 A 
ATOM      9  C   UNL     1      -0.267  12.117  18.899  0.00  0.00    +0.000 A 
ATOM     10  N   UNL     1      -1.418  11.883  18.161  0.00  0.00    +0.000 N 
ATOM     11  H   UNL     1      -2.079  12.620  17.955  0.00  0.00    +0.000 HD
ENDROOT
BRANCH   8  12
ATOM     12  C   UNL     1      -0.574  14.540  19.587  0.00  0.00    +0.000 A 
ATOM     13  C   UNL     1      -0.245  15.600  18.730  0.00  0.00    +0.000 A 
ATOM     14  C   UNL     1      -0.818  16.867  18.876  0.00  0.00    +0.000 A 
ATOM     15  C   UNL     1      -1.789  17.073  19.847  0.00  0.00    +0.000 A 
ATOM     16 CL   UNL     1      -2.486  18.631  20.041  0.00  0.00    +0.000 Cl
ATOM     17  C   UNL     1      -2.185  16.020  20.666  0.00  0.00    +0.000 A 
ATOM     18  C   UNL     1      -1.566  14.767  20.553  0.00  0.00    +0.000 A 
ENDBRANCH   8  12
BRANCH   4  19
ATOM     19  C   UNL     1       1.447   8.750  18.768  0.00  0.00    +0.000 A 
ATOM     20  C   UNL     1       2.290   8.387  17.709  0.00  0.00    +0.000 A 
ATOM     21  C   UNL     1       3.131   7.277  17.822  0.00  0.00    +0.000 A 
ATOM     22  C   UNL     1       3.148   6.509  18.995  0.00  0.00    +0.000 A 
ATOM     23  C   UNL     1       2.326   6.892  20.069  0.00  0.00    +0.000 A 
ATOM     24  C   UNL     1       1.486   8.000  19.951  0.00  0.00    +0.000 A 
BRANCH  22  25
ATOM     25  C   UNL     1       4.006   5.269  19.108  0.00  0.00    +0.000 C 
ATOM     26  F   UNL     1       5.223   5.501  19.672  0.00  0.00    +0.000 F 
ATOM     27  F   UNL     1       3.423   4.293  19.853  0.00  0.00    +0.000 F 
ATOM     28  F   UNL     1       4.261   4.711  17.891  0.00  0.00    +0.000 F 
ENDBRANCH  22  25
BRANCH  24  29
ATOM     29  O   UNL     1       0.653   8.345  20.980  0.00  0.00    +0.000 OA
ATOM     30  H   UNL     1       0.287   7.534  21.375  0.00  0.00    +0.000 HD
ENDBRANCH  24  29
ENDBRANCH   4  19
BRANCH   7  31
ATOM     31  C   UNL     1       2.415  13.721  20.853  0.00  0.00    +0.000 C 
BRANCH  31  32
ATOM     32  C   UNL     1       2.970  14.825  19.968  0.00  0.00    +0.000 A 
ATOM     33  C   UNL     1       3.471  14.490  18.696  0.00  0.00    +0.000 A 
ATOM     34  C   UNL     1       4.025  15.465  17.861  0.00  0.00    +0.000 A 
ATOM     35  C   UNL     1       4.066  16.793  18.273  0.00  0.00    +0.000 A 
ATOM     36  C   UNL     1       3.529  17.153  19.506  0.00  0.00    +0.000 A 
ATOM     37  C   UNL     1       2.969  16.180  20.337  0.00  0.00    +0.000 A 
ENDBRANCH  31  32
ENDBRANCH   7  31
TORSDOF 6
ENDMDL
MODEL 7
REMARK VINA RESULT:      -7.0      0.243      1.342
REMARK  Name = 
REMARK  6 active torsions:
REMARK  status: ('A' for Active; 'I' for Inactive)
REMARK    1  A    between atoms: C_4  and  C_5
REMARK    2  A    between atoms: C_8  and  C_9
REMARK    3  A    between atoms: C_14  and  O_15
REMARK    4  A    between atoms: C_18  and  C_19
REMARK    5  A    between atoms: C_19  and  C_20
REMARK    6  A    between atoms: C_26  and  C_27
REMARK                            x       y       z     vdW  Elec       q    Type
REMARK                         _______ _______ _______ _____ _____    ______ ____
ROOT
ATOM      1  O   UNL     1      -0.397   8.109  22.487  0.00  0.00    +0.000 OA
ATOM      2  C   UNL     1       0.224   8.477  21.511  0.00  0.00    +0.000 A 
ATOM      3  C   UNL     1       0.296   9.871  21.023  0.00  0.00    +0.000 A 
ATOM      4  C   UNL     1       1.012  10.199  19.927  0.00  0.00    +0.000 A 
ATOM      5  N   UNL     1       1.698   9.215  19.200  0.00  0.00    +0.000 N 
ATOM      6  N   UNL     1       2.461   9.336  18.097  0.00  0.00    +0.000 NA
ATOM      7  C   UNL     1       2.906   8.095  17.825  0.00  0.00    +0.000 A 
ATOM      8  C   UNL     1       2.400   7.125  18.756  0.00  0.00    +0.000 A 
ATOM      9  C   UNL     1       1.661   7.895  19.628  0.00  0.00    +0.000 A 
ATOM     10  N   UNL     1       0.971   7.514  20.769  0.00  0.00    +0.000 N 
ATOM     11  H   UNL     1       0.992   6.563  21.113  0.00  0.00    +0.000 HD
ENDROOT
BRANCH   8  12
ATOM     12  C   UNL     1       2.566   5.673  18.802  0.00  0.00    +0.000 A 
ATOM     13  C   UNL     1       1.822   4.847  17.947  0.00  0.00    +0.000 A 
ATOM     14  C   UNL     1       1.844   3.455  18.068  0.00  0.00    +0.000 A 
ATOM     15  C   UNL     1       2.672   2.862  19.012  0.00  0.00    +0.000 A 
ATOM     16 CL   UNL     1       2.692   1.152  19.177  0.00  0.00    +0.000 Cl
ATOM     17  C   UNL     1       3.473   3.654  19.829  0.00  0.00    +0.000 A 
ATOM     18  C   UNL     1       3.405   5.052  19.740  0.00  0.00    +0.000 A 
ENDBRANCH   8  12
BRANCH   4  19
ATOM     19  C   UNL     1       1.024  11.620  19.533  0.00  0.00    +0.000 A 
ATOM     20  C   UNL     1       1.891  12.513  20.177  0.00  0.00    +0.000 A 
ATOM     21  C   UNL     1       1.829  13.882  19.903  0.00  0.00    +0.000 A 
ATOM     22  C   UNL     1       0.902  14.385  18.979  0.00  0.00    +0.000 A 
ATOM     23  C   UNL     1       0.055  13.485  18.308  0.00  0.00    +0.000 A 
ATOM     24  C   UNL     1       0.119  12.119  18.587  0.00  0.00    +0.000 A 
BRANCH  22  25
ATOM     25  C   UNL     1       0.782  15.870  18.719  0.00  0.00    +0.000 C 
ATOM     26  F   UNL     1      -0.385  16.222  18.112  0.00  0.00    +0.000 F 
ATOM     27  F   UNL     1       0.855  16.609  19.857  0.00  0.00    +0.000 F 
ATOM     28  F   UNL     1       1.776  16.329  17.908  0.00  0.00    +0.000 F 
ENDBRANCH  22  25
BRANCH  24  29
ATOM     29  O   UNL     1      -0.737  11.251  17.967  0.00  0.00    +0.000 OA
ATOM     30  H   UNL     1      -0.761  10.417  18.469  0.00  0.00    +0.000 HD
ENDBRANCH  24  29
ENDBRANCH   4  19
BRANCH   7  31
ATOM     31  C   UNL     1       3.786   7.896  16.616  0.00  0.00    +0.000 C 
BRANCH  31  32
ATOM     32  C   UNL     1       4.829   6.838  16.934  0.00  0.00    +0.000 A 
ATOM     33  C   UNL     1       5.846   7.141  17.860  0.00  0.00    +0.000 A 
ATOM     34  C   UNL     1       6.848   6.214  18.157  0.00  0.00    +0.000 A 
ATOM     35  C   UNL     1       6.840   4.960  17.553  0.00  0.00    +0.000 A 
ATOM     36  C   UNL     1       5.815   4.623  16.673  0.00  0.00    +0.000 A 
ATOM     37  C   UNL     1       4.809   5.547  16.382  0.00  0.00    +0.000 A 
ENDBRANCH  31  32
ENDBRANCH   7  31
TORSDOF 6
ENDMDL
MODEL 8
REMARK VINA RESULT:      -6.9      5.170      9.256
REMARK  Name = 
REMARK  6 active torsions:
REMARK  status: ('A' for Active; 'I' for Inactive)
REMARK    1  A    between atoms: C_4  and  C_5
REMARK    2  A    between atoms: C_8  and  C_9
REMARK    3  A    between atoms: C_14  and  O_15
REMARK    4  A    between atoms: C_18  and  C_19
REMARK    5  A    between atoms: C_19  and  C_20
REMARK    6  A    between atoms: C_26  and  C_27
REMARK                            x       y       z     vdW  Elec       q    Type
REMARK                         _______ _______ _______ _____ _____    ______ ____
ROOT
ATOM      1  O   UNL     1      -3.188  10.899  17.313  0.00  0.00    +0.000 OA
ATOM      2  C   UNL     1      -2.126  11.082  17.870  0.00  0.00    +0.000 A 
ATOM      3  C   UNL     1      -1.050  10.076  18.004  0.00  0.00    +0.000 A 
ATOM      4  C   UNL     1       0.107  10.360  18.640  0.00  0.00    +0.000 A 
ATOM      5  N   UNL     1       0.316  11.621  19.217  0.00  0.00    +0.000 N 
ATOM      6  N   UNL     1       1.385  12.097  19.881  0.00  0.00    +0.000 NA
ATOM      7  C   UNL     1       1.082  13.371  20.196  0.00  0.00    +0.000 A 
ATOM      8  C   UNL     1      -0.235  13.736  19.752  0.00  0.00    +0.000 A 
ATOM      9  C   UNL     1      -0.668  12.596  19.109  0.00  0.00    +0.000 A 
ATOM     10  N   UNL     1      -1.856  12.366  18.433  0.00  0.00    +0.000 N 
ATOM     11  H   UNL     1      -2.547  13.093  18.304  0.00  0.00    +0.000 HD
ENDROOT
BRANCH   8  12
ATOM     12  C   UNL     1      -0.991  14.974  19.933  0.00  0.00    +0.000 A 
ATOM     13  C   UNL     1      -2.059  15.025  20.840  0.00  0.00    +0.000 A 
ATOM     14  C   UNL     1      -2.895  16.142  20.927  0.00  0.00    +0.000 A 
ATOM     15  C   UNL     1      -2.629  17.260  20.148  0.00  0.00    +0.000 A 
ATOM     16 CL   UNL     1      -3.661  18.631  20.238  0.00  0.00    +0.000 Cl
ATOM     17  C   UNL     1      -1.535  17.263  19.288  0.00  0.00    +0.000 A 
ATOM     18  C   UNL     1      -0.733  16.119  19.164  0.00  0.00    +0.000 A 
ENDBRANCH   8  12
BRANCH   4  19
ATOM     19  C   UNL     1       1.117   9.288  18.707  0.00  0.00    +0.000 A 
ATOM     20  C   UNL     1       1.806   8.908  17.547  0.00  0.00    +0.000 A 
ATOM     21  C   UNL     1       2.675   7.813  17.566  0.00  0.00    +0.000 A 
ATOM     22  C   UNL     1       2.875   7.080  18.745  0.00  0.00    +0.000 A 
ATOM     23  C   UNL     1       2.210   7.481  19.916  0.00  0.00    +0.000 A 
ATOM     24  C   UNL     1       1.341   8.573  19.891  0.00  0.00    +0.000 A 
BRANCH  22  25
ATOM     25  C   UNL     1       3.764   5.857  18.765  0.00  0.00    +0.000 C 
ATOM     26  F   UNL     1       4.143   5.481  20.018  0.00  0.00    +0.000 F 
ATOM     27  F   UNL     1       3.173   4.769  18.205  0.00  0.00    +0.000 F 
ATOM     28  F   UNL     1       4.920   6.054  18.071  0.00  0.00    +0.000 F 
ENDBRANCH  22  25
BRANCH  24  29
ATOM     29  O   UNL     1       0.659   8.934  21.021  0.00  0.00    +0.000 OA
ATOM     30  H   UNL     1       0.798   8.256  21.705  0.00  0.00    +0.000 HD
ENDBRANCH  24  29
ENDBRANCH   4  19
BRANCH   7  31
ATOM     31  C   UNL     1       2.091  14.178  20.973  0.00  0.00    +0.000 C 
BRANCH  31  32
ATOM     32  C   UNL     1       3.165  14.674  20.018  0.00  0.00    +0.000 A 
ATOM     33  C   UNL     1       4.513  14.607  20.418  0.00  0.00    +0.000 A 
ATOM     34  C   UNL     1       5.534  15.084  19.590  0.00  0.00    +0.000 A 
ATOM     35  C   UNL     1       5.227  15.615  18.341  0.00  0.00    +0.000 A 
ATOM     36  C   UNL     1       3.905  15.644  17.906  0.00  0.00    +0.000 A 
ATOM     37  C   UNL     1       2.886  15.160  18.730  0.00  0.00    +0.000 A 
ENDBRANCH  31  32
ENDBRANCH   7  31
TORSDOF 6
ENDMDL
MODEL 9
REMARK VINA RESULT:      -6.9      5.680      7.902
REMARK  Name = 
REMARK  6 active torsions:
REMARK  status: ('A' for Active; 'I' for Inactive)
REMARK    1  A    between atoms: C_4  and  C_5
REMARK    2  A    between atoms: C_8  and  C_9
REMARK    3  A    between atoms: C_14  and  O_15
REMARK    4  A    between atoms: C_18  and  C_19
REMARK    5  A    between atoms: C_19  and  C_20
REMARK    6  A    between atoms: C_26  and  C_27
REMARK                            x       y       z     vdW  Elec       q    Type
REMARK                         _______ _______ _______ _____ _____    ______ ____
ROOT
ATOM      1  O   UNL     1      -0.355  17.551  18.292  0.00  0.00    +0.000 OA
ATOM      2  C   UNL     1       0.257  16.515  18.455  0.00  0.00    +0.000 A 
ATOM      3  C   UNL     1       1.725  16.406  18.600  0.00  0.00    +0.000 A 
ATOM      4  C   UNL     1       2.330  15.213  18.781  0.00  0.00    +0.000 A 
ATOM      5  N   UNL     1       1.581  14.029  18.816  0.00  0.00    +0.000 N 
ATOM      6  N   UNL     1       1.988  12.758  18.987  0.00  0.00    +0.000 NA
ATOM      7  C   UNL     1       0.868  12.010  18.969  0.00  0.00    +0.000 A 
ATOM      8  C   UNL     1      -0.307  12.807  18.750  0.00  0.00    +0.000 A 
ATOM      9  C   UNL     1       0.199  14.088  18.689  0.00  0.00    +0.000 A 
ATOM     10  N   UNL     1      -0.473  15.292  18.540  0.00  0.00    +0.000 N 
ATOM     11  H   UNL     1      -1.482  15.340  18.506  0.00  0.00    +0.000 HD
ENDROOT
BRANCH   8  12
ATOM     12  C   UNL     1      -1.706  12.415  18.591  0.00  0.00    +0.000 A 
ATOM     13  C   UNL     1      -2.636  12.683  19.606  0.00  0.00    +0.000 A 
ATOM     14  C   UNL     1      -3.943  12.189  19.553  0.00  0.00    +0.000 A 
ATOM     15  C   UNL     1      -4.361  11.472  18.440  0.00  0.00    +0.000 A 
ATOM     16 CL   UNL     1      -5.961  10.850  18.376  0.00  0.00    +0.000 Cl
ATOM     17  C   UNL     1      -3.480  11.249  17.387  0.00  0.00    +0.000 A 
ATOM     18  C   UNL     1      -2.154  11.698  17.471  0.00  0.00    +0.000 A 
ENDBRANCH   8  12
BRANCH   4  19
ATOM     19  C   UNL     1       3.798  15.220  18.924  0.00  0.00    +0.000 A 
ATOM     20  C   UNL     1       4.608  15.060  17.791  0.00  0.00    +0.000 A 
ATOM     21  C   UNL     1       5.994  14.940  17.924  0.00  0.00    +0.000 A 
ATOM     22  C   UNL     1       6.598  14.981  19.189  0.00  0.00    +0.000 A 
ATOM     23  C   UNL     1       5.789  15.174  20.322  0.00  0.00    +0.000 A 
ATOM     24  C   UNL     1       4.405  15.291  20.185  0.00  0.00    +0.000 A 
BRANCH  22  25
ATOM     25  C   UNL     1       8.089  14.791  19.352  0.00  0.00    +0.000 C 
ATOM     26  F   UNL     1       8.670  14.134  18.310  0.00  0.00    +0.000 F 
ATOM     27  F   UNL     1       8.758  15.967  19.478  0.00  0.00    +0.000 F 
ATOM     28  F   UNL     1       8.393  14.065  20.465  0.00  0.00    +0.000 F 
ENDBRANCH  22  25
BRANCH  24  29
ATOM     29  O   UNL     1       3.614  15.433  21.293  0.00  0.00    +0.000 OA
ATOM     30  H   UNL     1       2.958  14.714  21.308  0.00  0.00    +0.000 HD
ENDBRANCH  24  29
ENDBRANCH   4  19
BRANCH   7  31
ATOM     31  C   UNL     1       1.000  10.516  19.121  0.00  0.00    +0.000 C 
BRANCH  31  32
ATOM     32  C   UNL     1       0.458  10.109  20.481  0.00  0.00    +0.000 A 
ATOM     33  C   UNL     1       0.255   8.743  20.752  0.00  0.00    +0.000 A 
ATOM     34  C   UNL     1      -0.276   8.323  21.975  0.00  0.00    +0.000 A 
ATOM     35  C   UNL     1      -0.591   9.258  22.956  0.00  0.00    +0.000 A 
ATOM     36  C   UNL     1      -0.350  10.609  22.728  0.00  0.00    +0.000 A 
ATOM     37  C   UNL     1       0.187  11.029  21.508  0.00  0.00    +0.000 A 
ENDBRANCH  31  32
ENDBRANCH   7  31
TORSDOF 6
ENDMDL
