MODEL 1
REMARK VINA RESULT:      -7.1      0.000      0.000
REMARK  Name = 
REMARK  5 active torsions:
REMARK  status: ('A' for Active; 'I' for Inactive)
REMARK    1  A    between atoms: C_1  and  C_2
REMARK    2  A    between atoms: C_2  and  C_4
REMARK    3  A    between atoms: C_5  and  C_6
REMARK    4  A    between atoms: C_6  and  O_8
REMARK    5  A    between atoms: N_9  and  C_10
REMARK                            x       y       z     vdW  Elec       q    Type
REMARK                         _______ _______ _______ _____ _____    ______ ____
ROOT
ATOM      1  C   UNL     1       2.819   4.100  20.012  0.00  0.00    +0.000 A 
ATOM      2  C   UNL     1       3.741   3.427  19.199  0.00  0.00    +0.000 A 
ATOM      3  N   UNL     1       4.125   4.342  18.220  0.00  0.00    +0.000 N 
ATOM      4  C   UNL     1       5.091   4.127  17.154  0.00  0.00    +0.000 C 
ATOM      5  C   UNL     1       3.484   5.559  18.388  0.00  0.00    +0.000 A 
ATOM      6  C   UNL     1       3.532   6.741  17.615  0.00  0.00    +0.000 A 
ATOM      7  C   UNL     1       2.771   7.801  18.076  0.00  0.00    +0.000 A 
ATOM      8  C   UNL     1       2.045   7.724  19.232  0.00  0.00    +0.000 A 
ATOM      9  C   UNL     1       2.002   6.587  20.006  0.00  0.00    +0.000 A 
ATOM     10  C   UNL     1       2.706   5.450  19.547  0.00  0.00    +0.000 A 
ATOM     11  O   UNL     1       1.381   8.877  19.518  0.00  0.00    +0.000 OA
ATOM     12  C   UNL     1       1.726   9.673  18.369  0.00  0.00    +0.000 C 
ATOM     13  O   UNL     1       2.644   9.014  17.471  0.00  0.00    +0.000 OA
ENDROOT
BRANCH   1  15
ATOM     14  C   UNL     1       0.745   2.847  20.886  0.00  0.00    +0.000 C 
ATOM     15  C   UNL     1       2.076   3.514  21.133  0.00  0.00    +0.000 C 
ATOM     16  O   UNL     1       2.549   3.561  22.268  0.00  0.00    +0.000 OA
ENDBRANCH   1  15
BRANCH   2  17
ATOM     17  C   UNL     1       4.206   2.044  19.215  0.00  0.00    +0.000 C 
ATOM     18  O   UNL     1       3.751   1.148  18.515  0.00  0.00    +0.000 OA
BRANCH  17  19
ATOM     19  O   UNL     1       5.247   1.811  20.038  0.00  0.00    +0.000 OA
ATOM     20  H   UNL     1       6.140   1.910  19.637  0.00  0.00    +0.000 HD
ENDBRANCH  17  19
ENDBRANCH   2  17
TORSDOF 3
ENDMDL
MODEL 2
REMARK VINA RESULT:      -7.0      1.161      3.266
REMARK  Name = 
REMARK  5 active torsions:
REMARK  status: ('A' for Active; 'I' for Inactive)
REMARK    1  A    between atoms: C_1  and  C_2
REMARK    2  A    between atoms: C_2  and  C_4
REMARK    3  A    between atoms: C_5  and  C_6
REMARK    4  A    between atoms: C_6  and  O_8
REMARK    5  A    between atoms: N_9  and  C_10
REMARK                            x       y       z     vdW  Elec       q    Type
REMARK                         _______ _______ _______ _____ _____    ______ ____
ROOT
ATOM      1  C   UNL     1       4.343   4.570  18.249  0.00  0.00    +0.000 A 
ATOM      2  C   UNL     1       3.965   3.687  19.270  0.00  0.00    +0.000 A 
ATOM      3  N   UNL     1       3.029   4.374  20.041  0.00  0.00    +0.000 N 
ATOM      4  C   UNL     1       2.317   3.870  21.205  0.00  0.00    +0.000 C 
ATOM      5  C   UNL     1       2.804   5.648  19.544  0.00  0.00    +0.000 A 
ATOM      6  C   UNL     1       1.985   6.694  20.025  0.00  0.00    +0.000 A 
ATOM      7  C   UNL     1       1.972   7.854  19.271  0.00  0.00    +0.000 A 
ATOM      8  C   UNL     1       2.680   7.970  18.107  0.00  0.00    +0.000 A 
ATOM      9  C   UNL     1       3.467   6.954  17.614  0.00  0.00    +0.000 A 
ATOM     10  C   UNL     1       3.571   5.770  18.380  0.00  0.00    +0.000 A 
ATOM     11  O   UNL     1       2.520   9.181  17.509  0.00  0.00    +0.000 OA
ATOM     12  C   UNL     1       1.674   9.841  18.468  0.00  0.00    +0.000 C 
ATOM     13  O   UNL     1       1.285   8.991  19.567  0.00  0.00    +0.000 OA
ENDROOT
BRANCH   1  15
ATOM     14  C   UNL     1       6.810   4.685  17.514  0.00  0.00    +0.000 C 
ATOM     15  C   UNL     1       5.372   4.318  17.235  0.00  0.00    +0.000 C 
ATOM     16  O   UNL     1       5.058   3.799  16.164  0.00  0.00    +0.000 OA
ENDBRANCH   1  15
BRANCH   2  17
ATOM     17  C   UNL     1       4.445   2.353  19.611  0.00  0.00    +0.000 C 
ATOM     18  O   UNL     1       5.113   2.085  20.601  0.00  0.00    +0.000 OA
BRANCH  17  19
ATOM     19  O   UNL     1       4.045   1.379  18.769  0.00  0.00    +0.000 OA
ATOM     20  H   UNL     1       4.434   0.490  18.928  0.00  0.00    +0.000 HD
ENDBRANCH  17  19
ENDBRANCH   2  17
TORSDOF 3
ENDMDL
MODEL 3
REMARK VINA RESULT:      -6.8      2.279      4.752
REMARK  Name = 
REMARK  5 active torsions:
REMARK  status: ('A' for Active; 'I' for Inactive)
REMARK    1  A    between atoms: C_1  and  C_2
REMARK    2  A    between atoms: C_2  and  C_4
REMARK    3  A    between atoms: C_5  and  C_6
REMARK    4  A    between atoms: C_6  and  O_8
REMARK    5  A    between atoms: N_9  and  C_10
REMARK                            x       y       z     vdW  Elec       q    Type
REMARK                         _______ _______ _______ _____ _____    ______ ____
ROOT
ATOM      1  C   UNL     1       3.049   5.860  18.617  0.00  0.00    +0.000 A 
ATOM      2  C   UNL     1       2.665   4.721  19.337  0.00  0.00    +0.000 A 
ATOM      3  N   UNL     1       3.309   3.647  18.723  0.00  0.00    +0.000 N 
ATOM      4  C   UNL     1       3.251   2.250  19.123  0.00  0.00    +0.000 C 
ATOM      5  C   UNL     1       4.082   4.068  17.653  0.00  0.00    +0.000 A 
ATOM      6  C   UNL     1       4.857   3.332  16.729  0.00  0.00    +0.000 A 
ATOM      7  C   UNL     1       5.531   4.071  15.774  0.00  0.00    +0.000 A 
ATOM      8  C   UNL     1       5.483   5.437  15.746  0.00  0.00    +0.000 A 
ATOM      9  C   UNL     1       4.748   6.171  16.650  0.00  0.00    +0.000 A 
ATOM     10  C   UNL     1       3.984   5.464  17.606  0.00  0.00    +0.000 A 
ATOM     11  O   UNL     1       6.227   5.973  14.741  0.00  0.00    +0.000 OA
ATOM     12  C   UNL     1       6.703   4.777  14.096  0.00  0.00    +0.000 C 
ATOM     13  O   UNL     1       6.303   3.567  14.772  0.00  0.00    +0.000 OA
ENDROOT
BRANCH   1  15
ATOM     14  C   UNL     1       2.386   8.165  17.675  0.00  0.00    +0.000 C 
ATOM     15  C   UNL     1       2.557   7.224  18.843  0.00  0.00    +0.000 C 
ATOM     16  O   UNL     1       2.277   7.588  19.985  0.00  0.00    +0.000 OA
ENDBRANCH   1  15
BRANCH   2  17
ATOM     17  C   UNL     1       1.729   4.554  20.443  0.00  0.00    +0.000 C 
ATOM     18  O   UNL     1       0.608   4.073  20.340  0.00  0.00    +0.000 OA
BRANCH  17  19
ATOM     19  O   UNL     1       2.211   4.922  21.647  0.00  0.00    +0.000 OA
ATOM     20  H   UNL     1       2.586   4.198  22.197  0.00  0.00    +0.000 HD
ENDBRANCH  17  19
ENDBRANCH   2  17
TORSDOF 3
ENDMDL
MODEL 4
REMARK VINA RESULT:      -6.8      2.393      4.595
REMARK  Name = 
REMARK  5 active torsions:
REMARK  status: ('A' for Active; 'I' for Inactive)
REMARK    1  A    between atoms: C_1  and  C_2
REMARK    2  A    between atoms: C_2  and  C_4
REMARK    3  A    between atoms: C_5  and  C_6
REMARK    4  A    between atoms: C_6  and  O_8
REMARK    5  A    between atoms: N_9  and  C_10
REMARK                            x       y       z     vdW  Elec       q    Type
REMARK                         _______ _______ _______ _____ _____    ______ ____
ROOT
ATOM      1  C   UNL     1       3.314   3.793  18.747  0.00  0.00    +0.000 A 
ATOM      2  C   UNL     1       2.625   4.925  19.204  0.00  0.00    +0.000 A 
ATOM      3  N   UNL     1       3.041   5.978  18.390  0.00  0.00    +0.000 N 
ATOM      4  C   UNL     1       2.588   7.359  18.450  0.00  0.00    +0.000 C 
ATOM      5  C   UNL     1       3.957   5.551  17.443  0.00  0.00    +0.000 A 
ATOM      6  C   UNL     1       4.668   6.272  16.457  0.00  0.00    +0.000 A 
ATOM      7  C   UNL     1       5.508   5.529  15.646  0.00  0.00    +0.000 A 
ATOM      8  C   UNL     1       5.616   4.172  15.764  0.00  0.00    +0.000 A 
ATOM      9  C   UNL     1       4.917   3.452  16.705  0.00  0.00    +0.000 A 
ATOM     10  C   UNL     1       4.095   4.168  17.607  0.00  0.00    +0.000 A 
ATOM     11  O   UNL     1       6.480   3.629  14.864  0.00  0.00    +0.000 OA
ATOM     12  C   UNL     1       6.953   4.817  14.201  0.00  0.00    +0.000 C 
ATOM     13  O   UNL     1       6.308   6.023  14.661  0.00  0.00    +0.000 OA
ENDROOT
BRANCH   1  15
ATOM     14  C   UNL     1       4.387   1.989  20.241  0.00  0.00    +0.000 C 
ATOM     15  C   UNL     1       3.262   2.456  19.350  0.00  0.00    +0.000 C 
ATOM     16  O   UNL     1       2.294   1.728  19.133  0.00  0.00    +0.000 OA
ENDBRANCH   1  15
BRANCH   2  17
ATOM     17  C   UNL     1       1.720   5.108  20.333  0.00  0.00    +0.000 C 
ATOM     18  O   UNL     1       0.662   4.510  20.482  0.00  0.00    +0.000 OA
BRANCH  17  19
ATOM     19  O   UNL     1       2.161   5.969  21.273  0.00  0.00    +0.000 OA
ATOM     20  H   UNL     1       2.157   5.631  22.197  0.00  0.00    +0.000 HD
ENDBRANCH  17  19
ENDBRANCH   2  17
TORSDOF 3
ENDMDL
MODEL 5
REMARK VINA RESULT:      -6.7      1.596      3.416
REMARK  Name = 
REMARK  5 active torsions:
REMARK  status: ('A' for Active; 'I' for Inactive)
REMARK    1  A    between atoms: C_1  and  C_2
REMARK    2  A    between atoms: C_2  and  C_4
REMARK    3  A    between atoms: C_5  and  C_6
REMARK    4  A    between atoms: C_6  and  O_8
REMARK    5  A    between atoms: N_9  and  C_10
REMARK                            x       y       z     vdW  Elec       q    Type
REMARK                         _______ _______ _______ _____ _____    ______ ____
ROOT
ATOM      1  C   UNL     1       3.848   5.569  18.040  0.00  0.00    +0.000 A 
ATOM      2  C   UNL     1       3.627   4.586  19.015  0.00  0.00    +0.000 A 
ATOM      3  N   UNL     1       2.774   5.165  19.953  0.00  0.00    +0.000 N 
ATOM      4  C   UNL     1       2.228   4.533  21.144  0.00  0.00    +0.000 C 
ATOM      5  C   UNL     1       2.450   6.466  19.604  0.00  0.00    +0.000 A 
ATOM      6  C   UNL     1       1.666   7.432  20.274  0.00  0.00    +0.000 A 
ATOM      7  C   UNL     1       1.525   8.651  19.636  0.00  0.00    +0.000 A 
ATOM      8  C   UNL     1       2.078   8.897  18.410  0.00  0.00    +0.000 A 
ATOM      9  C   UNL     1       2.828   7.961  17.735  0.00  0.00    +0.000 A 
ATOM     10  C   UNL     1       3.063   6.720  18.372  0.00  0.00    +0.000 A 
ATOM     11  O   UNL     1       1.809  10.148  17.948  0.00  0.00    +0.000 OA
ATOM     12  C   UNL     1       1.069  10.687  19.059  0.00  0.00    +0.000 C 
ATOM     13  O   UNL     1       0.845   9.730  20.115  0.00  0.00    +0.000 OA
ENDROOT
BRANCH   1  15
ATOM     14  C   UNL     1       5.901   6.413  16.732  0.00  0.00    +0.000 C 
ATOM     15  C   UNL     1       4.751   5.449  16.890  0.00  0.00    +0.000 C 
ATOM     16  O   UNL     1       4.568   4.554  16.064  0.00  0.00    +0.000 OA
ENDBRANCH   1  15
BRANCH   2  17
ATOM     17  C   UNL     1       4.186   3.248  19.173  0.00  0.00    +0.000 C 
ATOM     18  O   UNL     1       3.545   2.210  19.078  0.00  0.00    +0.000 OA
BRANCH  17  19
ATOM     19  O   UNL     1       5.517   3.216  19.383  0.00  0.00    +0.000 OA
ATOM     20  H   UNL     1       6.074   3.567  18.652  0.00  0.00    +0.000 HD
ENDBRANCH  17  19
ENDBRANCH   2  17
TORSDOF 3
ENDMDL
MODEL 6
REMARK VINA RESULT:      -6.7      1.167      3.120
REMARK  Name = 
REMARK  5 active torsions:
REMARK  status: ('A' for Active; 'I' for Inactive)
REMARK    1  A    between atoms: C_1  and  C_2
REMARK    2  A    between atoms: C_2  and  C_4
REMARK    3  A    between atoms: C_5  and  C_6
REMARK    4  A    between atoms: C_6  and  O_8
REMARK    5  A    between atoms: N_9  and  C_10
REMARK                            x       y       z     vdW  Elec       q    Type
REMARK                         _______ _______ _______ _____ _____    ______ ____
ROOT
ATOM      1  C   UNL     1       4.190   4.756  18.086  0.00  0.00    +0.000 A 
ATOM      2  C   UNL     1       3.720   3.826  19.024  0.00  0.00    +0.000 A 
ATOM      3  N   UNL     1       2.764   4.501  19.782  0.00  0.00    +0.000 N 
ATOM      4  C   UNL     1       1.966   3.954  20.868  0.00  0.00    +0.000 C 
ATOM      5  C   UNL     1       2.616   5.812  19.356  0.00  0.00    +0.000 A 
ATOM      6  C   UNL     1       1.808   6.857  19.856  0.00  0.00    +0.000 A 
ATOM      7  C   UNL     1       1.884   8.062  19.178  0.00  0.00    +0.000 A 
ATOM      8  C   UNL     1       2.664   8.222  18.067  0.00  0.00    +0.000 A 
ATOM      9  C   UNL     1       3.442   7.208  17.556  0.00  0.00    +0.000 A 
ATOM     10  C   UNL     1       3.457   5.975  18.249  0.00  0.00    +0.000 A 
ATOM     11  O   UNL     1       2.585   9.474  17.541  0.00  0.00    +0.000 OA
ATOM     12  C   UNL     1       1.708  10.106  18.490  0.00  0.00    +0.000 C 
ATOM     13  O   UNL     1       1.222   9.206  19.507  0.00  0.00    +0.000 OA
ENDROOT
BRANCH   1  15
ATOM     14  C   UNL     1       4.942   4.344  15.656  0.00  0.00    +0.000 C 
ATOM     15  C   UNL     1       5.269   4.526  17.118  0.00  0.00    +0.000 C 
ATOM     16  O   UNL     1       6.437   4.494  17.505  0.00  0.00    +0.000 OA
ENDBRANCH   1  15
BRANCH   2  17
ATOM     17  C   UNL     1       4.129   2.455  19.305  0.00  0.00    +0.000 C 
ATOM     18  O   UNL     1       3.612   1.459  18.816  0.00  0.00    +0.000 OA
BRANCH  17  19
ATOM     19  O   UNL     1       5.191   2.343  20.127  0.00  0.00    +0.000 OA
ATOM     20  H   UNL     1       5.177   1.576  20.742  0.00  0.00    +0.000 HD
ENDBRANCH  17  19
ENDBRANCH   2  17
TORSDOF 3
ENDMDL
MODEL 7
REMARK VINA RESULT:      -6.5      1.658      3.638
REMARK  Name = 
REMARK  5 active torsions:
REMARK  status: ('A' for Active; 'I' for Inactive)
REMARK    1  A    between atoms: C_1  and  C_2
REMARK    2  A    between atoms: C_2  and  C_4
REMARK    3  A    between atoms: C_5  and  C_6
REMARK    4  A    between atoms: C_6  and  O_8
REMARK    5  A    between atoms: N_9  and  C_10
REMARK                            x       y       z     vdW  Elec       q    Type
REMARK                         _______ _______ _______ _____ _____    ______ ____
ROOT
ATOM      1  C   UNL     1       4.122   6.056  17.799  0.00  0.00    +0.000 A 
ATOM      2  C   UNL     1       3.948   4.977  18.678  0.00  0.00    +0.000 A 
ATOM      3  N   UNL     1       3.001   5.396  19.612  0.00  0.00    +0.000 N 
ATOM      4  C   UNL     1       2.462   4.619  20.716  0.00  0.00    +0.000 C 
ATOM      5  C   UNL     1       2.575   6.689  19.352  0.00  0.00    +0.000 A 
ATOM      6  C   UNL     1       1.674   7.521  20.055  0.00  0.00    +0.000 A 
ATOM      7  C   UNL     1       1.450   8.773  19.509  0.00  0.00    +0.000 A 
ATOM      8  C   UNL     1       2.036   9.170  18.340  0.00  0.00    +0.000 A 
ATOM      9  C   UNL     1       2.900   8.365  17.633  0.00  0.00    +0.000 A 
ATOM     10  C   UNL     1       3.219   7.100  18.180  0.00  0.00    +0.000 A 
ATOM     11  O   UNL     1       1.673  10.427  17.966  0.00  0.00    +0.000 OA
ATOM     12  C   UNL     1       0.835  10.802  19.076  0.00  0.00    +0.000 C 
ATOM     13  O   UNL     1       0.653   9.742  20.037  0.00  0.00    +0.000 OA
ENDROOT
BRANCH   1  15
ATOM     14  C   UNL     1       5.005   5.106  15.573  0.00  0.00    +0.000 C 
ATOM     15  C   UNL     1       5.085   6.114  16.694  0.00  0.00    +0.000 C 
ATOM     16  O   UNL     1       5.946   6.993  16.682  0.00  0.00    +0.000 OA
ENDBRANCH   1  15
BRANCH   2  17
ATOM     17  C   UNL     1       4.620   3.686  18.758  0.00  0.00    +0.000 C 
ATOM     18  O   UNL     1       5.526   3.419  19.536  0.00  0.00    +0.000 OA
BRANCH  17  19
ATOM     19  O   UNL     1       4.127   2.743  17.929  0.00  0.00    +0.000 OA
ATOM     20  H   UNL     1       3.457   2.139  18.319  0.00  0.00    +0.000 HD
ENDBRANCH  17  19
ENDBRANCH   2  17
TORSDOF 3
ENDMDL
MODEL 8
REMARK VINA RESULT:      -6.4      1.838      2.645
REMARK  Name = 
REMARK  5 active torsions:
REMARK  status: ('A' for Active; 'I' for Inactive)
REMARK    1  A    between atoms: C_1  and  C_2
REMARK    2  A    between atoms: C_2  and  C_4
REMARK    3  A    between atoms: C_5  and  C_6
REMARK    4  A    between atoms: C_6  and  O_8
REMARK    5  A    between atoms: N_9  and  C_10
REMARK                            x       y       z     vdW  Elec       q    Type
REMARK                         _______ _______ _______ _____ _____    ______ ____
ROOT
ATOM      1  C   UNL     1       4.265   4.561  18.433  0.00  0.00    +0.000 A 
ATOM      2  C   UNL     1       4.952   4.872  17.251  0.00  0.00    +0.000 A 
ATOM      3  N   UNL     1       4.565   6.169  16.917  0.00  0.00    +0.000 N 
ATOM      4  C   UNL     1       5.028   6.952  15.782  0.00  0.00    +0.000 C 
ATOM      5  C   UNL     1       3.669   6.682  17.840  0.00  0.00    +0.000 A 
ATOM      6  C   UNL     1       2.989   7.920  17.875  0.00  0.00    +0.000 A 
ATOM      7  C   UNL     1       2.163   8.130  18.965  0.00  0.00    +0.000 A 
ATOM      8  C   UNL     1       2.040   7.212  19.970  0.00  0.00    +0.000 A 
ATOM      9  C   UNL     1       2.710   6.010  19.961  0.00  0.00    +0.000 A 
ATOM     10  C   UNL     1       3.515   5.712  18.838  0.00  0.00    +0.000 A 
ATOM     11  O   UNL     1       1.194   7.616  20.956  0.00  0.00    +0.000 OA
ATOM     12  C   UNL     1       0.747   8.876  20.423  0.00  0.00    +0.000 C 
ATOM     13  O   UNL     1       1.391   9.231  19.181  0.00  0.00    +0.000 OA
ENDROOT
BRANCH   1  15
ATOM     14  C   UNL     1       3.154   2.292  18.937  0.00  0.00    +0.000 C 
ATOM     15  C   UNL     1       4.291   3.267  19.125  0.00  0.00    +0.000 C 
ATOM     16  O   UNL     1       5.246   2.982  19.847  0.00  0.00    +0.000 OA
ENDBRANCH   1  15
BRANCH   2  17
ATOM     17  C   UNL     1       5.830   4.066  16.411  0.00  0.00    +0.000 C 
ATOM     18  O   UNL     1       5.476   3.472  15.401  0.00  0.00    +0.000 OA
BRANCH  17  19
ATOM     19  O   UNL     1       7.123   4.059  16.793  0.00  0.00    +0.000 OA
ATOM     20  H   UNL     1       7.441   3.226  17.209  0.00  0.00    +0.000 HD
ENDBRANCH  17  19
ENDBRANCH   2  17
TORSDOF 3
ENDMDL
