MODEL 1
REMARK VINA RESULT:      -8.1      0.000      0.000
REMARK  Name = 
REMARK  11 active torsions:
REMARK  status: ('A' for Active; 'I' for Inactive)
REMARK    1  A    between atoms: C_1  and  O_2
REMARK    2  A    between atoms: O_2  and  C_3
REMARK    3  A    between atoms: C_5  and  C_6
REMARK    4  A    between atoms: C_7  and  C_8
REMARK    5  A    between atoms: C_15  and  C_16
REMARK    6  A    between atoms: C_16  and  O_18
REMARK    7  A    between atoms: C_19  and  O_20
REMARK    8  A    between atoms: C_21  and  C_22
REMARK    9  A    between atoms: C_22  and  C_23
REMARK   10  A    between atoms: C_24  and  C_25
REMARK   11  A    between atoms: C_24  and  C_26
REMARK                            x       y       z     vdW  Elec       q    Type
REMARK                         _______ _______ _______ _____ _____    ______ ____
ROOT
ATOM      1  C   UNL     1       5.680   6.401  16.936  0.00  0.00    +0.000 A 
ATOM      2  C   UNL     1       4.527   6.985  17.500  0.00  0.00    +0.000 A 
ATOM      3  C   UNL     1       3.376   6.277  17.875  0.00  0.00    +0.000 A 
ATOM      4  C   UNL     1       3.409   4.881  17.719  0.00  0.00    +0.000 A 
ATOM      5  C   UNL     1       4.547   4.281  17.119  0.00  0.00    +0.000 A 
ATOM      6  C   UNL     1       5.705   5.024  16.719  0.00  0.00    +0.000 A 
ENDROOT
BRANCH   1   8
ATOM      7  C   UNL     1       7.637   7.768  17.579  0.00  0.00    +0.000 C 
ATOM      8  O   UNL     1       6.581   7.397  16.728  0.00  0.00    +0.000 OA
ENDBRANCH   1   8
BRANCH   3   9
ATOM      9  C   UNL     1       2.249   7.056  18.436  0.00  0.00    +0.000 C 
ATOM     10  C   UNL     1       2.214   8.404  18.472  0.00  0.00    +0.000 C 
BRANCH  10  11
ATOM     11  C   UNL     1       1.070   9.218  18.920  0.00  0.00    +0.000 A 
ATOM     12  C   UNL     1       0.264   9.907  18.007  0.00  0.00    +0.000 A 
ATOM     13  C   UNL     1      -0.740  10.772  18.455  0.00  0.00    +0.000 A 
ATOM     14  C   UNL     1      -0.951  10.964  19.820  0.00  0.00    +0.000 A 
ATOM     15  C   UNL     1      -0.161  10.282  20.742  0.00  0.00    +0.000 A 
ATOM     16  C   UNL     1       0.840   9.423  20.289  0.00  0.00    +0.000 A 
ATOM     17  F   UNL     1       1.596   8.794  21.200  0.00  0.00    +0.000 F 
ENDBRANCH  10  11
ENDBRANCH   3   9
BRANCH   4  18
ATOM     18  C   UNL     1       2.338   3.952  18.174  0.00  0.00    +0.000 C 
ATOM     19  O   UNL     1       1.485   3.492  17.435  0.00  0.00    +0.000 OA
BRANCH  18  20
ATOM     20  O   UNL     1       2.284   3.708  19.492  0.00  0.00    +0.000 OA
ATOM     21  H   UNL     1       3.108   4.109  19.842  0.00  0.00    +0.000 HD
ENDBRANCH  18  20
ENDBRANCH   4  18
BRANCH   5  22
ATOM     22  O   UNL     1       4.571   2.929  16.834  0.00  0.00    +0.000 OA
ATOM     23  H   UNL     1       5.498   2.621  16.713  0.00  0.00    +0.000 HD
ENDBRANCH   5  22
BRANCH   6  24
ATOM     24  C   UNL     1       6.812   4.231  16.048  0.00  0.00    +0.000 C 
BRANCH  24  25
ATOM     25  C   UNL     1       7.265   4.884  14.770  0.00  0.00    +0.000 C 
ATOM     26  C   UNL     1       6.913   4.559  13.512  0.00  0.00    +0.000 C 
ATOM     27  C   UNL     1       5.832   3.582  13.150  0.00  0.00    +0.000 C 
ATOM     28  C   UNL     1       7.646   5.158  12.341  0.00  0.00    +0.000 C 
ENDBRANCH  24  25
ENDBRANCH   6  24
TORSDOF 8
ENDMDL
MODEL 2
REMARK VINA RESULT:      -8.0      0.774      1.227
REMARK  Name = 
REMARK  11 active torsions:
REMARK  status: ('A' for Active; 'I' for Inactive)
REMARK    1  A    between atoms: C_1  and  O_2
REMARK    2  A    between atoms: O_2  and  C_3
REMARK    3  A    between atoms: C_5  and  C_6
REMARK    4  A    between atoms: C_7  and  C_8
REMARK    5  A    between atoms: C_15  and  C_16
REMARK    6  A    between atoms: C_16  and  O_18
REMARK    7  A    between atoms: C_19  and  O_20
REMARK    8  A    between atoms: C_21  and  C_22
REMARK    9  A    between atoms: C_22  and  C_23
REMARK   10  A    between atoms: C_24  and  C_25
REMARK   11  A    between atoms: C_24  and  C_26
REMARK                            x       y       z     vdW  Elec       q    Type
REMARK                         _______ _______ _______ _____ _____    ______ ____
ROOT
ATOM      1  C   UNL     1       5.543   6.405  16.893  0.00  0.00    +0.000 A 
ATOM      2  C   UNL     1       4.469   7.195  17.352  0.00  0.00    +0.000 A 
ATOM      3  C   UNL     1       3.235   6.689  17.786  0.00  0.00    +0.000 A 
ATOM      4  C   UNL     1       3.092   5.292  17.808  0.00  0.00    +0.000 A 
ATOM      5  C   UNL     1       4.150   4.483  17.314  0.00  0.00    +0.000 A 
ATOM      6  C   UNL     1       5.395   5.019  16.852  0.00  0.00    +0.000 A 
ENDROOT
BRANCH   1   8
ATOM      7  C   UNL     1       7.470   7.837  17.480  0.00  0.00    +0.000 C 
ATOM      8  O   UNL     1       6.564   7.246  16.582  0.00  0.00    +0.000 OA
ENDBRANCH   1   8
BRANCH   3   9
ATOM      9  C   UNL     1       2.212   7.668  18.220  0.00  0.00    +0.000 C 
ATOM     10  C   UNL     1       2.004   8.015  19.506  0.00  0.00    +0.000 C 
BRANCH  10  11
ATOM     11  C   UNL     1       1.076   9.063  19.969  0.00  0.00    +0.000 A 
ATOM     12  C   UNL     1       0.474   9.953  19.073  0.00  0.00    +0.000 A 
ATOM     13  C   UNL     1      -0.305  11.016  19.542  0.00  0.00    +0.000 A 
ATOM     14  C   UNL     1      -0.492  11.207  20.910  0.00  0.00    +0.000 A 
ATOM     15  C   UNL     1       0.095  10.326  21.815  0.00  0.00    +0.000 A 
ATOM     16  C   UNL     1       0.873   9.270  21.343  0.00  0.00    +0.000 A 
ATOM     17  F   UNL     1       1.440   8.450  22.239  0.00  0.00    +0.000 F 
ENDBRANCH  10  11
ENDBRANCH   3   9
BRANCH   4  18
ATOM     18  C   UNL     1       1.910   4.568  18.352  0.00  0.00    +0.000 C 
ATOM     19  O   UNL     1       1.680   4.449  19.543  0.00  0.00    +0.000 OA
BRANCH  18  20
ATOM     20  O   UNL     1       1.131   3.945  17.455  0.00  0.00    +0.000 OA
ATOM     21  H   UNL     1       0.921   3.085  17.879  0.00  0.00    +0.000 HD
ENDBRANCH  18  20
ENDBRANCH   4  18
BRANCH   5  22
ATOM     22  O   UNL     1       4.005   3.113  17.202  0.00  0.00    +0.000 OA
ATOM     23  H   UNL     1       4.336   2.804  16.328  0.00  0.00    +0.000 HD
ENDBRANCH   5  22
BRANCH   6  24
ATOM     24  C   UNL     1       6.398   4.015  16.311  0.00  0.00    +0.000 C 
BRANCH  24  25
ATOM     25  C   UNL     1       6.006   3.522  14.944  0.00  0.00    +0.000 C 
ATOM     26  C   UNL     1       6.383   4.019  13.752  0.00  0.00    +0.000 C 
ATOM     27  C   UNL     1       7.439   5.068  13.556  0.00  0.00    +0.000 C 
ATOM     28  C   UNL     1       5.707   3.555  12.489  0.00  0.00    +0.000 C 
ENDBRANCH  24  25
ENDBRANCH   6  24
TORSDOF 8
ENDMDL
MODEL 3
REMARK VINA RESULT:      -7.9      0.973      1.554
REMARK  Name = 
REMARK  11 active torsions:
REMARK  status: ('A' for Active; 'I' for Inactive)
REMARK    1  A    between atoms: C_1  and  O_2
REMARK    2  A    between atoms: O_2  and  C_3
REMARK    3  A    between atoms: C_5  and  C_6
REMARK    4  A    between atoms: C_7  and  C_8
REMARK    5  A    between atoms: C_15  and  C_16
REMARK    6  A    between atoms: C_16  and  O_18
REMARK    7  A    between atoms: C_19  and  O_20
REMARK    8  A    between atoms: C_21  and  C_22
REMARK    9  A    between atoms: C_22  and  C_23
REMARK   10  A    between atoms: C_24  and  C_25
REMARK   11  A    between atoms: C_24  and  C_26
REMARK                            x       y       z     vdW  Elec       q    Type
REMARK                         _______ _______ _______ _____ _____    ______ ____
ROOT
ATOM      1  C   UNL     1       5.434   6.403  16.954  0.00  0.00    +0.000 A 
ATOM      2  C   UNL     1       4.384   7.128  17.554  0.00  0.00    +0.000 A 
ATOM      3  C   UNL     1       3.164   6.571  17.966  0.00  0.00    +0.000 A 
ATOM      4  C   UNL     1       3.013   5.183  17.812  0.00  0.00    +0.000 A 
ATOM      5  C   UNL     1       4.046   4.444  17.175  0.00  0.00    +0.000 A 
ATOM      6  C   UNL     1       5.275   5.035  16.738  0.00  0.00    +0.000 A 
ENDROOT
BRANCH   1   8
ATOM      7  C   UNL     1       7.555   7.526  17.544  0.00  0.00    +0.000 C 
ATOM      8  O   UNL     1       6.447   7.277  16.715  0.00  0.00    +0.000 OA
ENDBRANCH   1   8
BRANCH   3   9
ATOM      9  C   UNL     1       2.164   7.487  18.563  0.00  0.00    +0.000 C 
ATOM     10  C   UNL     1       2.126   7.804  19.873  0.00  0.00    +0.000 C 
BRANCH  10  11
ATOM     11  C   UNL     1       1.222   8.792  20.488  0.00  0.00    +0.000 A 
ATOM     12  C   UNL     1       0.549   8.520  21.684  0.00  0.00    +0.000 A 
ATOM     13  C   UNL     1      -0.398   9.417  22.188  0.00  0.00    +0.000 A 
ATOM     14  C   UNL     1      -0.690  10.597  21.504  0.00  0.00    +0.000 A 
ATOM     15  C   UNL     1      -0.026  10.885  20.314  0.00  0.00    +0.000 A 
ATOM     16  C   UNL     1       0.916   9.985  19.815  0.00  0.00    +0.000 A 
ATOM     17  F   UNL     1       1.526  10.282  18.659  0.00  0.00    +0.000 F 
ENDBRANCH  10  11
ENDBRANCH   3   9
BRANCH   4  18
ATOM     18  C   UNL     1       1.848   4.397  18.302  0.00  0.00    +0.000 C 
ATOM     19  O   UNL     1       1.645   4.153  19.479  0.00  0.00    +0.000 OA
BRANCH  18  20
ATOM     20  O   UNL     1       1.053   3.863  17.362  0.00  0.00    +0.000 OA
ATOM     21  H   UNL     1       1.171   2.895  17.472  0.00  0.00    +0.000 HD
ENDBRANCH  18  20
ENDBRANCH   4  18
BRANCH   5  22
ATOM     22  O   UNL     1       3.888   3.102  16.892  0.00  0.00    +0.000 OA
ATOM     23  H   UNL     1       3.360   2.662  17.596  0.00  0.00    +0.000 HD
ENDBRANCH   5  22
BRANCH   6  24
ATOM     24  C   UNL     1       6.250   4.109  16.033  0.00  0.00    +0.000 C 
BRANCH  24  25
ATOM     25  C   UNL     1       6.949   4.803  14.894  0.00  0.00    +0.000 C 
ATOM     26  C   UNL     1       6.855   4.525  13.581  0.00  0.00    +0.000 C 
ATOM     27  C   UNL     1       5.868   3.568  12.976  0.00  0.00    +0.000 C 
ATOM     28  C   UNL     1       7.806   5.159  12.602  0.00  0.00    +0.000 C 
ENDBRANCH  24  25
ENDBRANCH   6  24
TORSDOF 8
ENDMDL
MODEL 4
REMARK VINA RESULT:      -7.9      1.235      1.495
REMARK  Name = 
REMARK  11 active torsions:
REMARK  status: ('A' for Active; 'I' for Inactive)
REMARK    1  A    between atoms: C_1  and  O_2
REMARK    2  A    between atoms: O_2  and  C_3
REMARK    3  A    between atoms: C_5  and  C_6
REMARK    4  A    between atoms: C_7  and  C_8
REMARK    5  A    between atoms: C_15  and  C_16
REMARK    6  A    between atoms: C_16  and  O_18
REMARK    7  A    between atoms: C_19  and  O_20
REMARK    8  A    between atoms: C_21  and  C_22
REMARK    9  A    between atoms: C_22  and  C_23
REMARK   10  A    between atoms: C_24  and  C_25
REMARK   11  A    between atoms: C_24  and  C_26
REMARK                            x       y       z     vdW  Elec       q    Type
REMARK                         _______ _______ _______ _____ _____    ______ ____
ROOT
ATOM      1  C   UNL     1       5.556   6.507  16.882  0.00  0.00    +0.000 A 
ATOM      2  C   UNL     1       4.514   7.291  17.418  0.00  0.00    +0.000 A 
ATOM      3  C   UNL     1       3.270   6.791  17.829  0.00  0.00    +0.000 A 
ATOM      4  C   UNL     1       3.082   5.401  17.744  0.00  0.00    +0.000 A 
ATOM      5  C   UNL     1       4.107   4.601  17.171  0.00  0.00    +0.000 A 
ATOM      6  C   UNL     1       5.362   5.134  16.733  0.00  0.00    +0.000 A 
ENDROOT
BRANCH   1   8
ATOM      7  C   UNL     1       7.628   7.698  17.509  0.00  0.00    +0.000 C 
ATOM      8  O   UNL     1       6.599   7.338  16.622  0.00  0.00    +0.000 OA
ENDBRANCH   1   8
BRANCH   3   9
ATOM      9  C   UNL     1       2.284   7.764  18.354  0.00  0.00    +0.000 C 
ATOM     10  C   UNL     1       2.351   9.092  18.131  0.00  0.00    +0.000 C 
BRANCH  10  11
ATOM     11  C   UNL     1       1.336  10.080  18.539  0.00  0.00    +0.000 A 
ATOM     12  C   UNL     1       0.048   9.687  18.920  0.00  0.00    +0.000 A 
ATOM     13  C   UNL     1      -0.938  10.644  19.185  0.00  0.00    +0.000 A 
ATOM     14  C   UNL     1      -0.654  12.004  19.071  0.00  0.00    +0.000 A 
ATOM     15  C   UNL     1       0.625  12.412  18.698  0.00  0.00    +0.000 A 
ATOM     16  C   UNL     1       1.603  11.454  18.433  0.00  0.00    +0.000 A 
ATOM     17  F   UNL     1       2.819  11.876  18.059  0.00  0.00    +0.000 F 
ENDBRANCH  10  11
ENDBRANCH   3   9
BRANCH   4  18
ATOM     18  C   UNL     1       1.884   4.675  18.247  0.00  0.00    +0.000 C 
ATOM     19  O   UNL     1       1.647   4.500  19.429  0.00  0.00    +0.000 OA
BRANCH  18  20
ATOM     20  O   UNL     1       1.096   4.113  17.317  0.00  0.00    +0.000 OA
ATOM     21  H   UNL     1       0.705   3.337  17.774  0.00  0.00    +0.000 HD
ENDBRANCH  18  20
ENDBRANCH   4  18
BRANCH   5  22
ATOM     22  O   UNL     1       3.916   3.251  16.954  0.00  0.00    +0.000 OA
ATOM     23  H   UNL     1       3.761   2.785  17.807  0.00  0.00    +0.000 HD
ENDBRANCH   5  22
BRANCH   6  24
ATOM     24  C   UNL     1       6.325   4.145  16.100  0.00  0.00    +0.000 C 
BRANCH  24  25
ATOM     25  C   UNL     1       6.990   4.722  14.879  0.00  0.00    +0.000 C 
ATOM     26  C   UNL     1       6.738   4.428  13.590  0.00  0.00    +0.000 C 
ATOM     27  C   UNL     1       5.590   3.586  13.112  0.00  0.00    +0.000 C 
ATOM     28  C   UNL     1       7.660   4.919  12.506  0.00  0.00    +0.000 C 
ENDBRANCH  24  25
ENDBRANCH   6  24
TORSDOF 8
ENDMDL
MODEL 5
REMARK VINA RESULT:      -7.8      1.243      1.729
REMARK  Name = 
REMARK  11 active torsions:
REMARK  status: ('A' for Active; 'I' for Inactive)
REMARK    1  A    between atoms: C_1  and  O_2
REMARK    2  A    between atoms: O_2  and  C_3
REMARK    3  A    between atoms: C_5  and  C_6
REMARK    4  A    between atoms: C_7  and  C_8
REMARK    5  A    between atoms: C_15  and  C_16
REMARK    6  A    between atoms: C_16  and  O_18
REMARK    7  A    between atoms: C_19  and  O_20
REMARK    8  A    between atoms: C_21  and  C_22
REMARK    9  A    between atoms: C_22  and  C_23
REMARK   10  A    between atoms: C_24  and  C_25
REMARK   11  A    between atoms: C_24  and  C_26
REMARK                            x       y       z     vdW  Elec       q    Type
REMARK                         _______ _______ _______ _____ _____    ______ ____
ROOT
ATOM      1  C   UNL     1       5.457   6.535  17.016  0.00  0.00    +0.000 A 
ATOM      2  C   UNL     1       4.384   7.288  17.533  0.00  0.00    +0.000 A 
ATOM      3  C   UNL     1       3.161   6.748  17.958  0.00  0.00    +0.000 A 
ATOM      4  C   UNL     1       3.031   5.350  17.905  0.00  0.00    +0.000 A 
ATOM      5  C   UNL     1       4.088   4.579  17.353  0.00  0.00    +0.000 A 
ATOM      6  C   UNL     1       5.321   5.152  16.901  0.00  0.00    +0.000 A 
ENDROOT
BRANCH   1   8
ATOM      7  C   UNL     1       7.614   7.634  17.512  0.00  0.00    +0.000 C 
ATOM      8  O   UNL     1       6.466   7.401  16.736  0.00  0.00    +0.000 OA
ENDBRANCH   1   8
BRANCH   3   9
ATOM      9  C   UNL     1       2.136   7.692  18.459  0.00  0.00    +0.000 C 
ATOM     10  C   UNL     1       2.030   8.971  18.046  0.00  0.00    +0.000 C 
BRANCH  10  11
ATOM     11  C   UNL     1       0.961   9.909  18.434  0.00  0.00    +0.000 A 
ATOM     12  C   UNL     1       1.139  10.827  19.475  0.00  0.00    +0.000 A 
ATOM     13  C   UNL     1       0.076  11.624  19.911  0.00  0.00    +0.000 A 
ATOM     14  C   UNL     1      -1.181  11.513  19.318  0.00  0.00    +0.000 A 
ATOM     15  C   UNL     1      -1.374  10.608  18.277  0.00  0.00    +0.000 A 
ATOM     16  C   UNL     1      -0.311   9.815  17.848  0.00  0.00    +0.000 A 
ATOM     17  F   UNL     1      -0.532   8.940  16.856  0.00  0.00    +0.000 F 
ENDBRANCH  10  11
ENDBRANCH   3   9
BRANCH   4  18
ATOM     18  C   UNL     1       1.863   4.587  18.426  0.00  0.00    +0.000 C 
ATOM     19  O   UNL     1       1.646   4.411  19.613  0.00  0.00    +0.000 OA
BRANCH  18  20
ATOM     20  O   UNL     1       1.083   3.995  17.509  0.00  0.00    +0.000 OA
ATOM     21  H   UNL     1       0.170   4.194  17.808  0.00  0.00    +0.000 HD
ENDBRANCH  18  20
ENDBRANCH   4  18
BRANCH   5  22
ATOM     22  O   UNL     1       3.953   3.217  17.168  0.00  0.00    +0.000 OA
ATOM     23  H   UNL     1       3.653   3.023  16.251  0.00  0.00    +0.000 HD
ENDBRANCH   5  22
BRANCH   6  24
ATOM     24  C   UNL     1       6.324   4.189  16.292  0.00  0.00    +0.000 C 
BRANCH  24  25
ATOM     25  C   UNL     1       5.863   3.683  14.951  0.00  0.00    +0.000 C 
ATOM     26  C   UNL     1       6.299   4.062  13.736  0.00  0.00    +0.000 C 
ATOM     27  C   UNL     1       7.486   4.947  13.489  0.00  0.00    +0.000 C 
ATOM     28  C   UNL     1       5.561   3.630  12.497  0.00  0.00    +0.000 C 
ENDBRANCH  24  25
ENDBRANCH   6  24
TORSDOF 8
ENDMDL
MODEL 6
REMARK VINA RESULT:      -7.8      1.278      1.486
REMARK  Name = 
REMARK  11 active torsions:
REMARK  status: ('A' for Active; 'I' for Inactive)
REMARK    1  A    between atoms: C_1  and  O_2
REMARK    2  A    between atoms: O_2  and  C_3
REMARK    3  A    between atoms: C_5  and  C_6
REMARK    4  A    between atoms: C_7  and  C_8
REMARK    5  A    between atoms: C_15  and  C_16
REMARK    6  A    between atoms: C_16  and  O_18
REMARK    7  A    between atoms: C_19  and  O_20
REMARK    8  A    between atoms: C_21  and  C_22
REMARK    9  A    between atoms: C_22  and  C_23
REMARK   10  A    between atoms: C_24  and  C_25
REMARK   11  A    between atoms: C_24  and  C_26
REMARK                            x       y       z     vdW  Elec       q    Type
REMARK                         _______ _______ _______ _____ _____    ______ ____
ROOT
ATOM      1  C   UNL     1       5.626   6.484  16.893  0.00  0.00    +0.000 A 
ATOM      2  C   UNL     1       4.568   7.274  17.388  0.00  0.00    +0.000 A 
ATOM      3  C   UNL     1       3.331   6.771  17.818  0.00  0.00    +0.000 A 
ATOM      4  C   UNL     1       3.168   5.376  17.796  0.00  0.00    +0.000 A 
ATOM      5  C   UNL     1       4.209   4.569  17.265  0.00  0.00    +0.000 A 
ATOM      6  C   UNL     1       5.457   5.102  16.808  0.00  0.00    +0.000 A 
ENDROOT
BRANCH   1   8
ATOM      7  C   UNL     1       7.541   7.916  17.512  0.00  0.00    +0.000 C 
ATOM      8  O   UNL     1       6.655   7.320  16.598  0.00  0.00    +0.000 OA
ENDBRANCH   1   8
BRANCH   3   9
ATOM      9  C   UNL     1       2.326   7.750  18.293  0.00  0.00    +0.000 C 
ATOM     10  C   UNL     1       2.159   8.975  17.754  0.00  0.00    +0.000 C 
BRANCH  10  11
ATOM     11  C   UNL     1       1.103   9.935  18.121  0.00  0.00    +0.000 A 
ATOM     12  C   UNL     1      -0.251   9.589  18.056  0.00  0.00    +0.000 A 
ATOM     13  C   UNL     1      -1.242  10.548  18.290  0.00  0.00    +0.000 A 
ATOM     14  C   UNL     1      -0.896  11.866  18.587  0.00  0.00    +0.000 A 
ATOM     15  C   UNL     1       0.447  12.225  18.661  0.00  0.00    +0.000 A 
ATOM     16  C   UNL     1       1.431  11.265  18.425  0.00  0.00    +0.000 A 
ATOM     17  F   UNL     1       2.715  11.645  18.485  0.00  0.00    +0.000 F 
ENDBRANCH  10  11
ENDBRANCH   3   9
BRANCH   4  18
ATOM     18  C   UNL     1       1.980   4.653  18.328  0.00  0.00    +0.000 C 
ATOM     19  O   UNL     1       1.151   4.104  17.622  0.00  0.00    +0.000 OA
BRANCH  18  20
ATOM     20  O   UNL     1       1.793   4.712  19.655  0.00  0.00    +0.000 OA
ATOM     21  H   UNL     1       1.002   4.152  19.809  0.00  0.00    +0.000 HD
ENDBRANCH  18  20
ENDBRANCH   4  18
BRANCH   5  22
ATOM     22  O   UNL     1       4.043   3.206  17.110  0.00  0.00    +0.000 OA
ATOM     23  H   UNL     1       3.296   2.886  17.667  0.00  0.00    +0.000 HD
ENDBRANCH   5  22
BRANCH   6  24
ATOM     24  C   UNL     1       6.440   4.102  16.225  0.00  0.00    +0.000 C 
BRANCH  24  25
ATOM     25  C   UNL     1       5.984   3.595  14.883  0.00  0.00    +0.000 C 
ATOM     26  C   UNL     1       6.357   4.036  13.667  0.00  0.00    +0.000 C 
ATOM     27  C   UNL     1       7.467   5.016  13.415  0.00  0.00    +0.000 C 
ATOM     28  C   UNL     1       5.623   3.578  12.436  0.00  0.00    +0.000 C 
ENDBRANCH  24  25
ENDBRANCH   6  24
TORSDOF 8
ENDMDL
MODEL 7
REMARK VINA RESULT:      -7.6      1.018      1.542
REMARK  Name = 
REMARK  11 active torsions:
REMARK  status: ('A' for Active; 'I' for Inactive)
REMARK    1  A    between atoms: C_1  and  O_2
REMARK    2  A    between atoms: O_2  and  C_3
REMARK    3  A    between atoms: C_5  and  C_6
REMARK    4  A    between atoms: C_7  and  C_8
REMARK    5  A    between atoms: C_15  and  C_16
REMARK    6  A    between atoms: C_16  and  O_18
REMARK    7  A    between atoms: C_19  and  O_20
REMARK    8  A    between atoms: C_21  and  C_22
REMARK    9  A    between atoms: C_22  and  C_23
REMARK   10  A    between atoms: C_24  and  C_25
REMARK   11  A    between atoms: C_24  and  C_26
REMARK                            x       y       z     vdW  Elec       q    Type
REMARK                         _______ _______ _______ _____ _____    ______ ____
ROOT
ATOM      1  C   UNL     1       5.460   6.328  16.896  0.00  0.00    +0.000 A 
ATOM      2  C   UNL     1       4.379   7.080  17.399  0.00  0.00    +0.000 A 
ATOM      3  C   UNL     1       3.162   6.534  17.834  0.00  0.00    +0.000 A 
ATOM      4  C   UNL     1       3.047   5.134  17.810  0.00  0.00    +0.000 A 
ATOM      5  C   UNL     1       4.112   4.364  17.271  0.00  0.00    +0.000 A 
ATOM      6  C   UNL     1       5.339   4.941  16.808  0.00  0.00    +0.000 A 
ENDROOT
BRANCH   1   8
ATOM      7  C   UNL     1       7.570   7.511  17.401  0.00  0.00    +0.000 C 
ATOM      8  O   UNL     1       6.459   7.199  16.598  0.00  0.00    +0.000 OA
ENDBRANCH   1   8
BRANCH   3   9
ATOM      9  C   UNL     1       2.126   7.477  18.317  0.00  0.00    +0.000 C 
ATOM     10  C   UNL     1       2.123   8.017  19.552  0.00  0.00    +0.000 C 
BRANCH  10  11
ATOM     11  C   UNL     1       1.178   9.040  20.035  0.00  0.00    +0.000 A 
ATOM     12  C   UNL     1       0.583   8.946  21.298  0.00  0.00    +0.000 A 
ATOM     13  C   UNL     1      -0.403   9.857  21.690  0.00  0.00    +0.000 A 
ATOM     14  C   UNL     1      -0.811  10.873  20.827  0.00  0.00    +0.000 A 
ATOM     15  C   UNL     1      -0.226  10.984  19.568  0.00  0.00    +0.000 A 
ATOM     16  C   UNL     1       0.754  10.071  19.181  0.00  0.00    +0.000 A 
ATOM     17  F   UNL     1       1.287  10.193  17.957  0.00  0.00    +0.000 F 
ENDBRANCH  10  11
ENDBRANCH   3   9
BRANCH   4  18
ATOM     18  C   UNL     1       1.888   4.369  18.346  0.00  0.00    +0.000 C 
ATOM     19  O   UNL     1       1.083   3.782  17.643  0.00  0.00    +0.000 OA
BRANCH  18  20
ATOM     20  O   UNL     1       1.696   4.432  19.672  0.00  0.00    +0.000 OA
ATOM     21  H   UNL     1       2.006   5.332  19.914  0.00  0.00    +0.000 HD
ENDBRANCH  18  20
ENDBRANCH   4  18
BRANCH   5  22
ATOM     22  O   UNL     1       3.992   2.997  17.114  0.00  0.00    +0.000 OA
ATOM     23  H   UNL     1       3.248   2.786  16.506  0.00  0.00    +0.000 HD
ENDBRANCH   5  22
BRANCH   6  24
ATOM     24  C   UNL     1       6.352   3.977  16.218  0.00  0.00    +0.000 C 
BRANCH  24  25
ATOM     25  C   UNL     1       5.952   3.529  14.838  0.00  0.00    +0.000 C 
ATOM     26  C   UNL     1       6.360   4.034  13.659  0.00  0.00    +0.000 C 
ATOM     27  C   UNL     1       7.461   5.041  13.493  0.00  0.00    +0.000 C 
ATOM     28  C   UNL     1       5.676   3.625  12.381  0.00  0.00    +0.000 C 
ENDBRANCH  24  25
ENDBRANCH   6  24
TORSDOF 8
ENDMDL
MODEL 8
REMARK VINA RESULT:      -7.5      3.421      6.868
REMARK  Name = 
REMARK  11 active torsions:
REMARK  status: ('A' for Active; 'I' for Inactive)
REMARK    1  A    between atoms: C_1  and  O_2
REMARK    2  A    between atoms: O_2  and  C_3
REMARK    3  A    between atoms: C_5  and  C_6
REMARK    4  A    between atoms: C_7  and  C_8
REMARK    5  A    between atoms: C_15  and  C_16
REMARK    6  A    between atoms: C_16  and  O_18
REMARK    7  A    between atoms: C_19  and  O_20
REMARK    8  A    between atoms: C_21  and  C_22
REMARK    9  A    between atoms: C_22  and  C_23
REMARK   10  A    between atoms: C_24  and  C_25
REMARK   11  A    between atoms: C_24  and  C_26
REMARK                            x       y       z     vdW  Elec       q    Type
REMARK                         _______ _______ _______ _____ _____    ______ ____
ROOT
ATOM      1  C   UNL     1       4.284   6.829  17.264  0.00  0.00    +0.000 A 
ATOM      2  C   UNL     1       5.454   7.607  17.380  0.00  0.00    +0.000 A 
ATOM      3  C   UNL     1       6.695   7.120  17.818  0.00  0.00    +0.000 A 
ATOM      4  C   UNL     1       6.775   5.748  18.107  0.00  0.00    +0.000 A 
ATOM      5  C   UNL     1       5.597   4.958  18.032  0.00  0.00    +0.000 A 
ATOM      6  C   UNL     1       4.332   5.478  17.607  0.00  0.00    +0.000 A 
ENDROOT
BRANCH   1   8
ATOM      7  C   UNL     1       2.413   8.415  17.565  0.00  0.00    +0.000 C 
ATOM      8  O   UNL     1       3.300   7.641  16.797  0.00  0.00    +0.000 OA
ENDBRANCH   1   8
BRANCH   3   9
ATOM      9  C   UNL     1       7.816   8.086  17.895  0.00  0.00    +0.000 C 
ATOM     10  C   UNL     1       7.651   9.414  18.052  0.00  0.00    +0.000 C 
BRANCH  10  11
ATOM     11  C   UNL     1       8.736  10.394  18.244  0.00  0.00    +0.000 A 
ATOM     12  C   UNL     1       9.808  10.136  19.106  0.00  0.00    +0.000 A 
ATOM     13  C   UNL     1      10.762  11.124  19.370  0.00  0.00    +0.000 A 
ATOM     14  C   UNL     1      10.658  12.384  18.781  0.00  0.00    +0.000 A 
ATOM     15  C   UNL     1       9.600  12.655  17.917  0.00  0.00    +0.000 A 
ATOM     16  C   UNL     1       8.650  11.667  17.659  0.00  0.00    +0.000 A 
ATOM     17  F   UNL     1       7.633  11.964  16.837  0.00  0.00    +0.000 F 
ENDBRANCH  10  11
ENDBRANCH   3   9
BRANCH   4  18
ATOM     18  C   UNL     1       8.029   5.028  18.462  0.00  0.00    +0.000 C 
ATOM     19  O   UNL     1       8.526   4.157  17.770  0.00  0.00    +0.000 OA
BRANCH  18  20
ATOM     20  O   UNL     1       8.558   5.312  19.662  0.00  0.00    +0.000 OA
ATOM     21  H   UNL     1       8.775   6.268  19.606  0.00  0.00    +0.000 HD
ENDBRANCH  18  20
ENDBRANCH   4  18
BRANCH   5  22
ATOM     22  O   UNL     1       5.603   3.634  18.426  0.00  0.00    +0.000 OA
ATOM     23  H   UNL     1       5.240   3.546  19.337  0.00  0.00    +0.000 HD
ENDBRANCH   5  22
BRANCH   6  24
ATOM     24  C   UNL     1       3.166   4.506  17.631  0.00  0.00    +0.000 C 
BRANCH  24  25
ATOM     25  C   UNL     1       2.595   4.359  19.017  0.00  0.00    +0.000 C 
ATOM     26  C   UNL     1       1.667   3.480  19.434  0.00  0.00    +0.000 C 
ATOM     27  C   UNL     1       1.149   2.329  18.620  0.00  0.00    +0.000 C 
ATOM     28  C   UNL     1       1.036   3.630  20.793  0.00  0.00    +0.000 C 
ENDBRANCH  24  25
ENDBRANCH   6  24
TORSDOF 8
ENDMDL
MODEL 9
REMARK VINA RESULT:      -7.4      3.395      6.937
REMARK  Name = 
REMARK  11 active torsions:
REMARK  status: ('A' for Active; 'I' for Inactive)
REMARK    1  A    between atoms: C_1  and  O_2
REMARK    2  A    between atoms: O_2  and  C_3
REMARK    3  A    between atoms: C_5  and  C_6
REMARK    4  A    between atoms: C_7  and  C_8
REMARK    5  A    between atoms: C_15  and  C_16
REMARK    6  A    between atoms: C_16  and  O_18
REMARK    7  A    between atoms: C_19  and  O_20
REMARK    8  A    between atoms: C_21  and  C_22
REMARK    9  A    between atoms: C_22  and  C_23
REMARK   10  A    between atoms: C_24  and  C_25
REMARK   11  A    between atoms: C_24  and  C_26
REMARK                            x       y       z     vdW  Elec       q    Type
REMARK                         _______ _______ _______ _____ _____    ______ ____
ROOT
ATOM      1  C   UNL     1       4.587   6.941  17.296  0.00  0.00    +0.000 A 
ATOM      2  C   UNL     1       5.776   7.663  17.521  0.00  0.00    +0.000 A 
ATOM      3  C   UNL     1       6.970   7.104  18.003  0.00  0.00    +0.000 A 
ATOM      4  C   UNL     1       6.979   5.717  18.223  0.00  0.00    +0.000 A 
ATOM      5  C   UNL     1       5.779   4.981  18.038  0.00  0.00    +0.000 A 
ATOM      6  C   UNL     1       4.562   5.574  17.568  0.00  0.00    +0.000 A 
ENDROOT
BRANCH   1   8
ATOM      7  C   UNL     1       2.587   8.374  17.525  0.00  0.00    +0.000 C 
ATOM      8  O   UNL     1       3.664   7.815  16.816  0.00  0.00    +0.000 OA
ENDBRANCH   1   8
BRANCH   3   9
ATOM      9  C   UNL     1       8.120   8.017  18.196  0.00  0.00    +0.000 C 
ATOM     10  C   UNL     1       8.025   9.361  18.154  0.00  0.00    +0.000 C 
BRANCH  10  11
ATOM     11  C   UNL     1       9.118  10.305  18.449  0.00  0.00    +0.000 A 
ATOM     12  C   UNL     1       9.891  10.868  17.428  0.00  0.00    +0.000 A 
ATOM     13  C   UNL     1      11.000  11.664  17.732  0.00  0.00    +0.000 A 
ATOM     14  C   UNL     1      11.356  11.906  19.058  0.00  0.00    +0.000 A 
ATOM     15  C   UNL     1      10.595  11.357  20.087  0.00  0.00    +0.000 A 
ATOM     16  C   UNL     1       9.491  10.562  19.778  0.00  0.00    +0.000 A 
ATOM     17  F   UNL     1       8.788  10.033  20.789  0.00  0.00    +0.000 F 
ENDBRANCH  10  11
ENDBRANCH   3   9
BRANCH   4  18
ATOM     18  C   UNL     1       8.181   4.928  18.612  0.00  0.00    +0.000 C 
ATOM     19  O   UNL     1       8.680   4.068  17.907  0.00  0.00    +0.000 OA
BRANCH  18  20
ATOM     20  O   UNL     1       8.653   5.136  19.850  0.00  0.00    +0.000 OA
ATOM     21  H   UNL     1       8.566   6.105  19.979  0.00  0.00    +0.000 HD
ENDBRANCH  18  20
ENDBRANCH   4  18
BRANCH   5  22
ATOM     22  O   UNL     1       5.710   3.640  18.361  0.00  0.00    +0.000 OA
ATOM     23  H   UNL     1       4.772   3.356  18.451  0.00  0.00    +0.000 HD
ENDBRANCH   5  22
BRANCH   6  24
ATOM     24  C   UNL     1       3.360   4.651  17.474  0.00  0.00    +0.000 C 
BRANCH  24  25
ATOM     25  C   UNL     1       2.480   4.760  18.690  0.00  0.00    +0.000 C 
ATOM     26  C   UNL     1       1.975   3.757  19.432  0.00  0.00    +0.000 C 
ATOM     27  C   UNL     1       2.356   2.312  19.292  0.00  0.00    +0.000 C 
ATOM     28  C   UNL     1       0.919   4.038  20.467  0.00  0.00    +0.000 C 
ENDBRANCH  24  25
ENDBRANCH   6  24
TORSDOF 8
ENDMDL
