MODEL 1
REMARK VINA RESULT:      -8.7      0.000      0.000
REMARK  Name = 
REMARK  5 active torsions:
REMARK  status: ('A' for Active; 'I' for Inactive)
REMARK    1  A    between atoms: N_1  and  C_2
REMARK    2  A    between atoms: C_3  and  C_4
REMARK    3  A    between atoms: C_4  and  C_6
REMARK    4  A    between atoms: C_12  and  C_13
REMARK    5  A    between atoms: C_20  and  C_21
REMARK                            x       y       z     vdW  Elec       q    Type
REMARK                         _______ _______ _______ _____ _____    ______ ____
ROOT
ATOM      1  C   UNL     1       4.768   4.045  18.683  0.00  0.00    +0.000 A 
ATOM      2  C   UNL     1       5.551   4.741  17.772  0.00  0.00    +0.000 A 
ATOM      3  S   UNL     1       5.026   6.380  17.661  0.00  0.00    +0.000 S 
ATOM      4  C   UNL     1       3.789   6.160  18.803  0.00  0.00    +0.000 A 
ATOM      5  N   UNL     1       3.001   7.201  19.150  0.00  0.00    +0.000 NA
ATOM      6  C   UNL     1       2.014   6.928  20.027  0.00  0.00    +0.000 A 
ATOM      7  C   UNL     1       1.811   5.651  20.532  0.00  0.00    +0.000 A 
ATOM      8  C   UNL     1       2.642   4.576  20.165  0.00  0.00    +0.000 A 
ATOM      9  C   UNL     1       3.710   4.851  19.269  0.00  0.00    +0.000 A 
ENDROOT
BRANCH   6  10
ATOM     10  C   UNL     1       1.174   8.067  20.470  0.00  0.00    +0.000 A 
ATOM     11  C   UNL     1       0.467   8.042  21.692  0.00  0.00    +0.000 A 
ATOM     12  C   UNL     1      -0.249   9.154  22.148  0.00  0.00    +0.000 A 
ATOM     13  C   UNL     1      -0.288  10.315  21.384  0.00  0.00    +0.000 A 
ATOM     14  C   UNL     1       0.377  10.359  20.163  0.00  0.00    +0.000 A 
ATOM     15  C   UNL     1       1.094   9.247  19.710  0.00  0.00    +0.000 A 
ENDBRANCH   6  10
BRANCH   8  16
ATOM     16  C   UNL     1       2.322   3.217  20.719  0.00  0.00    +0.000 C 
ATOM     17  F   UNL     1       2.078   2.280  19.763  0.00  0.00    +0.000 F 
ATOM     18  F   UNL     1       3.331   2.709  21.481  0.00  0.00    +0.000 F 
ATOM     19  F   UNL     1       1.222   3.219  21.524  0.00  0.00    +0.000 F 
ENDBRANCH   8  16
BRANCH   1  20
ATOM     20  N   UNL     1       4.938   2.737  18.987  0.00  0.00    +0.000 N 
ATOM     21  H   UNL     1       5.841   2.278  18.886  0.00  0.00    +0.000 HD
ATOM     22  H   UNL     1       4.181   2.058  18.965  0.00  0.00    +0.000 HD
ENDBRANCH   1  20
BRANCH   2  23
ATOM     23  C   UNL     1       6.681   4.365  16.923  0.00  0.00    +0.000 C 
ATOM     24  O   UNL     1       7.852   4.432  17.276  0.00  0.00    +0.000 OA
BRANCH  23  25
ATOM     25  C   UNL     1       6.371   3.812  15.553  0.00  0.00    +0.000 C 
ATOM     26  C   UNL     1       5.353   4.489  14.652  0.00  0.00    +0.000 C 
ATOM     27  C   UNL     1       6.812   4.603  14.331  0.00  0.00    +0.000 C 
ENDBRANCH  23  25
ENDBRANCH   2  23
TORSDOF 5
ENDMDL
MODEL 2
REMARK VINA RESULT:      -8.6      0.250      1.238
REMARK  Name = 
REMARK  5 active torsions:
REMARK  status: ('A' for Active; 'I' for Inactive)
REMARK    1  A    between atoms: N_1  and  C_2
REMARK    2  A    between atoms: C_3  and  C_4
REMARK    3  A    between atoms: C_4  and  C_6
REMARK    4  A    between atoms: C_12  and  C_13
REMARK    5  A    between atoms: C_20  and  C_21
REMARK                            x       y       z     vdW  Elec       q    Type
REMARK                         _______ _______ _______ _____ _____    ______ ____
ROOT
ATOM      1  C   UNL     1       4.819   4.119  18.545  0.00  0.00    +0.000 A 
ATOM      2  C   UNL     1       5.621   4.782  17.625  0.00  0.00    +0.000 A 
ATOM      3  S   UNL     1       5.140   6.433  17.493  0.00  0.00    +0.000 S 
ATOM      4  C   UNL     1       3.898   6.260  18.639  0.00  0.00    +0.000 A 
ATOM      5  N   UNL     1       3.139   7.327  18.972  0.00  0.00    +0.000 NA
ATOM      6  C   UNL     1       2.145   7.092  19.852  0.00  0.00    +0.000 A 
ATOM      7  C   UNL     1       1.907   5.827  20.374  0.00  0.00    +0.000 A 
ATOM      8  C   UNL     1       2.708   4.725  20.020  0.00  0.00    +0.000 A 
ATOM      9  C   UNL     1       3.783   4.960  19.120  0.00  0.00    +0.000 A 
ENDROOT
BRANCH   6  10
ATOM     10  C   UNL     1       1.336   8.258  20.281  0.00  0.00    +0.000 A 
ATOM     11  C   UNL     1       1.031   9.320  19.403  0.00  0.00    +0.000 A 
ATOM     12  C   UNL     1       0.192  10.372  19.785  0.00  0.00    +0.000 A 
ATOM     13  C   UNL     1      -0.353  10.395  21.064  0.00  0.00    +0.000 A 
ATOM     14  C   UNL     1      -0.049   9.375  21.960  0.00  0.00    +0.000 A 
ATOM     15  C   UNL     1       0.789   8.324  21.575  0.00  0.00    +0.000 A 
ENDBRANCH   6  10
BRANCH   8  16
ATOM     16  C   UNL     1       2.352   3.382  20.591  0.00  0.00    +0.000 C 
ATOM     17  F   UNL     1       3.330   2.840  21.365  0.00  0.00    +0.000 F 
ATOM     18  F   UNL     1       1.241   3.424  21.379  0.00  0.00    +0.000 F 
ATOM     19  F   UNL     1       2.084   2.454  19.630  0.00  0.00    +0.000 F 
ENDBRANCH   8  16
BRANCH   1  20
ATOM     20  N   UNL     1       4.953   2.810  18.865  0.00  0.00    +0.000 N 
ATOM     21  H   UNL     1       5.414   2.152  18.239  0.00  0.00    +0.000 HD
ATOM     22  H   UNL     1       4.326   2.326  19.504  0.00  0.00    +0.000 HD
ENDBRANCH   1  20
BRANCH   2  23
ATOM     23  C   UNL     1       6.739   4.365  16.781  0.00  0.00    +0.000 C 
ATOM     24  O   UNL     1       7.913   4.409  17.131  0.00  0.00    +0.000 OA
BRANCH  23  25
ATOM     25  C   UNL     1       6.414   3.796  15.420  0.00  0.00    +0.000 C 
ATOM     26  C   UNL     1       5.358   4.441  14.540  0.00  0.00    +0.000 C 
ATOM     27  C   UNL     1       6.806   4.593  14.186  0.00  0.00    +0.000 C 
ENDBRANCH  23  25
ENDBRANCH   2  23
TORSDOF 5
ENDMDL
MODEL 3
REMARK VINA RESULT:      -8.4      1.504      2.099
REMARK  Name = 
REMARK  5 active torsions:
REMARK  status: ('A' for Active; 'I' for Inactive)
REMARK    1  A    between atoms: N_1  and  C_2
REMARK    2  A    between atoms: C_3  and  C_4
REMARK    3  A    between atoms: C_4  and  C_6
REMARK    4  A    between atoms: C_12  and  C_13
REMARK    5  A    between atoms: C_20  and  C_21
REMARK                            x       y       z     vdW  Elec       q    Type
REMARK                         _______ _______ _______ _____ _____    ______ ____
ROOT
ATOM      1  C   UNL     1       4.872   4.220  16.689  0.00  0.00    +0.000 A 
ATOM      2  C   UNL     1       5.611   5.019  15.826  0.00  0.00    +0.000 A 
ATOM      3  S   UNL     1       5.210   6.680  16.058  0.00  0.00    +0.000 S 
ATOM      4  C   UNL     1       4.083   6.335  17.280  0.00  0.00    +0.000 A 
ATOM      5  N   UNL     1       3.421   7.344  17.887  0.00  0.00    +0.000 NA
ATOM      6  C   UNL     1       2.509   6.980  18.812  0.00  0.00    +0.000 A 
ATOM      7  C   UNL     1       2.257   5.648  19.112  0.00  0.00    +0.000 A 
ATOM      8  C   UNL     1       2.957   4.607  18.473  0.00  0.00    +0.000 A 
ATOM      9  C   UNL     1       3.947   4.972  17.521  0.00  0.00    +0.000 A 
ENDROOT
BRANCH   6  10
ATOM     10  C   UNL     1       1.813   8.070  19.536  0.00  0.00    +0.000 A 
ATOM     11  C   UNL     1       1.414   9.260  18.891  0.00  0.00    +0.000 A 
ATOM     12  C   UNL     1       0.676  10.245  19.556  0.00  0.00    +0.000 A 
ATOM     13  C   UNL     1       0.332  10.070  20.892  0.00  0.00    +0.000 A 
ATOM     14  C   UNL     1       0.735   8.919  21.561  0.00  0.00    +0.000 A 
ATOM     15  C   UNL     1       1.470   7.935  20.893  0.00  0.00    +0.000 A 
ENDBRANCH   6  10
BRANCH   8  16
ATOM     16  C   UNL     1       2.587   3.193  18.820  0.00  0.00    +0.000 C 
ATOM     17  F   UNL     1       3.602   2.485  19.386  0.00  0.00    +0.000 F 
ATOM     18  F   UNL     1       1.553   3.121  19.704  0.00  0.00    +0.000 F 
ATOM     19  F   UNL     1       2.191   2.469  17.736  0.00  0.00    +0.000 F 
ENDBRANCH   8  16
BRANCH   1  20
ATOM     20  N   UNL     1       4.966   2.871  16.744  0.00  0.00    +0.000 N 
ATOM     21  H   UNL     1       4.817   2.292  15.920  0.00  0.00    +0.000 HD
ATOM     22  H   UNL     1       4.814   2.337  17.596  0.00  0.00    +0.000 HD
ENDBRANCH   1  20
BRANCH   2  23
ATOM     23  C   UNL     1       6.614   4.732  14.802  0.00  0.00    +0.000 C 
ATOM     24  O   UNL     1       7.699   5.298  14.731  0.00  0.00    +0.000 OA
BRANCH  23  25
ATOM     25  C   UNL     1       6.308   3.633  13.812  0.00  0.00    +0.000 C 
ATOM     26  C   UNL     1       5.152   3.765  12.837  0.00  0.00    +0.000 C 
ATOM     27  C   UNL     1       6.558   3.894  12.335  0.00  0.00    +0.000 C 
ENDBRANCH  23  25
ENDBRANCH   2  23
TORSDOF 5
ENDMDL
MODEL 4
REMARK VINA RESULT:      -8.3      1.560      1.820
REMARK  Name = 
REMARK  5 active torsions:
REMARK  status: ('A' for Active; 'I' for Inactive)
REMARK    1  A    between atoms: N_1  and  C_2
REMARK    2  A    between atoms: C_3  and  C_4
REMARK    3  A    between atoms: C_4  and  C_6
REMARK    4  A    between atoms: C_12  and  C_13
REMARK    5  A    between atoms: C_20  and  C_21
REMARK                            x       y       z     vdW  Elec       q    Type
REMARK                         _______ _______ _______ _____ _____    ______ ____
ROOT
ATOM      1  C   UNL     1       4.915   4.235  16.607  0.00  0.00    +0.000 A 
ATOM      2  C   UNL     1       5.638   5.041  15.738  0.00  0.00    +0.000 A 
ATOM      3  S   UNL     1       5.214   6.697  15.966  0.00  0.00    +0.000 S 
ATOM      4  C   UNL     1       4.097   6.340  17.194  0.00  0.00    +0.000 A 
ATOM      5  N   UNL     1       3.422   7.340  17.800  0.00  0.00    +0.000 NA
ATOM      6  C   UNL     1       2.520   6.966  18.730  0.00  0.00    +0.000 A 
ATOM      7  C   UNL     1       2.289   5.631  19.036  0.00  0.00    +0.000 A 
ATOM      8  C   UNL     1       3.001   4.599  18.398  0.00  0.00    +0.000 A 
ATOM      9  C   UNL     1       3.982   4.975  17.440  0.00  0.00    +0.000 A 
ENDROOT
BRANCH   6  10
ATOM     10  C   UNL     1       1.810   8.049  19.453  0.00  0.00    +0.000 A 
ATOM     11  C   UNL     1       1.495   7.948  20.826  0.00  0.00    +0.000 A 
ATOM     12  C   UNL     1       0.909   9.008  21.524  0.00  0.00    +0.000 A 
ATOM     13  C   UNL     1       0.609  10.194  20.862  0.00  0.00    +0.000 A 
ATOM     14  C   UNL     1       0.884  10.312  19.504  0.00  0.00    +0.000 A 
ATOM     15  C   UNL     1       1.473   9.251  18.808  0.00  0.00    +0.000 A 
ENDBRANCH   6  10
BRANCH   8  16
ATOM     16  C   UNL     1       2.654   3.181  18.751  0.00  0.00    +0.000 C 
ATOM     17  F   UNL     1       2.264   2.431  17.685  0.00  0.00    +0.000 F 
ATOM     18  F   UNL     1       3.699   2.507  19.309  0.00  0.00    +0.000 F 
ATOM     19  F   UNL     1       1.639   3.095  19.655  0.00  0.00    +0.000 F 
ENDBRANCH   8  16
BRANCH   1  20
ATOM     20  N   UNL     1       5.029   2.887  16.666  0.00  0.00    +0.000 N 
ATOM     21  H   UNL     1       5.678   2.380  16.067  0.00  0.00    +0.000 HD
ATOM     22  H   UNL     1       4.280   2.278  16.988  0.00  0.00    +0.000 HD
ENDBRANCH   1  20
BRANCH   2  23
ATOM     23  C   UNL     1       6.641   4.765  14.711  0.00  0.00    +0.000 C 
ATOM     24  O   UNL     1       7.709   5.360  14.623  0.00  0.00    +0.000 OA
BRANCH  23  25
ATOM     25  C   UNL     1       6.358   3.643  13.741  0.00  0.00    +0.000 C 
ATOM     26  C   UNL     1       5.199   3.733  12.764  0.00  0.00    +0.000 C 
ATOM     27  C   UNL     1       6.601   3.883  12.259  0.00  0.00    +0.000 C 
ENDBRANCH  23  25
ENDBRANCH   2  23
TORSDOF 5
ENDMDL
MODEL 5
REMARK VINA RESULT:      -8.2      1.007      1.416
REMARK  Name = 
REMARK  5 active torsions:
REMARK  status: ('A' for Active; 'I' for Inactive)
REMARK    1  A    between atoms: N_1  and  C_2
REMARK    2  A    between atoms: C_3  and  C_4
REMARK    3  A    between atoms: C_4  and  C_6
REMARK    4  A    between atoms: C_12  and  C_13
REMARK    5  A    between atoms: C_20  and  C_21
REMARK                            x       y       z     vdW  Elec       q    Type
REMARK                         _______ _______ _______ _____ _____    ______ ____
ROOT
ATOM      1  C   UNL     1       4.731   4.400  17.924  0.00  0.00    +0.000 A 
ATOM      2  C   UNL     1       5.625   4.948  17.014  0.00  0.00    +0.000 A 
ATOM      3  S   UNL     1       5.285   6.622  16.775  0.00  0.00    +0.000 S 
ATOM      4  C   UNL     1       3.981   6.609  17.863  0.00  0.00    +0.000 A 
ATOM      5  N   UNL     1       3.295   7.748  18.103  0.00  0.00    +0.000 NA
ATOM      6  C   UNL     1       2.246   7.639  18.942  0.00  0.00    +0.000 A 
ATOM      7  C   UNL     1       1.884   6.427  19.514  0.00  0.00    +0.000 A 
ATOM      8  C   UNL     1       2.609   5.249  19.258  0.00  0.00    +0.000 A 
ATOM      9  C   UNL     1       3.740   5.350  18.403  0.00  0.00    +0.000 A 
ENDROOT
BRANCH   6  10
ATOM     10  C   UNL     1       1.514   8.887  19.270  0.00  0.00    +0.000 A 
ATOM     11  C   UNL     1       0.904   9.086  20.527  0.00  0.00    +0.000 A 
ATOM     12  C   UNL     1       0.295  10.300  20.863  0.00  0.00    +0.000 A 
ATOM     13  C   UNL     1       0.269  11.342  19.943  0.00  0.00    +0.000 A 
ATOM     14  C   UNL     1       0.839  11.164  18.686  0.00  0.00    +0.000 A 
ATOM     15  C   UNL     1       1.450   9.951  18.354  0.00  0.00    +0.000 A 
ENDBRANCH   6  10
BRANCH   8  16
ATOM     16  C   UNL     1       2.120   3.971  19.877  0.00  0.00    +0.000 C 
ATOM     17  F   UNL     1       1.016   4.128  20.657  0.00  0.00    +0.000 F 
ATOM     18  F   UNL     1       1.781   3.033  18.949  0.00  0.00    +0.000 F 
ATOM     19  F   UNL     1       3.053   3.378  20.673  0.00  0.00    +0.000 F 
ENDBRANCH   8  16
BRANCH   1  20
ATOM     20  N   UNL     1       4.745   3.105  18.317  0.00  0.00    +0.000 N 
ATOM     21  H   UNL     1       4.287   2.377  17.771  0.00  0.00    +0.000 HD
ATOM     22  H   UNL     1       4.852   2.819  19.287  0.00  0.00    +0.000 HD
ENDBRANCH   1  20
BRANCH   2  23
ATOM     23  C   UNL     1       6.745   4.400  16.250  0.00  0.00    +0.000 C 
ATOM     24  O   UNL     1       7.910   4.430  16.629  0.00  0.00    +0.000 OA
BRANCH  23  25
ATOM     25  C   UNL     1       6.428   3.709  14.945  0.00  0.00    +0.000 C 
ATOM     26  C   UNL     1       5.347   4.245  14.023  0.00  0.00    +0.000 C 
ATOM     27  C   UNL     1       6.787   4.411  13.644  0.00  0.00    +0.000 C 
ENDBRANCH  23  25
ENDBRANCH   2  23
TORSDOF 5
ENDMDL
MODEL 6
REMARK VINA RESULT:      -8.1      1.052      1.216
REMARK  Name = 
REMARK  5 active torsions:
REMARK  status: ('A' for Active; 'I' for Inactive)
REMARK    1  A    between atoms: N_1  and  C_2
REMARK    2  A    between atoms: C_3  and  C_4
REMARK    3  A    between atoms: C_4  and  C_6
REMARK    4  A    between atoms: C_12  and  C_13
REMARK    5  A    between atoms: C_20  and  C_21
REMARK                            x       y       z     vdW  Elec       q    Type
REMARK                         _______ _______ _______ _____ _____    ______ ____
ROOT
ATOM      1  C   UNL     1       4.607   4.285  17.418  0.00  0.00    +0.000 A 
ATOM      2  C   UNL     1       5.457   5.069  16.648  0.00  0.00    +0.000 A 
ATOM      3  S   UNL     1       5.117   6.741  16.896  0.00  0.00    +0.000 S 
ATOM      4  C   UNL     1       3.870   6.420  18.003  0.00  0.00    +0.000 A 
ATOM      5  N   UNL     1       3.205   7.444  18.582  0.00  0.00    +0.000 NA
ATOM      6  C   UNL     1       2.200   7.101  19.411  0.00  0.00    +0.000 A 
ATOM      7  C   UNL     1       1.858   5.776  19.646  0.00  0.00    +0.000 A 
ATOM      8  C   UNL     1       2.562   4.719  19.039  0.00  0.00    +0.000 A 
ATOM      9  C   UNL     1       3.649   5.060  18.189  0.00  0.00    +0.000 A 
ENDROOT
BRANCH   6  10
ATOM     10  C   UNL     1       1.494   8.206  20.106  0.00  0.00    +0.000 A 
ATOM     11  C   UNL     1       1.198   8.152  21.485  0.00  0.00    +0.000 A 
ATOM     12  C   UNL     1       0.615   9.234  22.154  0.00  0.00    +0.000 A 
ATOM     13  C   UNL     1       0.301  10.394  21.455  0.00  0.00    +0.000 A 
ATOM     14  C   UNL     1       0.558  10.465  20.089  0.00  0.00    +0.000 A 
ATOM     15  C   UNL     1       1.142   9.383  19.424  0.00  0.00    +0.000 A 
ENDBRANCH   6  10
BRANCH   8  16
ATOM     16  C   UNL     1       2.096   3.317  19.308  0.00  0.00    +0.000 C 
ATOM     17  F   UNL     1       1.760   2.627  18.184  0.00  0.00    +0.000 F 
ATOM     18  F   UNL     1       3.040   2.560  19.933  0.00  0.00    +0.000 F 
ATOM     19  F   UNL     1       0.998   3.269  20.113  0.00  0.00    +0.000 F 
ENDBRANCH   8  16
BRANCH   1  20
ATOM     20  N   UNL     1       4.632   2.932  17.438  0.00  0.00    +0.000 N 
ATOM     21  H   UNL     1       4.368   2.381  16.624  0.00  0.00    +0.000 HD
ATOM     22  H   UNL     1       4.538   2.386  18.292  0.00  0.00    +0.000 HD
ENDBRANCH   1  20
BRANCH   2  23
ATOM     23  C   UNL     1       6.532   4.760  15.707  0.00  0.00    +0.000 C 
ATOM     24  O   UNL     1       7.632   4.335  16.042  0.00  0.00    +0.000 OA
BRANCH  23  25
ATOM     25  C   UNL     1       6.241   4.924  14.234  0.00  0.00    +0.000 C 
ATOM     26  C   UNL     1       7.210   4.407  13.187  0.00  0.00    +0.000 C 
ATOM     27  C   UNL     1       5.917   3.685  13.414  0.00  0.00    +0.000 C 
ENDBRANCH  23  25
ENDBRANCH   2  23
TORSDOF 5
ENDMDL
MODEL 7
REMARK VINA RESULT:      -8.1      0.962      1.599
REMARK  Name = 
REMARK  5 active torsions:
REMARK  status: ('A' for Active; 'I' for Inactive)
REMARK    1  A    between atoms: N_1  and  C_2
REMARK    2  A    between atoms: C_3  and  C_4
REMARK    3  A    between atoms: C_4  and  C_6
REMARK    4  A    between atoms: C_12  and  C_13
REMARK    5  A    between atoms: C_20  and  C_21
REMARK                            x       y       z     vdW  Elec       q    Type
REMARK                         _______ _______ _______ _____ _____    ______ ____
ROOT
ATOM      1  C   UNL     1       4.766   4.389  17.945  0.00  0.00    +0.000 A 
ATOM      2  C   UNL     1       5.718   5.008  17.145  0.00  0.00    +0.000 A 
ATOM      3  S   UNL     1       5.396   6.699  17.031  0.00  0.00    +0.000 S 
ATOM      4  C   UNL     1       4.024   6.600  18.027  0.00  0.00    +0.000 A 
ATOM      5  N   UNL     1       3.326   7.719  18.321  0.00  0.00    +0.000 NA
ATOM      6  C   UNL     1       2.224   7.544  19.078  0.00  0.00    +0.000 A 
ATOM      7  C   UNL     1       1.823   6.290  19.517  0.00  0.00    +0.000 A 
ATOM      8  C   UNL     1       2.563   5.133  19.207  0.00  0.00    +0.000 A 
ATOM      9  C   UNL     1       3.747   5.301  18.439  0.00  0.00    +0.000 A 
ENDROOT
BRANCH   6  10
ATOM     10  C   UNL     1       1.474   8.764  19.465  0.00  0.00    +0.000 A 
ATOM     11  C   UNL     1       1.122   9.755  18.523  0.00  0.00    +0.000 A 
ATOM     12  C   UNL     1       0.336  10.857  18.876  0.00  0.00    +0.000 A 
ATOM     13  C   UNL     1      -0.107  11.002  20.186  0.00  0.00    +0.000 A 
ATOM     14  C   UNL     1       0.247  10.055  21.141  0.00  0.00    +0.000 A 
ATOM     15  C   UNL     1       1.031   8.953  20.786  0.00  0.00    +0.000 A 
ENDBRANCH   6  10
BRANCH   8  16
ATOM     16  C   UNL     1       2.033   3.810  19.679  0.00  0.00    +0.000 C 
ATOM     17  F   UNL     1       0.841   3.898  20.329  0.00  0.00    +0.000 F 
ATOM     18  F   UNL     1       1.829   2.930  18.659  0.00  0.00    +0.000 F 
ATOM     19  F   UNL     1       2.878   3.180  20.542  0.00  0.00    +0.000 F 
ENDBRANCH   8  16
BRANCH   1  20
ATOM     20  N   UNL     1       4.753   3.065  18.223  0.00  0.00    +0.000 N 
ATOM     21  H   UNL     1       5.361   2.662  18.933  0.00  0.00    +0.000 HD
ATOM     22  H   UNL     1       4.460   2.358  17.552  0.00  0.00    +0.000 HD
ENDBRANCH   1  20
BRANCH   2  23
ATOM     23  C   UNL     1       6.884   4.520  16.410  0.00  0.00    +0.000 C 
ATOM     24  O   UNL     1       8.020   4.495  16.871  0.00  0.00    +0.000 OA
BRANCH  23  25
ATOM     25  C   UNL     1       6.656   3.967  15.024  0.00  0.00    +0.000 C 
ATOM     26  C   UNL     1       5.418   4.345  14.230  0.00  0.00    +0.000 C 
ATOM     27  C   UNL     1       6.747   4.913  13.838  0.00  0.00    +0.000 C 
ENDBRANCH  23  25
ENDBRANCH   2  23
TORSDOF 5
ENDMDL
MODEL 8
REMARK VINA RESULT:      -8.0      1.165      1.920
REMARK  Name = 
REMARK  5 active torsions:
REMARK  status: ('A' for Active; 'I' for Inactive)
REMARK    1  A    between atoms: N_1  and  C_2
REMARK    2  A    between atoms: C_3  and  C_4
REMARK    3  A    between atoms: C_4  and  C_6
REMARK    4  A    between atoms: C_12  and  C_13
REMARK    5  A    between atoms: C_20  and  C_21
REMARK                            x       y       z     vdW  Elec       q    Type
REMARK                         _______ _______ _______ _____ _____    ______ ____
ROOT
ATOM      1  C   UNL     1       4.038   4.511  18.196  0.00  0.00    +0.000 A 
ATOM      2  C   UNL     1       4.654   5.242  17.190  0.00  0.00    +0.000 A 
ATOM      3  S   UNL     1       4.169   6.896  17.268  0.00  0.00    +0.000 S 
ATOM      4  C   UNL     1       3.167   6.636  18.613  0.00  0.00    +0.000 A 
ATOM      5  N   UNL     1       2.493   7.671  19.159  0.00  0.00    +0.000 NA
ATOM      6  C   UNL     1       1.683   7.369  20.193  0.00  0.00    +0.000 A 
ATOM      7  C   UNL     1       1.539   6.070  20.661  0.00  0.00    +0.000 A 
ATOM      8  C   UNL     1       2.250   5.000  20.085  0.00  0.00    +0.000 A 
ATOM      9  C   UNL     1       3.136   5.305  19.016  0.00  0.00    +0.000 A 
ENDROOT
BRANCH   6  10
ATOM     10  C   UNL     1       0.979   8.498  20.849  0.00  0.00    +0.000 A 
ATOM     11  C   UNL     1       0.425   9.564  20.108  0.00  0.00    +0.000 A 
ATOM     12  C   UNL     1      -0.317  10.578  20.723  0.00  0.00    +0.000 A 
ATOM     13  C   UNL     1      -0.512  10.558  22.100  0.00  0.00    +0.000 A 
ATOM     14  C   UNL     1       0.045   9.533  22.858  0.00  0.00    +0.000 A 
ATOM     15  C   UNL     1       0.784   8.520  22.241  0.00  0.00    +0.000 A 
ENDBRANCH   6  10
BRANCH   8  16
ATOM     16  C   UNL     1       1.999   3.619  20.618  0.00  0.00    +0.000 C 
ATOM     17  F   UNL     1       1.067   3.575  21.608  0.00  0.00    +0.000 F 
ATOM     18  F   UNL     1       1.555   2.758  19.660  0.00  0.00    +0.000 F 
ATOM     19  F   UNL     1       3.118   3.041  21.137  0.00  0.00    +0.000 F 
ENDBRANCH   8  16
BRANCH   1  20
ATOM     20  N   UNL     1       4.221   3.184  18.393  0.00  0.00    +0.000 N 
ATOM     21  H   UNL     1       4.106   2.512  17.637  0.00  0.00    +0.000 HD
ATOM     22  H   UNL     1       4.108   2.736  19.299  0.00  0.00    +0.000 HD
ENDBRANCH   1  20
BRANCH   2  23
ATOM     23  C   UNL     1       5.589   4.892  16.121  0.00  0.00    +0.000 C 
ATOM     24  O   UNL     1       5.246   4.434  15.037  0.00  0.00    +0.000 OA
BRANCH  23  25
ATOM     25  C   UNL     1       7.055   5.166  16.357  0.00  0.00    +0.000 C 
ATOM     26  C   UNL     1       7.511   5.976  17.558  0.00  0.00    +0.000 C 
ATOM     27  C   UNL     1       7.740   4.496  17.539  0.00  0.00    +0.000 C 
ENDBRANCH  23  25
ENDBRANCH   2  23
TORSDOF 5
ENDMDL
MODEL 9
REMARK VINA RESULT:      -7.8      1.562      2.037
REMARK  Name = 
REMARK  5 active torsions:
REMARK  status: ('A' for Active; 'I' for Inactive)
REMARK    1  A    between atoms: N_1  and  C_2
REMARK    2  A    between atoms: C_3  and  C_4
REMARK    3  A    between atoms: C_4  and  C_6
REMARK    4  A    between atoms: C_12  and  C_13
REMARK    5  A    between atoms: C_20  and  C_21
REMARK                            x       y       z     vdW  Elec       q    Type
REMARK                         _______ _______ _______ _____ _____    ______ ____
ROOT
ATOM      1  C   UNL     1       4.738   4.794  18.000  0.00  0.00    +0.000 A 
ATOM      2  C   UNL     1       5.655   5.161  17.024  0.00  0.00    +0.000 A 
ATOM      3  S   UNL     1       5.342   6.769  16.485  0.00  0.00    +0.000 S 
ATOM      4  C   UNL     1       4.020   6.964  17.533  0.00  0.00    +0.000 A 
ATOM      5  N   UNL     1       3.347   8.135  17.553  0.00  0.00    +0.000 NA
ATOM      6  C   UNL     1       2.282   8.189  18.378  0.00  0.00    +0.000 A 
ATOM      7  C   UNL     1       1.893   7.102  19.150  0.00  0.00    +0.000 A 
ATOM      8  C   UNL     1       2.606   5.889  19.121  0.00  0.00    +0.000 A 
ATOM      9  C   UNL     1       3.753   5.824  18.284  0.00  0.00    +0.000 A 
ENDROOT
BRANCH   6  10
ATOM     10  C   UNL     1       1.563   9.482  18.465  0.00  0.00    +0.000 A 
ATOM     11  C   UNL     1       0.190   9.554  18.785  0.00  0.00    +0.000 A 
ATOM     12  C   UNL     1      -0.462  10.780  18.956  0.00  0.00    +0.000 A 
ATOM     13  C   UNL     1       0.242  11.968  18.796  0.00  0.00    +0.000 A 
ATOM     14  C   UNL     1       1.591  11.928  18.455  0.00  0.00    +0.000 A 
ATOM     15  C   UNL     1       2.240  10.701  18.287  0.00  0.00    +0.000 A 
ENDBRANCH   6  10
BRANCH   8  16
ATOM     16  C   UNL     1       2.088   4.747  19.948  0.00  0.00    +0.000 C 
ATOM     17  F   UNL     1       2.953   4.336  20.915  0.00  0.00    +0.000 F 
ATOM     18  F   UNL     1       0.930   5.051  20.598  0.00  0.00    +0.000 F 
ATOM     19  F   UNL     1       1.810   3.639  19.205  0.00  0.00    +0.000 F 
ENDBRANCH   8  16
BRANCH   1  20
ATOM     20  N   UNL     1       4.727   3.588  18.617  0.00  0.00    +0.000 N 
ATOM     21  H   UNL     1       4.656   3.508  19.630  0.00  0.00    +0.000 HD
ATOM     22  H   UNL     1       5.145   2.753  18.214  0.00  0.00    +0.000 HD
ENDBRANCH   1  20
BRANCH   2  23
ATOM     23  C   UNL     1       6.779   4.473  16.392  0.00  0.00    +0.000 C 
ATOM     24  O   UNL     1       7.900   4.402  16.882  0.00  0.00    +0.000 OA
BRANCH  23  25
ATOM     25  C   UNL     1       6.518   3.764  15.084  0.00  0.00    +0.000 C 
ATOM     26  C   UNL     1       5.399   4.217  14.163  0.00  0.00    +0.000 C 
ATOM     27  C   UNL     1       6.822   4.497  13.786  0.00  0.00    +0.000 C 
ENDBRANCH  23  25
ENDBRANCH   2  23
TORSDOF 5
ENDMDL
