MODEL 1
REMARK VINA RESULT:      -8.4      0.000      0.000
REMARK  Name = 
REMARK  6 active torsions:
REMARK  status: ('A' for Active; 'I' for Inactive)
REMARK    1  A    between atoms: C_1  and  C_2
REMARK    2  A    between atoms: C_5  and  N_6
REMARK    3  A    between atoms: C_8  and  C_9
REMARK    4  A    between atoms: C_9  and  N_10
REMARK    5  A    between atoms: C_13  and  C_14
REMARK    6  A    between atoms: C_22  and  C_23
REMARK                            x       y       z     vdW  Elec       q    Type
REMARK                         _______ _______ _______ _____ _____    ______ ____
ROOT
ATOM      1  N   UNL     1       2.457   6.927  19.382  0.00  0.00    +0.000 N 
ATOM      2  C   UNL     1       2.425   5.672  19.943  0.00  0.00    +0.000 A 
ATOM      3  C   UNL     1       3.261   4.863  19.209  0.00  0.00    +0.000 A 
ATOM      4  C   UNL     1       3.846   5.737  18.238  0.00  0.00    +0.000 A 
ATOM      5  N   UNL     1       3.300   6.966  18.316  0.00  0.00    +0.000 NA
ENDROOT
BRANCH   1  10
ATOM      6  C   UNL     1      -0.482  11.587  21.043  0.00  0.00    +0.000 C 
ATOM      7  C   UNL     1       0.262  10.344  20.634  0.00  0.00    +0.000 A 
ATOM      8  C   UNL     1       0.739  10.241  19.322  0.00  0.00    +0.000 A 
ATOM      9  C   UNL     1       1.456   9.117  18.908  0.00  0.00    +0.000 A 
ATOM     10  C   UNL     1       1.700   8.063  19.797  0.00  0.00    +0.000 A 
ATOM     11  C   UNL     1       1.207   8.147  21.106  0.00  0.00    +0.000 A 
ATOM     12  C   UNL     1       0.504   9.290  21.540  0.00  0.00    +0.000 A 
ATOM     13  C   UNL     1       0.044   9.378  22.969  0.00  0.00    +0.000 C 
ENDBRANCH   1  10
BRANCH   4  14
ATOM     14  C   UNL     1       4.865   5.400  17.234  0.00  0.00    +0.000 A 
ATOM     15  C   UNL     1       4.640   4.431  16.249  0.00  0.00    +0.000 A 
ATOM     16  C   UNL     1       5.665   4.061  15.371  0.00  0.00    +0.000 A 
ATOM     17  C   UNL     1       6.928   4.646  15.468  0.00  0.00    +0.000 A 
ATOM     18  C   UNL     1       7.155   5.641  16.410  0.00  0.00    +0.000 A 
ATOM     19  C   UNL     1       6.122   6.030  17.261  0.00  0.00    +0.000 A 
ENDBRANCH   4  14
BRANCH   3  20
ATOM     20  C   UNL     1       3.451   3.398  19.406  0.00  0.00    +0.000 C 
BRANCH  20  21
ATOM     21  N   UNL     1       4.861   3.073  19.642  0.00  0.00    +0.000 NA
ATOM     22  N   UNL     1       5.079   2.182  20.474  0.00  0.00    +0.000 NA
ATOM     23  N   UNL     1       5.277   1.353  21.235  0.00  0.00    +0.000 NA
ENDBRANCH  20  21
ENDBRANCH   3  20
TORSDOF 4
ENDMDL
MODEL 2
REMARK VINA RESULT:      -8.4      1.435      1.870
REMARK  Name = 
REMARK  6 active torsions:
REMARK  status: ('A' for Active; 'I' for Inactive)
REMARK    1  A    between atoms: C_1  and  C_2
REMARK    2  A    between atoms: C_5  and  N_6
REMARK    3  A    between atoms: C_8  and  C_9
REMARK    4  A    between atoms: C_9  and  N_10
REMARK    5  A    between atoms: C_13  and  C_14
REMARK    6  A    between atoms: C_22  and  C_23
REMARK                            x       y       z     vdW  Elec       q    Type
REMARK                         _______ _______ _______ _____ _____    ______ ____
ROOT
ATOM      1  N   UNL     1       2.462   6.642  19.670  0.00  0.00    +0.000 N 
ATOM      2  C   UNL     1       2.320   5.419  20.282  0.00  0.00    +0.000 A 
ATOM      3  C   UNL     1       3.174   4.538  19.661  0.00  0.00    +0.000 A 
ATOM      4  C   UNL     1       3.881   5.335  18.706  0.00  0.00    +0.000 A 
ATOM      5  N   UNL     1       3.393   6.590  18.681  0.00  0.00    +0.000 NA
ENDROOT
BRANCH   1  10
ATOM      6  C   UNL     1      -0.373  11.507  20.854  0.00  0.00    +0.000 C 
ATOM      7  C   UNL     1       0.341  10.213  20.570  0.00  0.00    +0.000 A 
ATOM      8  C   UNL     1       0.890  10.008  19.299  0.00  0.00    +0.000 A 
ATOM      9  C   UNL     1       1.582   8.834  19.000  0.00  0.00    +0.000 A 
ATOM     10  C   UNL     1       1.729   7.830  19.966  0.00  0.00    +0.000 A 
ATOM     11  C   UNL     1       1.164   8.017  21.235  0.00  0.00    +0.000 A 
ATOM     12  C   UNL     1       0.485   9.212  21.553  0.00  0.00    +0.000 A 
ATOM     13  C   UNL     1      -0.055   9.408  22.943  0.00  0.00    +0.000 C 
ENDBRANCH   1  10
BRANCH   4  14
ATOM     14  C   UNL     1       4.964   4.904  17.810  0.00  0.00    +0.000 A 
ATOM     15  C   UNL     1       6.310   4.972  18.191  0.00  0.00    +0.000 A 
ATOM     16  C   UNL     1       7.322   4.649  17.280  0.00  0.00    +0.000 A 
ATOM     17  C   UNL     1       7.007   4.261  15.977  0.00  0.00    +0.000 A 
ATOM     18  C   UNL     1       5.676   4.145  15.597  0.00  0.00    +0.000 A 
ATOM     19  C   UNL     1       4.670   4.436  16.517  0.00  0.00    +0.000 A 
ENDBRANCH   4  14
BRANCH   3  20
ATOM     20  C   UNL     1       3.274   3.077  19.939  0.00  0.00    +0.000 C 
BRANCH  20  21
ATOM     21  N   UNL     1       2.752   2.287  18.820  0.00  0.00    +0.000 NA
ATOM     22  N   UNL     1       1.520   2.270  18.698  0.00  0.00    +0.000 NA
ATOM     23  N   UNL     1       0.384   2.264  18.581  0.00  0.00    +0.000 NA
ENDBRANCH  20  21
ENDBRANCH   3  20
TORSDOF 4
ENDMDL
MODEL 3
REMARK VINA RESULT:      -8.3      0.519      1.111
REMARK  Name = 
REMARK  6 active torsions:
REMARK  status: ('A' for Active; 'I' for Inactive)
REMARK    1  A    between atoms: C_1  and  C_2
REMARK    2  A    between atoms: C_5  and  N_6
REMARK    3  A    between atoms: C_8  and  C_9
REMARK    4  A    between atoms: C_9  and  N_10
REMARK    5  A    between atoms: C_13  and  C_14
REMARK    6  A    between atoms: C_22  and  C_23
REMARK                            x       y       z     vdW  Elec       q    Type
REMARK                         _______ _______ _______ _____ _____    ______ ____
ROOT
ATOM      1  N   UNL     1       2.699   6.837  18.959  0.00  0.00    +0.000 N 
ATOM      2  C   UNL     1       2.654   5.598  19.553  0.00  0.00    +0.000 A 
ATOM      3  C   UNL     1       3.480   4.761  18.840  0.00  0.00    +0.000 A 
ATOM      4  C   UNL     1       4.072   5.601  17.845  0.00  0.00    +0.000 A 
ATOM      5  N   UNL     1       3.540   6.838  17.891  0.00  0.00    +0.000 NA
ENDROOT
BRANCH   1  10
ATOM      6  C   UNL     1      -0.187  11.572  20.495  0.00  0.00    +0.000 C 
ATOM      7  C   UNL     1       0.543  10.311  20.120  0.00  0.00    +0.000 A 
ATOM      8  C   UNL     1       0.990  10.153  18.803  0.00  0.00    +0.000 A 
ATOM      9  C   UNL     1       1.694   9.011  18.419  0.00  0.00    +0.000 A 
ATOM     10  C   UNL     1       1.954   7.992  19.344  0.00  0.00    +0.000 A 
ATOM     11  C   UNL     1       1.491   8.131  20.659  0.00  0.00    +0.000 A 
ATOM     12  C   UNL     1       0.802   9.293  21.062  0.00  0.00    +0.000 A 
ATOM     13  C   UNL     1       0.374   9.439  22.497  0.00  0.00    +0.000 C 
ENDBRANCH   1  10
BRANCH   4  14
ATOM     14  C   UNL     1       5.086   5.227  16.849  0.00  0.00    +0.000 A 
ATOM     15  C   UNL     1       6.436   5.568  17.004  0.00  0.00    +0.000 A 
ATOM     16  C   UNL     1       7.359   5.285  15.991  0.00  0.00    +0.000 A 
ATOM     17  C   UNL     1       6.949   4.666  14.810  0.00  0.00    +0.000 A 
ATOM     18  C   UNL     1       5.623   4.281  14.659  0.00  0.00    +0.000 A 
ATOM     19  C   UNL     1       4.713   4.534  15.684  0.00  0.00    +0.000 A 
ENDBRANCH   4  14
BRANCH   3  20
ATOM     20  C   UNL     1       3.654   3.299  19.076  0.00  0.00    +0.000 C 
BRANCH  20  21
ATOM     21  N   UNL     1       5.006   2.997  19.556  0.00  0.00    +0.000 NA
ATOM     22  N   UNL     1       5.084   2.149  20.455  0.00  0.00    +0.000 NA
ATOM     23  N   UNL     1       5.154   1.361  21.279  0.00  0.00    +0.000 NA
ENDBRANCH  20  21
ENDBRANCH   3  20
TORSDOF 4
ENDMDL
MODEL 4
REMARK VINA RESULT:      -8.3      2.383      3.435
REMARK  Name = 
REMARK  6 active torsions:
REMARK  status: ('A' for Active; 'I' for Inactive)
REMARK    1  A    between atoms: C_1  and  C_2
REMARK    2  A    between atoms: C_5  and  N_6
REMARK    3  A    between atoms: C_8  and  C_9
REMARK    4  A    between atoms: C_9  and  N_10
REMARK    5  A    between atoms: C_13  and  C_14
REMARK    6  A    between atoms: C_22  and  C_23
REMARK                            x       y       z     vdW  Elec       q    Type
REMARK                         _______ _______ _______ _____ _____    ______ ____
ROOT
ATOM      1  N   UNL     1       2.251   7.814  18.929  0.00  0.00    +0.000 N 
ATOM      2  C   UNL     1       3.126   8.035  17.892  0.00  0.00    +0.000 A 
ATOM      3  C   UNL     1       3.697   6.829  17.560  0.00  0.00    +0.000 A 
ATOM      4  C   UNL     1       3.045   5.877  18.407  0.00  0.00    +0.000 A 
ATOM      5  N   UNL     1       2.221   6.499  19.272  0.00  0.00    +0.000 NA
ENDROOT
BRANCH   1  10
ATOM      6  C   UNL     1      -0.743  11.875  21.696  0.00  0.00    +0.000 C 
ATOM      7  C   UNL     1       0.020  10.783  20.995  0.00  0.00    +0.000 A 
ATOM      8  C   UNL     1       0.350  10.946  19.645  0.00  0.00    +0.000 A 
ATOM      9  C   UNL     1       1.078   9.970  18.963  0.00  0.00    +0.000 A 
ATOM     10  C   UNL     1       1.482   8.799  19.617  0.00  0.00    +0.000 A 
ATOM     11  C   UNL     1       1.137   8.617  20.963  0.00  0.00    +0.000 A 
ATOM     12  C   UNL     1       0.424   9.609  21.666  0.00  0.00    +0.000 A 
ATOM     13  C   UNL     1       0.125   9.411  23.127  0.00  0.00    +0.000 C 
ENDBRANCH   1  10
BRANCH   4  14
ATOM     14  C   UNL     1       3.233   4.419  18.421  0.00  0.00    +0.000 A 
ATOM     15  C   UNL     1       2.549   3.577  17.536  0.00  0.00    +0.000 A 
ATOM     16  C   UNL     1       2.673   2.187  17.641  0.00  0.00    +0.000 A 
ATOM     17  C   UNL     1       3.473   1.619  18.634  0.00  0.00    +0.000 A 
ATOM     18  C   UNL     1       4.193   2.441  19.491  0.00  0.00    +0.000 A 
ATOM     19  C   UNL     1       4.093   3.825  19.361  0.00  0.00    +0.000 A 
ENDBRANCH   4  14
BRANCH   3  20
ATOM     20  C   UNL     1       4.776   6.622  16.553  0.00  0.00    +0.000 C 
BRANCH  20  21
ATOM     21  N   UNL     1       6.052   6.304  17.201  0.00  0.00    +0.000 NA
ATOM     22  N   UNL     1       6.903   7.204  17.192  0.00  0.00    +0.000 NA
ATOM     23  N   UNL     1       7.683   8.038  17.189  0.00  0.00    +0.000 NA
ENDBRANCH  20  21
ENDBRANCH   3  20
TORSDOF 4
ENDMDL
MODEL 5
REMARK VINA RESULT:      -8.2      1.414      1.611
REMARK  Name = 
REMARK  6 active torsions:
REMARK  status: ('A' for Active; 'I' for Inactive)
REMARK    1  A    between atoms: C_1  and  C_2
REMARK    2  A    between atoms: C_5  and  N_6
REMARK    3  A    between atoms: C_8  and  C_9
REMARK    4  A    between atoms: C_9  and  N_10
REMARK    5  A    between atoms: C_13  and  C_14
REMARK    6  A    between atoms: C_22  and  C_23
REMARK                            x       y       z     vdW  Elec       q    Type
REMARK                         _______ _______ _______ _____ _____    ______ ____
ROOT
ATOM      1  N   UNL     1       2.455   6.865  19.553  0.00  0.00    +0.000 N 
ATOM      2  C   UNL     1       2.341   5.601  20.081  0.00  0.00    +0.000 A 
ATOM      3  C   UNL     1       3.229   4.787  19.417  0.00  0.00    +0.000 A 
ATOM      4  C   UNL     1       3.926   5.665  18.528  0.00  0.00    +0.000 A 
ATOM      5  N   UNL     1       3.401   6.905  18.577  0.00  0.00    +0.000 NA
ENDROOT
BRANCH   1  10
ATOM      6  C   UNL     1      -0.539  11.561  20.999  0.00  0.00    +0.000 C 
ATOM      7  C   UNL     1       0.218  10.309  20.646  0.00  0.00    +0.000 A 
ATOM      8  C   UNL     1       0.731  10.170  19.351  0.00  0.00    +0.000 A 
ATOM      9  C   UNL     1       1.461   9.038  18.989  0.00  0.00    +0.000 A 
ATOM     10  C   UNL     1       1.684   8.010  19.914  0.00  0.00    +0.000 A 
ATOM     11  C   UNL     1       1.156   8.130  21.207  0.00  0.00    +0.000 A 
ATOM     12  C   UNL     1       0.439   9.283  21.588  0.00  0.00    +0.000 A 
ATOM     13  C   UNL     1      -0.060   9.409  23.002  0.00  0.00    +0.000 C 
ENDBRANCH   1  10
BRANCH   4  14
ATOM     14  C   UNL     1       5.033   5.325  17.623  0.00  0.00    +0.000 A 
ATOM     15  C   UNL     1       4.853   5.231  16.237  0.00  0.00    +0.000 A 
ATOM     16  C   UNL     1       5.902   4.807  15.413  0.00  0.00    +0.000 A 
ATOM     17  C   UNL     1       7.139   4.463  15.959  0.00  0.00    +0.000 A 
ATOM     18  C   UNL     1       7.347   4.593  17.327  0.00  0.00    +0.000 A 
ATOM     19  C   UNL     1       6.311   5.048  18.140  0.00  0.00    +0.000 A 
ENDBRANCH   4  14
BRANCH   3  20
ATOM     20  C   UNL     1       3.369   3.315  19.601  0.00  0.00    +0.000 C 
BRANCH  20  21
ATOM     21  N   UNL     1       2.783   2.581  18.475  0.00  0.00    +0.000 NA
ATOM     22  N   UNL     1       1.557   2.410  18.519  0.00  0.00    +0.000 NA
ATOM     23  N   UNL     1       0.426   2.261  18.558  0.00  0.00    +0.000 NA
ENDBRANCH  20  21
ENDBRANCH   3  20
TORSDOF 4
ENDMDL
MODEL 6
REMARK VINA RESULT:      -8.2      2.369      3.536
REMARK  Name = 
REMARK  6 active torsions:
REMARK  status: ('A' for Active; 'I' for Inactive)
REMARK    1  A    between atoms: C_1  and  C_2
REMARK    2  A    between atoms: C_5  and  N_6
REMARK    3  A    between atoms: C_8  and  C_9
REMARK    4  A    between atoms: C_9  and  N_10
REMARK    5  A    between atoms: C_13  and  C_14
REMARK    6  A    between atoms: C_22  and  C_23
REMARK                            x       y       z     vdW  Elec       q    Type
REMARK                         _______ _______ _______ _____ _____    ______ ____
ROOT
ATOM      1  N   UNL     1       2.187   7.811  19.048  0.00  0.00    +0.000 N 
ATOM      2  C   UNL     1       3.064   7.999  18.007  0.00  0.00    +0.000 A 
ATOM      3  C   UNL     1       3.610   6.777  17.692  0.00  0.00    +0.000 A 
ATOM      4  C   UNL     1       2.940   5.851  18.554  0.00  0.00    +0.000 A 
ATOM      5  N   UNL     1       2.130   6.502  19.411  0.00  0.00    +0.000 NA
ENDROOT
BRANCH   1  10
ATOM      6  C   UNL     1      -0.720  11.971  21.761  0.00  0.00    +0.000 C 
ATOM      7  C   UNL     1       0.018  10.854  21.073  0.00  0.00    +0.000 A 
ATOM      8  C   UNL     1       0.379  11.006  19.730  0.00  0.00    +0.000 A 
ATOM      9  C   UNL     1       1.087  10.006  19.061  0.00  0.00    +0.000 A 
ATOM     10  C   UNL     1       1.438   8.822  19.722  0.00  0.00    +0.000 A 
ATOM     11  C   UNL     1       1.062   8.651  21.061  0.00  0.00    +0.000 A 
ATOM     12  C   UNL     1       0.369   9.667  21.751  0.00  0.00    +0.000 A 
ATOM     13  C   UNL     1       0.036   9.479  23.206  0.00  0.00    +0.000 C 
ENDBRANCH   1  10
BRANCH   4  14
ATOM     14  C   UNL     1       3.099   4.390  18.590  0.00  0.00    +0.000 A 
ATOM     15  C   UNL     1       4.009   3.767  19.453  0.00  0.00    +0.000 A 
ATOM     16  C   UNL     1       4.209   2.383  19.392  0.00  0.00    +0.000 A 
ATOM     17  C   UNL     1       3.511   1.605  18.468  0.00  0.00    +0.000 A 
ATOM     18  C   UNL     1       2.572   2.201  17.636  0.00  0.00    +0.000 A 
ATOM     19  C   UNL     1       2.351   3.574  17.722  0.00  0.00    +0.000 A 
ENDBRANCH   4  14
BRANCH   3  20
ATOM     20  C   UNL     1       4.684   6.533  16.688  0.00  0.00    +0.000 C 
BRANCH  20  21
ATOM     21  N   UNL     1       5.970   6.271  17.340  0.00  0.00    +0.000 NA
ATOM     22  N   UNL     1       6.825   7.160  17.229  0.00  0.00    +0.000 NA
ATOM     23  N   UNL     1       7.608   7.985  17.133  0.00  0.00    +0.000 NA
ENDBRANCH  20  21
ENDBRANCH   3  20
TORSDOF 4
ENDMDL
MODEL 7
REMARK VINA RESULT:      -8.2      2.495      3.633
REMARK  Name = 
REMARK  6 active torsions:
REMARK  status: ('A' for Active; 'I' for Inactive)
REMARK    1  A    between atoms: C_1  and  C_2
REMARK    2  A    between atoms: C_5  and  N_6
REMARK    3  A    between atoms: C_8  and  C_9
REMARK    4  A    between atoms: C_9  and  N_10
REMARK    5  A    between atoms: C_13  and  C_14
REMARK    6  A    between atoms: C_22  and  C_23
REMARK                            x       y       z     vdW  Elec       q    Type
REMARK                         _______ _______ _______ _____ _____    ______ ____
ROOT
ATOM      1  N   UNL     1       2.065   7.753  19.383  0.00  0.00    +0.000 N 
ATOM      2  C   UNL     1       2.842   8.074  18.297  0.00  0.00    +0.000 A 
ATOM      3  C   UNL     1       3.423   6.914  17.839  0.00  0.00    +0.000 A 
ATOM      4  C   UNL     1       2.875   5.886  18.670  0.00  0.00    +0.000 A 
ATOM      5  N   UNL     1       2.106   6.419  19.639  0.00  0.00    +0.000 NA
ENDROOT
BRANCH   1  10
ATOM      6  C   UNL     1      -1.019  11.314  22.688  0.00  0.00    +0.000 C 
ATOM      7  C   UNL     1      -0.203  10.416  21.799  0.00  0.00    +0.000 A 
ATOM      8  C   UNL     1       0.512   9.359  22.375  0.00  0.00    +0.000 A 
ATOM      9  C   UNL     1       1.261   8.487  21.584  0.00  0.00    +0.000 A 
ATOM     10  C   UNL     1       1.322   8.662  20.196  0.00  0.00    +0.000 A 
ATOM     11  C   UNL     1       0.628   9.730  19.612  0.00  0.00    +0.000 A 
ATOM     12  C   UNL     1      -0.152  10.600  20.401  0.00  0.00    +0.000 A 
ATOM     13  C   UNL     1      -0.936  11.699  19.736  0.00  0.00    +0.000 C 
ENDBRANCH   1  10
BRANCH   4  14
ATOM     14  C   UNL     1       3.112   4.438  18.572  0.00  0.00    +0.000 A 
ATOM     15  C   UNL     1       2.401   3.633  17.674  0.00  0.00    +0.000 A 
ATOM     16  C   UNL     1       2.577   2.244  17.674  0.00  0.00    +0.000 A 
ATOM     17  C   UNL     1       3.458   1.641  18.573  0.00  0.00    +0.000 A 
ATOM     18  C   UNL     1       4.204   2.430  19.439  0.00  0.00    +0.000 A 
ATOM     19  C   UNL     1       4.051   3.815  19.413  0.00  0.00    +0.000 A 
ENDBRANCH   4  14
BRANCH   3  20
ATOM     20  C   UNL     1       4.422   6.814  16.737  0.00  0.00    +0.000 C 
BRANCH  20  21
ATOM     21  N   UNL     1       5.784   6.695  17.265  0.00  0.00    +0.000 NA
ATOM     22  N   UNL     1       6.641   6.292  16.467  0.00  0.00    +0.000 NA
ATOM     23  N   UNL     1       7.431   5.929  15.727  0.00  0.00    +0.000 NA
ENDBRANCH  20  21
ENDBRANCH   3  20
TORSDOF 4
ENDMDL
MODEL 8
REMARK VINA RESULT:      -8.2      1.196      1.207
REMARK  Name = 
REMARK  6 active torsions:
REMARK  status: ('A' for Active; 'I' for Inactive)
REMARK    1  A    between atoms: C_1  and  C_2
REMARK    2  A    between atoms: C_5  and  N_6
REMARK    3  A    between atoms: C_8  and  C_9
REMARK    4  A    between atoms: C_9  and  N_10
REMARK    5  A    between atoms: C_13  and  C_14
REMARK    6  A    between atoms: C_22  and  C_23
REMARK                            x       y       z     vdW  Elec       q    Type
REMARK                         _______ _______ _______ _____ _____    ______ ____
ROOT
ATOM      1  N   UNL     1       2.413   7.000  19.520  0.00  0.00    +0.000 N 
ATOM      2  C   UNL     1       2.446   5.780  20.152  0.00  0.00    +0.000 A 
ATOM      3  C   UNL     1       3.297   4.963  19.445  0.00  0.00    +0.000 A 
ATOM      4  C   UNL     1       3.823   5.801  18.411  0.00  0.00    +0.000 A 
ATOM      5  N   UNL     1       3.229   7.010  18.433  0.00  0.00    +0.000 NA
ENDROOT
BRANCH   1  10
ATOM      6  C   UNL     1      -0.674  11.627  20.992  0.00  0.00    +0.000 C 
ATOM      7  C   UNL     1       0.109  10.393  20.632  0.00  0.00    +0.000 A 
ATOM      8  C   UNL     1       0.612  10.265  19.333  0.00  0.00    +0.000 A 
ATOM      9  C   UNL     1       1.365   9.149  18.964  0.00  0.00    +0.000 A 
ATOM     10  C   UNL     1       1.620   8.127  19.888  0.00  0.00    +0.000 A 
ATOM     11  C   UNL     1       1.101   8.236  21.185  0.00  0.00    +0.000 A 
ATOM     12  C   UNL     1       0.362   9.373  21.573  0.00  0.00    +0.000 A 
ATOM     13  C   UNL     1      -0.127   9.488  22.991  0.00  0.00    +0.000 C 
ENDBRANCH   1  10
BRANCH   4  14
ATOM     14  C   UNL     1       4.832   5.447  17.402  0.00  0.00    +0.000 A 
ATOM     15  C   UNL     1       4.619   4.422  16.472  0.00  0.00    +0.000 A 
ATOM     16  C   UNL     1       5.637   4.042  15.591  0.00  0.00    +0.000 A 
ATOM     17  C   UNL     1       6.882   4.672  15.630  0.00  0.00    +0.000 A 
ATOM     18  C   UNL     1       7.094   5.720  16.516  0.00  0.00    +0.000 A 
ATOM     19  C   UNL     1       6.067   6.118  17.369  0.00  0.00    +0.000 A 
ENDBRANCH   4  14
BRANCH   3  20
ATOM     20  C   UNL     1       3.552   3.521  19.721  0.00  0.00    +0.000 C 
BRANCH  20  21
ATOM     21  N   UNL     1       2.297   2.782  19.889  0.00  0.00    +0.000 NA
ATOM     22  N   UNL     1       1.929   2.599  21.057  0.00  0.00    +0.000 NA
ATOM     23  N   UNL     1       1.588   2.438  22.135  0.00  0.00    +0.000 NA
ENDBRANCH  20  21
ENDBRANCH   3  20
TORSDOF 4
ENDMDL
MODEL 9
REMARK VINA RESULT:      -8.1      2.490      3.734
REMARK  Name = 
REMARK  6 active torsions:
REMARK  status: ('A' for Active; 'I' for Inactive)
REMARK    1  A    between atoms: C_1  and  C_2
REMARK    2  A    between atoms: C_5  and  N_6
REMARK    3  A    between atoms: C_8  and  C_9
REMARK    4  A    between atoms: C_9  and  N_10
REMARK    5  A    between atoms: C_13  and  C_14
REMARK    6  A    between atoms: C_22  and  C_23
REMARK                            x       y       z     vdW  Elec       q    Type
REMARK                         _______ _______ _______ _____ _____    ______ ____
ROOT
ATOM      1  N   UNL     1       2.013   7.749  19.503  0.00  0.00    +0.000 N 
ATOM      2  C   UNL     1       2.798   8.031  18.410  0.00  0.00    +0.000 A 
ATOM      3  C   UNL     1       3.356   6.850  17.979  0.00  0.00    +0.000 A 
ATOM      4  C   UNL     1       2.788   5.851  18.832  0.00  0.00    +0.000 A 
ATOM      5  N   UNL     1       2.029   6.420  19.788  0.00  0.00    +0.000 NA
ENDROOT
BRANCH   1  10
ATOM      6  C   UNL     1      -1.003  11.443  22.723  0.00  0.00    +0.000 C 
ATOM      7  C   UNL     1      -0.203  10.509  21.855  0.00  0.00    +0.000 A 
ATOM      8  C   UNL     1       0.477   9.443  22.454  0.00  0.00    +0.000 A 
ATOM      9  C   UNL     1       1.209   8.538  21.684  0.00  0.00    +0.000 A 
ATOM     10  C   UNL     1       1.289   8.690  20.294  0.00  0.00    +0.000 A 
ATOM     11  C   UNL     1       0.629   9.767  19.687  0.00  0.00    +0.000 A 
ATOM     12  C   UNL     1      -0.135  10.671  20.455  0.00  0.00    +0.000 A 
ATOM     13  C   UNL     1      -0.882  11.780  19.766  0.00  0.00    +0.000 C 
ENDBRANCH   1  10
BRANCH   4  14
ATOM     14  C   UNL     1       2.997   4.397  18.766  0.00  0.00    +0.000 A 
ATOM     15  C   UNL     1       3.912   3.744  19.600  0.00  0.00    +0.000 A 
ATOM     16  C   UNL     1       4.162   2.375  19.445  0.00  0.00    +0.000 A 
ATOM     17  C   UNL     1       3.508   1.643  18.453  0.00  0.00    +0.000 A 
ATOM     18  C   UNL     1       2.564   2.267  17.647  0.00  0.00    +0.000 A 
ATOM     19  C   UNL     1       2.294   3.622  17.827  0.00  0.00    +0.000 A 
ENDBRANCH   4  14
BRANCH   3  20
ATOM     20  C   UNL     1       4.353   6.706  16.881  0.00  0.00    +0.000 C 
BRANCH  20  21
ATOM     21  N   UNL     1       5.709   6.543  17.413  0.00  0.00    +0.000 NA
ATOM     22  N   UNL     1       6.588   6.276  16.583  0.00  0.00    +0.000 NA
ATOM     23  N   UNL     1       7.399   6.038  15.814  0.00  0.00    +0.000 NA
ENDBRANCH  20  21
ENDBRANCH   3  20
TORSDOF 4
ENDMDL
