MODEL 1
REMARK VINA RESULT:      -8.5      0.000      0.000
REMARK  Name = 
REMARK  4 active torsions:
REMARK  status: ('A' for Active; 'I' for Inactive)
REMARK    1  A    between atoms: C_2  and  C_12
REMARK    2  A    between atoms: N_3  and  C_4
REMARK    3  A    between atoms: C_4  and  C_5
REMARK    4  A    between atoms: C_5  and  N_6
REMARK                            x       y       z     vdW  Elec       q    Type
REMARK                         _______ _______ _______ _____ _____    ______ ____
ROOT
ATOM      1  C   UNL     1      -0.493  11.037  22.159  0.00  0.00    +0.000 A 
ATOM      2  C   UNL     1      -0.112   9.815  22.669  0.00  0.00    +0.000 A 
ATOM      3  N   UNL     1       0.574   8.888  21.954  0.00  0.00    +0.000 NA
ATOM      4  C   UNL     1       0.899   9.155  20.659  0.00  0.00    +0.000 A 
ATOM      5  C   UNL     1       0.524  10.383  20.067  0.00  0.00    +0.000 A 
ATOM      6  C   UNL     1       0.841  10.689  18.741  0.00  0.00    +0.000 A 
ATOM      7  C   UNL     1       1.552   9.779  17.973  0.00  0.00    +0.000 A 
ATOM      8  C   UNL     1       1.938   8.558  18.523  0.00  0.00    +0.000 A 
ATOM      9  C   UNL     1       2.656   7.646  17.733  0.00  0.00    +0.000 A 
ATOM     10  C   UNL     1       3.041   6.417  18.257  0.00  0.00    +0.000 A 
ATOM     11  C   UNL     1       2.753   6.096  19.583  0.00  0.00    +0.000 A 
ATOM     12  C   UNL     1       2.032   6.989  20.373  0.00  0.00    +0.000 A 
ATOM     13  C   UNL     1       1.614   8.238  19.865  0.00  0.00    +0.000 A 
ATOM     14  O   UNL     1       3.136   4.918  20.169  0.00  0.00    +0.000 OA
ATOM     15  C   UNL     1       4.135   4.249  19.389  0.00  0.00    +0.000 C 
ATOM     16  C   UNL     1       3.747   4.240  17.921  0.00  0.00    +0.000 C 
ATOM     17  O   UNL     1       3.711   5.577  17.406  0.00  0.00    +0.000 OA
ATOM     18  C   UNL     1      -0.180  11.310  20.830  0.00  0.00    +0.000 A 
ENDROOT
BRANCH   1  20
ATOM     19  O   UNL     1      -0.605  13.005  23.364  0.00  0.00    +0.000 OA
ATOM     20  C   UNL     1      -1.241  12.058  22.905  0.00  0.00    +0.000 C 
ATOM     21  N   UNL     1      -2.606  11.899  23.097  0.00  0.00    +0.000 N 
ATOM     22  H   UNL     1      -3.134  11.223  22.561  0.00  0.00    +0.000 HD
BRANCH  21  23
ATOM     23  C   UNL     1      -3.299  12.996  23.752  0.00  0.00    +0.000 C 
BRANCH  23  24
ATOM     24  C   UNL     1      -4.704  12.712  24.325  0.00  0.00    +0.000 C 
BRANCH  24  25
ATOM     25  N   UNL     1      -5.699  13.638  23.733  0.00  0.00    +0.000 NA
ATOM     26  C   UNL     1      -7.105  13.284  24.049  0.00  0.00    +0.000 C 
ATOM     27  C   UNL     1      -7.584  12.024  23.317  0.00  0.00    +0.000 C 
ATOM     28  O   UNL     1      -7.526  12.222  21.901  0.00  0.00    +0.000 OA
ATOM     29  C   UNL     1      -6.196  12.555  21.478  0.00  0.00    +0.000 C 
ATOM     30  C   UNL     1      -5.604  13.745  22.260  0.00  0.00    +0.000 C 
ENDBRANCH  24  25
ENDBRANCH  23  24
ENDBRANCH  21  23
ENDBRANCH   1  20
TORSDOF 4
ENDMDL
MODEL 2
REMARK VINA RESULT:      -8.4      1.468      2.085
REMARK  Name = 
REMARK  4 active torsions:
REMARK  status: ('A' for Active; 'I' for Inactive)
REMARK    1  A    between atoms: C_2  and  C_12
REMARK    2  A    between atoms: N_3  and  C_4
REMARK    3  A    between atoms: C_4  and  C_5
REMARK    4  A    between atoms: C_5  and  N_6
REMARK                            x       y       z     vdW  Elec       q    Type
REMARK                         _______ _______ _______ _____ _____    ______ ____
ROOT
ATOM      1  C   UNL     1       0.193  10.227  21.326  0.00  0.00    +0.000 A 
ATOM      2  C   UNL     1       0.296   9.029  22.000  0.00  0.00    +0.000 A 
ATOM      3  N   UNL     1       0.918   7.937  21.489  0.00  0.00    +0.000 NA
ATOM      4  C   UNL     1       1.461   8.002  20.242  0.00  0.00    +0.000 A 
ATOM      5  C   UNL     1       1.376   9.196  19.489  0.00  0.00    +0.000 A 
ATOM      6  C   UNL     1       1.922   9.298  18.207  0.00  0.00    +0.000 A 
ATOM      7  C   UNL     1       2.578   8.211  17.646  0.00  0.00    +0.000 A 
ATOM      8  C   UNL     1       2.681   7.019  18.360  0.00  0.00    +0.000 A 
ATOM      9  C   UNL     1       3.346   5.927  17.780  0.00  0.00    +0.000 A 
ATOM     10  C   UNL     1       3.450   4.724  18.468  0.00  0.00    +0.000 A 
ATOM     11  C   UNL     1       2.930   4.603  19.756  0.00  0.00    +0.000 A 
ATOM     12  C   UNL     1       2.259   5.676  20.338  0.00  0.00    +0.000 A 
ATOM     13  C   UNL     1       2.124   6.906  19.658  0.00  0.00    +0.000 A 
ATOM     14  O   UNL     1       3.032   3.457  20.501  0.00  0.00    +0.000 OA
ATOM     15  C   UNL     1       4.010   2.565  19.952  0.00  0.00    +0.000 C 
ATOM     16  C   UNL     1       3.837   2.444  18.448  0.00  0.00    +0.000 C 
ATOM     17  O   UNL     1       4.089   3.703  17.813  0.00  0.00    +0.000 OA
ATOM     18  C   UNL     1       0.730  10.297  20.043  0.00  0.00    +0.000 A 
ENDROOT
BRANCH   1  20
ATOM     19  O   UNL     1      -0.470  11.595  23.066  0.00  0.00    +0.000 OA
ATOM     20  C   UNL     1      -0.478  11.425  21.848  0.00  0.00    +0.000 C 
ATOM     21  N   UNL     1      -1.122  12.284  20.969  0.00  0.00    +0.000 N 
ATOM     22  H   UNL     1      -0.961  12.228  19.972  0.00  0.00    +0.000 HD
BRANCH  21  23
ATOM     23  C   UNL     1      -1.675  13.500  21.541  0.00  0.00    +0.000 C 
BRANCH  23  24
ATOM     24  C   UNL     1      -3.201  13.707  21.438  0.00  0.00    +0.000 C 
BRANCH  24  25
ATOM     25  N   UNL     1      -3.722  14.329  22.680  0.00  0.00    +0.000 NA
ATOM     26  C   UNL     1      -3.252  13.665  23.921  0.00  0.00    +0.000 C 
ATOM     27  C   UNL     1      -3.885  12.285  24.139  0.00  0.00    +0.000 C 
ATOM     28  O   UNL     1      -5.307  12.406  24.259  0.00  0.00    +0.000 OA
ATOM     29  C   UNL     1      -5.875  13.025  23.095  0.00  0.00    +0.000 C 
ATOM     30  C   UNL     1      -5.199  14.367  22.746  0.00  0.00    +0.000 C 
ENDBRANCH  24  25
ENDBRANCH  23  24
ENDBRANCH  21  23
ENDBRANCH   1  20
TORSDOF 4
ENDMDL
MODEL 3
REMARK VINA RESULT:      -8.3      3.110     10.442
REMARK  Name = 
REMARK  4 active torsions:
REMARK  status: ('A' for Active; 'I' for Inactive)
REMARK    1  A    between atoms: C_2  and  C_12
REMARK    2  A    between atoms: N_3  and  C_4
REMARK    3  A    between atoms: C_4  and  C_5
REMARK    4  A    between atoms: C_5  and  N_6
REMARK                            x       y       z     vdW  Elec       q    Type
REMARK                         _______ _______ _______ _____ _____    ______ ____
ROOT
ATOM      1  C   UNL     1       1.730   8.140  19.652  0.00  0.00    +0.000 A 
ATOM      2  C   UNL     1       1.487   9.268  18.900  0.00  0.00    +0.000 A 
ATOM      3  N   UNL     1       0.805  10.344  19.366  0.00  0.00    +0.000 NA
ATOM      4  C   UNL     1       0.315  10.322  20.636  0.00  0.00    +0.000 A 
ATOM      5  C   UNL     1       0.514   9.188  21.458  0.00  0.00    +0.000 A 
ATOM      6  C   UNL     1       0.024   9.131  22.765  0.00  0.00    +0.000 A 
ATOM      7  C   UNL     1      -0.670  10.212  23.291  0.00  0.00    +0.000 A 
ATOM      8  C   UNL     1      -0.884  11.346  22.510  0.00  0.00    +0.000 A 
ATOM      9  C   UNL     1      -1.589  12.431  23.055  0.00  0.00    +0.000 A 
ATOM     10  C   UNL     1      -1.826  13.567  22.290  0.00  0.00    +0.000 A 
ATOM     11  C   UNL     1      -1.331  13.656  20.989  0.00  0.00    +0.000 A 
ATOM     12  C   UNL     1      -0.640  12.581  20.435  0.00  0.00    +0.000 A 
ATOM     13  C   UNL     1      -0.397  11.408  21.181  0.00  0.00    +0.000 A 
ATOM     14  O   UNL     1      -1.498  14.762  20.198  0.00  0.00    +0.000 OA
ATOM     15  C   UNL     1      -1.912  15.896  20.969  0.00  0.00    +0.000 C 
ATOM     16  C   UNL     1      -3.024  15.512  21.929  0.00  0.00    +0.000 C 
ATOM     17  O   UNL     1      -2.548  14.565  22.893  0.00  0.00    +0.000 OA
ATOM     18  C   UNL     1       1.216   8.101  20.946  0.00  0.00    +0.000 A 
ENDROOT
BRANCH   1  20
ATOM     19  O   UNL     1       2.444   6.730  17.967  0.00  0.00    +0.000 OA
ATOM     20  C   UNL     1       2.459   6.957  19.175  0.00  0.00    +0.000 C 
ATOM     21  N   UNL     1       3.092   6.130  20.093  0.00  0.00    +0.000 N 
ATOM     22  H   UNL     1       3.249   6.430  21.045  0.00  0.00    +0.000 HD
BRANCH  21  23
ATOM     23  C   UNL     1       3.878   5.038  19.543  0.00  0.00    +0.000 C 
BRANCH  23  24
ATOM     24  C   UNL     1       5.378   5.298  19.287  0.00  0.00    +0.000 C 
BRANCH  24  25
ATOM     25  N   UNL     1       5.871   4.432  18.188  0.00  0.00    +0.000 NA
ATOM     26  C   UNL     1       7.253   4.752  17.752  0.00  0.00    +0.000 C 
ATOM     27  C   UNL     1       7.348   6.077  16.986  0.00  0.00    +0.000 C 
ATOM     28  O   UNL     1       6.552   6.021  15.798  0.00  0.00    +0.000 OA
ATOM     29  C   UNL     1       5.181   5.733  16.105  0.00  0.00    +0.000 C 
ATOM     30  C   UNL     1       5.019   4.472  16.978  0.00  0.00    +0.000 C 
ENDBRANCH  24  25
ENDBRANCH  23  24
ENDBRANCH  21  23
ENDBRANCH   1  20
TORSDOF 4
ENDMDL
MODEL 4
REMARK VINA RESULT:      -8.3      2.813     10.634
REMARK  Name = 
REMARK  4 active torsions:
REMARK  status: ('A' for Active; 'I' for Inactive)
REMARK    1  A    between atoms: C_2  and  C_12
REMARK    2  A    between atoms: N_3  and  C_4
REMARK    3  A    between atoms: C_4  and  C_5
REMARK    4  A    between atoms: C_5  and  N_6
REMARK                            x       y       z     vdW  Elec       q    Type
REMARK                         _______ _______ _______ _____ _____    ______ ____
ROOT
ATOM      1  C   UNL     1       1.474   8.918  18.900  0.00  0.00    +0.000 A 
ATOM      2  C   UNL     1       0.828  10.006  18.356  0.00  0.00    +0.000 A 
ATOM      3  N   UNL     1       0.027  10.834  19.072  0.00  0.00    +0.000 NA
ATOM      4  C   UNL     1      -0.173  10.585  20.396  0.00  0.00    +0.000 A 
ATOM      5  C   UNL     1       0.447   9.475  21.014  0.00  0.00    +0.000 A 
ATOM      6  C   UNL     1       0.263   9.189  22.370  0.00  0.00    +0.000 A 
ATOM      7  C   UNL     1      -0.537  10.014  23.147  0.00  0.00    +0.000 A 
ATOM      8  C   UNL     1      -1.163  11.117  22.571  0.00  0.00    +0.000 A 
ATOM      9  C   UNL     1      -1.972  11.942  23.370  0.00  0.00    +0.000 A 
ATOM     10  C   UNL     1      -2.617  13.041  22.814  0.00  0.00    +0.000 A 
ATOM     11  C   UNL     1      -2.434  13.357  21.468  0.00  0.00    +0.000 A 
ATOM     12  C   UNL     1      -1.643  12.541  20.664  0.00  0.00    +0.000 A 
ATOM     13  C   UNL     1      -0.987  11.409  21.196  0.00  0.00    +0.000 A 
ATOM     14  O   UNL     1      -3.011  14.447  20.870  0.00  0.00    +0.000 OA
ATOM     15  C   UNL     1      -3.507  15.374  21.843  0.00  0.00    +0.000 C 
ATOM     16  C   UNL     1      -4.279  14.645  22.929  0.00  0.00    +0.000 C 
ATOM     17  O   UNL     1      -3.409  13.772  23.661  0.00  0.00    +0.000 OA
ATOM     18  C   UNL     1       1.261   8.645  20.249  0.00  0.00    +0.000 A 
ENDROOT
BRANCH   1  20
ATOM     19  O   UNL     1       2.895   8.436  17.143  0.00  0.00    +0.000 OA
ATOM     20  C   UNL     1       2.342   7.999  18.150  0.00  0.00    +0.000 C 
ATOM     21  N   UNL     1       2.471   6.684  18.574  0.00  0.00    +0.000 N 
ATOM     22  H   UNL     1       2.162   6.399  19.493  0.00  0.00    +0.000 HD
BRANCH  21  23
ATOM     23  C   UNL     1       3.423   5.861  17.847  0.00  0.00    +0.000 C 
BRANCH  23  24
ATOM     24  C   UNL     1       4.789   5.593  18.514  0.00  0.00    +0.000 C 
BRANCH  24  25
ATOM     25  N   UNL     1       5.868   6.297  17.779  0.00  0.00    +0.000 NA
ATOM     26  C   UNL     1       5.934   5.947  16.339  0.00  0.00    +0.000 C 
ATOM     27  C   UNL     1       6.453   4.526  16.090  0.00  0.00    +0.000 C 
ATOM     28  O   UNL     1       7.784   4.388  16.601  0.00  0.00    +0.000 OA
ATOM     29  C   UNL     1       7.835   4.688  18.003  0.00  0.00    +0.000 C 
ATOM     30  C   UNL     1       7.217   6.061  18.340  0.00  0.00    +0.000 C 
ENDBRANCH  24  25
ENDBRANCH  23  24
ENDBRANCH  21  23
ENDBRANCH   1  20
TORSDOF 4
ENDMDL
MODEL 5
REMARK VINA RESULT:      -8.2      1.054      1.442
REMARK  Name = 
REMARK  4 active torsions:
REMARK  status: ('A' for Active; 'I' for Inactive)
REMARK    1  A    between atoms: C_2  and  C_12
REMARK    2  A    between atoms: N_3  and  C_4
REMARK    3  A    between atoms: C_4  and  C_5
REMARK    4  A    between atoms: C_5  and  N_6
REMARK                            x       y       z     vdW  Elec       q    Type
REMARK                         _______ _______ _______ _____ _____    ______ ____
ROOT
ATOM      1  C   UNL     1       0.015  10.566  21.688  0.00  0.00    +0.000 A 
ATOM      2  C   UNL     1       0.257   9.347  22.281  0.00  0.00    +0.000 A 
ATOM      3  N   UNL     1       0.900   8.327  21.658  0.00  0.00    +0.000 NA
ATOM      4  C   UNL     1       1.324   8.493  20.375  0.00  0.00    +0.000 A 
ATOM      5  C   UNL     1       1.093   9.714  19.700  0.00  0.00    +0.000 A 
ATOM      6  C   UNL     1       1.514   9.918  18.383  0.00  0.00    +0.000 A 
ATOM      7  C   UNL     1       2.187   8.910  17.708  0.00  0.00    +0.000 A 
ATOM      8  C   UNL     1       2.431   7.694  18.343  0.00  0.00    +0.000 A 
ATOM      9  C   UNL     1       3.112   6.682  17.647  0.00  0.00    +0.000 A 
ATOM     10  C   UNL     1       3.356   5.456  18.255  0.00  0.00    +0.000 A 
ATOM     11  C   UNL     1       2.963   5.235  19.574  0.00  0.00    +0.000 A 
ATOM     12  C   UNL     1       2.278   6.227  20.271  0.00  0.00    +0.000 A 
ATOM     13  C   UNL     1       2.002   7.477  19.676  0.00  0.00    +0.000 A 
ATOM     14  O   UNL     1       3.207   4.062  20.242  0.00  0.00    +0.000 OA
ATOM     15  C   UNL     1       4.188   3.270  19.562  0.00  0.00    +0.000 C 
ATOM     16  C   UNL     1       3.889   3.213  18.074  0.00  0.00    +0.000 C 
ATOM     17  O   UNL     1       4.000   4.517  17.491  0.00  0.00    +0.000 OA
ATOM     18  C   UNL     1       0.429  10.738  20.369  0.00  0.00    +0.000 A 
ENDROOT
BRANCH   1  20
ATOM     19  O   UNL     1      -0.123  12.780  22.332  0.00  0.00    +0.000 OA
ATOM     20  C   UNL     1      -0.684  11.686  22.332  0.00  0.00    +0.000 C 
ATOM     21  N   UNL     1      -1.910  11.465  22.943  0.00  0.00    +0.000 N 
ATOM     22  H   UNL     1      -2.433  10.616  22.772  0.00  0.00    +0.000 HD
BRANCH  21  23
ATOM     23  C   UNL     1      -2.591  12.636  23.469  0.00  0.00    +0.000 C 
BRANCH  23  24
ATOM     24  C   UNL     1      -3.684  13.281  22.589  0.00  0.00    +0.000 C 
BRANCH  24  25
ATOM     25  N   UNL     1      -4.950  12.515  22.697  0.00  0.00    +0.000 NA
ATOM     26  C   UNL     1      -5.806  12.607  21.489  0.00  0.00    +0.000 C 
ATOM     27  C   UNL     1      -6.452  13.988  21.316  0.00  0.00    +0.000 C 
ATOM     28  O   UNL     1      -7.297  14.283  22.434  0.00  0.00    +0.000 OA
ATOM     29  C   UNL     1      -6.562  14.239  23.666  0.00  0.00    +0.000 C 
ATOM     30  C   UNL     1      -5.787  12.917  23.849  0.00  0.00    +0.000 C 
ENDBRANCH  24  25
ENDBRANCH  23  24
ENDBRANCH  21  23
ENDBRANCH   1  20
TORSDOF 4
ENDMDL
MODEL 6
REMARK VINA RESULT:      -8.2      2.854      9.860
REMARK  Name = 
REMARK  4 active torsions:
REMARK  status: ('A' for Active; 'I' for Inactive)
REMARK    1  A    between atoms: C_2  and  C_12
REMARK    2  A    between atoms: N_3  and  C_4
REMARK    3  A    between atoms: C_4  and  C_5
REMARK    4  A    between atoms: C_5  and  N_6
REMARK                            x       y       z     vdW  Elec       q    Type
REMARK                         _______ _______ _______ _____ _____    ______ ____
ROOT
ATOM      1  C   UNL     1       1.794   8.389  19.434  0.00  0.00    +0.000 A 
ATOM      2  C   UNL     1       1.349   9.488  18.734  0.00  0.00    +0.000 A 
ATOM      3  N   UNL     1       0.546  10.441  19.271  0.00  0.00    +0.000 NA
ATOM      4  C   UNL     1       0.136  10.313  20.563  0.00  0.00    +0.000 A 
ATOM      5  C   UNL     1       0.542   9.199  21.334  0.00  0.00    +0.000 A 
ATOM      6  C   UNL     1       0.139   9.037  22.663  0.00  0.00    +0.000 A 
ATOM      7  C   UNL     1      -0.672   9.990  23.260  0.00  0.00    +0.000 A 
ATOM      8  C   UNL     1      -1.092  11.101  22.530  0.00  0.00    +0.000 A 
ATOM      9  C   UNL     1      -1.914  12.057  23.148  0.00  0.00    +0.000 A 
ATOM     10  C   UNL     1      -2.356  13.166  22.436  0.00  0.00    +0.000 A 
ATOM     11  C   UNL     1      -1.952  13.360  21.115  0.00  0.00    +0.000 A 
ATOM     12  C   UNL     1      -1.145  12.413  20.489  0.00  0.00    +0.000 A 
ATOM     13  C   UNL     1      -0.693  11.269  21.181  0.00  0.00    +0.000 A 
ATOM     14  O   UNL     1      -2.322  14.451  20.371  0.00  0.00    +0.000 OA
ATOM     15  C   UNL     1      -2.851  15.492  21.202  0.00  0.00    +0.000 C 
ATOM     16  C   UNL     1      -3.841  14.923  22.204  0.00  0.00    +0.000 C 
ATOM     17  O   UNL     1      -3.179  14.031  23.108  0.00  0.00    +0.000 OA
ATOM     18  C   UNL     1       1.365   8.241  20.751  0.00  0.00    +0.000 A 
ENDROOT
BRANCH   1  20
ATOM     19  O   UNL     1       2.768   7.279  17.657  0.00  0.00    +0.000 OA
ATOM     20  C   UNL     1       2.659   7.338  18.880  0.00  0.00    +0.000 C 
ATOM     21  N   UNL     1       3.276   6.439  19.738  0.00  0.00    +0.000 N 
ATOM     22  H   UNL     1       3.324   6.614  20.733  0.00  0.00    +0.000 HD
BRANCH  21  23
ATOM     23  C   UNL     1       4.196   5.492  19.130  0.00  0.00    +0.000 C 
BRANCH  23  24
ATOM     24  C   UNL     1       4.067   4.009  19.539  0.00  0.00    +0.000 C 
BRANCH  24  25
ATOM     25  N   UNL     1       3.739   3.175  18.358  0.00  0.00    +0.000 NA
ATOM     26  C   UNL     1       2.797   3.825  17.413  0.00  0.00    +0.000 C 
ATOM     27  C   UNL     1       1.368   3.920  17.961  0.00  0.00    +0.000 C 
ATOM     28  O   UNL     1       0.847   2.611  18.214  0.00  0.00    +0.000 OA
ATOM     29  C   UNL     1       1.676   1.892  19.137  0.00  0.00    +0.000 C 
ATOM     30  C   UNL     1       3.157   1.860  18.706  0.00  0.00    +0.000 C 
ENDBRANCH  24  25
ENDBRANCH  23  24
ENDBRANCH  21  23
ENDBRANCH   1  20
TORSDOF 4
ENDMDL
MODEL 7
REMARK VINA RESULT:      -8.2      1.583      2.255
REMARK  Name = 
REMARK  4 active torsions:
REMARK  status: ('A' for Active; 'I' for Inactive)
REMARK    1  A    between atoms: C_2  and  C_12
REMARK    2  A    between atoms: N_3  and  C_4
REMARK    3  A    between atoms: C_4  and  C_5
REMARK    4  A    between atoms: C_5  and  N_6
REMARK                            x       y       z     vdW  Elec       q    Type
REMARK                         _______ _______ _______ _____ _____    ______ ____
ROOT
ATOM      1  C   UNL     1       0.425  10.136  21.128  0.00  0.00    +0.000 A 
ATOM      2  C   UNL     1       0.521   8.965  21.847  0.00  0.00    +0.000 A 
ATOM      3  N   UNL     1       1.114   7.841  21.369  0.00  0.00    +0.000 NA
ATOM      4  C   UNL     1       1.635   7.848  20.111  0.00  0.00    +0.000 A 
ATOM      5  C   UNL     1       1.556   9.012  19.312  0.00  0.00    +0.000 A 
ATOM      6  C   UNL     1       2.079   9.053  18.017  0.00  0.00    +0.000 A 
ATOM      7  C   UNL     1       2.706   7.934  17.489  0.00  0.00    +0.000 A 
ATOM      8  C   UNL     1       2.802   6.770  18.248  0.00  0.00    +0.000 A 
ATOM      9  C   UNL     1       3.438   5.644  17.700  0.00  0.00    +0.000 A 
ATOM     10  C   UNL     1       3.534   4.467  18.433  0.00  0.00    +0.000 A 
ATOM     11  C   UNL     1       3.037   4.407  19.735  0.00  0.00    +0.000 A 
ATOM     12  C   UNL     1       2.395   5.514  20.285  0.00  0.00    +0.000 A 
ATOM     13  C   UNL     1       2.268   6.718  19.559  0.00  0.00    +0.000 A 
ATOM     14  O   UNL     1       3.134   3.290  20.523  0.00  0.00    +0.000 OA
ATOM     15  C   UNL     1       4.086   2.360  19.993  0.00  0.00    +0.000 C 
ATOM     16  C   UNL     1       3.882   2.182  18.498  0.00  0.00    +0.000 C 
ATOM     17  O   UNL     1       4.144   3.410  17.809  0.00  0.00    +0.000 OA
ATOM     18  C   UNL     1       0.939  10.145  19.833  0.00  0.00    +0.000 A 
ENDROOT
BRANCH   1  20
ATOM     19  O   UNL     1       0.016  12.406  21.001  0.00  0.00    +0.000 OA
ATOM     20  C   UNL     1      -0.216  11.365  21.613  0.00  0.00    +0.000 C 
ATOM     21  N   UNL     1      -1.011  11.317  22.750  0.00  0.00    +0.000 N 
ATOM     22  H   UNL     1      -1.335  10.436  23.124  0.00  0.00    +0.000 HD
BRANCH  21  23
ATOM     23  C   UNL     1      -1.695  12.548  23.112  0.00  0.00    +0.000 C 
BRANCH  23  24
ATOM     24  C   UNL     1      -3.226  12.595  22.921  0.00  0.00    +0.000 C 
BRANCH  24  25
ATOM     25  N   UNL     1      -3.895  12.921  24.205  0.00  0.00    +0.000 NA
ATOM     26  C   UNL     1      -5.375  12.978  24.107  0.00  0.00    +0.000 C 
ATOM     27  C   UNL     1      -5.878  14.202  23.333  0.00  0.00    +0.000 C 
ATOM     28  O   UNL     1      -5.470  15.406  23.992  0.00  0.00    +0.000 OA
ATOM     29  C   UNL     1      -4.042  15.466  24.125  0.00  0.00    +0.000 C 
ATOM     30  C   UNL     1      -3.454  14.205  24.792  0.00  0.00    +0.000 C 
ENDBRANCH  24  25
ENDBRANCH  23  24
ENDBRANCH  21  23
ENDBRANCH   1  20
TORSDOF 4
ENDMDL
MODEL 8
REMARK VINA RESULT:      -8.2      1.418      2.105
REMARK  Name = 
REMARK  4 active torsions:
REMARK  status: ('A' for Active; 'I' for Inactive)
REMARK    1  A    between atoms: C_2  and  C_12
REMARK    2  A    between atoms: N_3  and  C_4
REMARK    3  A    between atoms: C_4  and  C_5
REMARK    4  A    between atoms: C_5  and  N_6
REMARK                            x       y       z     vdW  Elec       q    Type
REMARK                         _______ _______ _______ _____ _____    ______ ____
ROOT
ATOM      1  C   UNL     1       0.248  10.282  21.285  0.00  0.00    +0.000 A 
ATOM      2  C   UNL     1       0.336   9.093  21.976  0.00  0.00    +0.000 A 
ATOM      3  N   UNL     1       0.938   7.983  21.479  0.00  0.00    +0.000 NA
ATOM      4  C   UNL     1       1.476   8.021  20.229  0.00  0.00    +0.000 A 
ATOM      5  C   UNL     1       1.406   9.205  19.458  0.00  0.00    +0.000 A 
ATOM      6  C   UNL     1       1.946   9.278  18.172  0.00  0.00    +0.000 A 
ATOM      7  C   UNL     1       2.582   8.173  17.625  0.00  0.00    +0.000 A 
ATOM      8  C   UNL     1       2.670   6.991  18.357  0.00  0.00    +0.000 A 
ATOM      9  C   UNL     1       3.315   5.880  17.790  0.00  0.00    +0.000 A 
ATOM     10  C   UNL     1       3.404   4.685  18.496  0.00  0.00    +0.000 A 
ATOM     11  C   UNL     1       2.888   4.593  19.788  0.00  0.00    +0.000 A 
ATOM     12  C   UNL     1       2.237   5.685  20.357  0.00  0.00    +0.000 A 
ATOM     13  C   UNL     1       2.118   6.906  19.659  0.00  0.00    +0.000 A 
ATOM     14  O   UNL     1       2.977   3.456  20.550  0.00  0.00    +0.000 OA
ATOM     15  C   UNL     1       3.937   2.541  20.010  0.00  0.00    +0.000 C 
ATOM     16  C   UNL     1       3.755   2.399  18.509  0.00  0.00    +0.000 C 
ATOM     17  O   UNL     1       4.024   3.645  17.854  0.00  0.00    +0.000 OA
ATOM     18  C   UNL     1       0.779  10.324  19.998  0.00  0.00    +0.000 A 
ENDROOT
BRANCH   1  20
ATOM     19  O   UNL     1      -0.444  11.653  23.011  0.00  0.00    +0.000 OA
ATOM     20  C   UNL     1      -0.402  11.498  21.792  0.00  0.00    +0.000 C 
ATOM     21  N   UNL     1      -0.971  12.392  20.895  0.00  0.00    +0.000 N 
ATOM     22  H   UNL     1      -0.765  12.342  19.907  0.00  0.00    +0.000 HD
BRANCH  21  23
ATOM     23  C   UNL     1      -1.504  13.621  21.459  0.00  0.00    +0.000 C 
BRANCH  23  24
ATOM     24  C   UNL     1      -3.020  13.875  21.308  0.00  0.00    +0.000 C 
BRANCH  24  25
ATOM     25  N   UNL     1      -3.789  12.698  21.781  0.00  0.00    +0.000 NA
ATOM     26  C   UNL     1      -5.172  12.638  21.247  0.00  0.00    +0.000 C 
ATOM     27  C   UNL     1      -6.095  13.703  21.853  0.00  0.00    +0.000 C 
ATOM     28  O   UNL     1      -6.199  13.520  23.269  0.00  0.00    +0.000 OA
ATOM     29  C   UNL     1      -4.910  13.579  23.896  0.00  0.00    +0.000 C 
ATOM     30  C   UNL     1      -3.893  12.613  23.254  0.00  0.00    +0.000 C 
ENDBRANCH  24  25
ENDBRANCH  23  24
ENDBRANCH  21  23
ENDBRANCH   1  20
TORSDOF 4
ENDMDL
MODEL 9
REMARK VINA RESULT:      -8.2      3.766     10.506
REMARK  Name = 
REMARK  4 active torsions:
REMARK  status: ('A' for Active; 'I' for Inactive)
REMARK    1  A    between atoms: C_2  and  C_12
REMARK    2  A    between atoms: N_3  and  C_4
REMARK    3  A    between atoms: C_4  and  C_5
REMARK    4  A    between atoms: C_5  and  N_6
REMARK                            x       y       z     vdW  Elec       q    Type
REMARK                         _______ _______ _______ _____ _____    ______ ____
ROOT
ATOM      1  C   UNL     1       2.092   7.186  19.459  0.00  0.00    +0.000 A 
ATOM      2  C   UNL     1       2.082   8.214  18.543  0.00  0.00    +0.000 A 
ATOM      3  N   UNL     1       1.566   9.442  18.803  0.00  0.00    +0.000 NA
ATOM      4  C   UNL     1       1.011   9.685  20.022  0.00  0.00    +0.000 A 
ATOM      5  C   UNL     1       0.973   8.669  21.004  0.00  0.00    +0.000 A 
ATOM      6  C   UNL     1       0.411   8.884  22.266  0.00  0.00    +0.000 A 
ATOM      7  C   UNL     1      -0.119  10.126  22.583  0.00  0.00    +0.000 A 
ATOM      8  C   UNL     1      -0.098  11.151  21.640  0.00  0.00    +0.000 A 
ATOM      9  C   UNL     1      -0.639  12.403  21.975  0.00  0.00    +0.000 A 
ATOM     10  C   UNL     1      -0.641  13.437  21.046  0.00  0.00    +0.000 A 
ATOM     11  C   UNL     1      -0.069  13.252  19.787  0.00  0.00    +0.000 A 
ATOM     12  C   UNL     1       0.462  12.012  19.440  0.00  0.00    +0.000 A 
ATOM     13  C   UNL     1       0.464  10.939  20.356  0.00  0.00    +0.000 A 
ATOM     14  O   UNL     1      -0.005  14.242  18.841  0.00  0.00    +0.000 OA
ATOM     15  C   UNL     1      -0.263  15.529  19.415  0.00  0.00    +0.000 C 
ATOM     16  C   UNL     1      -1.475  15.472  20.330  0.00  0.00    +0.000 C 
ATOM     17  O   UNL     1      -1.216  14.614  21.448  0.00  0.00    +0.000 OA
ATOM     18  C   UNL     1       1.510   7.421  20.703  0.00  0.00    +0.000 A 
ENDROOT
BRANCH   1  20
ATOM     19  O   UNL     1       3.225   5.288  20.131  0.00  0.00    +0.000 OA
ATOM     20  C   UNL     1       2.637   5.845  19.207  0.00  0.00    +0.000 C 
ATOM     21  N   UNL     1       2.507   5.283  17.945  0.00  0.00    +0.000 N 
ATOM     22  H   UNL     1       1.868   5.670  17.263  0.00  0.00    +0.000 HD
BRANCH  21  23
ATOM     23  C   UNL     1       2.977   3.916  17.795  0.00  0.00    +0.000 C 
BRANCH  23  24
ATOM     24  C   UNL     1       4.418   3.709  17.280  0.00  0.00    +0.000 C 
BRANCH  24  25
ATOM     25  N   UNL     1       5.033   5.014  16.933  0.00  0.00    +0.000 NA
ATOM     26  C   UNL     1       5.466   5.110  15.517  0.00  0.00    +0.000 C 
ATOM     27  C   UNL     1       6.697   4.250  15.206  0.00  0.00    +0.000 C 
ATOM     28  O   UNL     1       7.810   4.675  15.999  0.00  0.00    +0.000 OA
ATOM     29  C   UNL     1       7.507   4.604  17.400  0.00  0.00    +0.000 C 
ATOM     30  C   UNL     1       6.208   5.353  17.765  0.00  0.00    +0.000 C 
ENDBRANCH  24  25
ENDBRANCH  23  24
ENDBRANCH  21  23
ENDBRANCH   1  20
TORSDOF 4
ENDMDL
