MODEL 1
REMARK VINA RESULT:      -7.3      0.000      0.000
REMARK  Name = 
REMARK  9 active torsions:
REMARK  status: ('A' for Active; 'I' for Inactive)
REMARK    1  A    between atoms: C_1  and  O_2
REMARK    2  A    between atoms: O_2  and  C_3
REMARK    3  A    between atoms: C_5  and  C_6
REMARK    4  A    between atoms: C_6  and  C_7
REMARK    5  A    between atoms: C_13  and  N_14
REMARK    6  A    between atoms: C_16  and  O_17
REMARK    7  A    between atoms: O_17  and  C_18
REMARK    8  A    between atoms: C_19  and  O_20
REMARK    9  A    between atoms: O_20  and  C_21
REMARK                            x       y       z     vdW  Elec       q    Type
REMARK                         _______ _______ _______ _____ _____    ______ ____
ROOT
ATOM      1  C   UNL     1       3.326   2.909  17.457  0.00  0.00    +0.000 C 
ENDROOT
BRANCH   1   2
ATOM      2  C   UNL     1       2.773   2.867  18.845  0.00  0.00    +0.000 A 
ATOM      3  C   UNL     1       1.428   3.046  19.087  0.00  0.00    +0.000 A 
ATOM      4  N   UNL     1       0.849   2.885  20.288  0.00  0.00    +0.000 NA
ATOM      5  C   UNL     1       1.658   2.533  21.287  0.00  0.00    +0.000 A 
ATOM      6  N   UNL     1       1.083   2.273  22.508  0.00  0.00    +0.000 N 
ATOM      7  N   UNL     1       2.981   2.414  21.186  0.00  0.00    +0.000 NA
ATOM      8  C   UNL     1       3.523   2.568  19.972  0.00  0.00    +0.000 A 
ATOM      9  H   UNL     1       0.210   2.762  22.584  0.00  0.00    +0.000 HD
ATOM     10  H   UNL     1       1.755   2.412  23.251  0.00  0.00    +0.000 HD
BRANCH   8  11
ATOM     11  N   UNL     1       4.906   2.400  19.911  0.00  0.00    +0.000 N 
ATOM     12  H   UNL     1       5.283   3.300  19.624  0.00  0.00    +0.000 HD
ATOM     13  H   UNL     1       5.285   2.129  20.813  0.00  0.00    +0.000 HD
ENDBRANCH   8  11
ENDBRANCH   1   2
BRANCH   1  16
ATOM     14  C   UNL     1       4.444   6.573  17.279  0.00  0.00    +0.000 A 
ATOM     15  C   UNL     1       3.633   5.430  17.452  0.00  0.00    +0.000 A 
ATOM     16  C   UNL     1       4.057   4.162  17.043  0.00  0.00    +0.000 A 
ATOM     17  C   UNL     1       5.257   4.061  16.349  0.00  0.00    +0.000 A 
ATOM     18  C   UNL     1       6.096   5.169  16.179  0.00  0.00    +0.000 A 
ATOM     19  C   UNL     1       5.720   6.440  16.675  0.00  0.00    +0.000 A 
BRANCH  14  21
ATOM     20  C   UNL     1       2.692   8.156  17.823  0.00  0.00    +0.000 C 
ATOM     21  O   UNL     1       4.072   7.795  17.776  0.00  0.00    +0.000 OA
ENDBRANCH  14  21
BRANCH  18  22
ATOM     22  O   UNL     1       7.253   4.789  15.543  0.00  0.00    +0.000 OA
ATOM     23  C   UNL     1       7.326   4.766  14.128  0.00  0.00    +0.000 C 
ENDBRANCH  18  22
BRANCH  19  24
ATOM     24  O   UNL     1       6.700   7.381  16.568  0.00  0.00    +0.000 OA
ATOM     25  C   UNL     1       7.653   7.756  17.542  0.00  0.00    +0.000 C 
ENDBRANCH  19  24
ENDBRANCH   1  16
TORSDOF 6
ENDMDL
MODEL 2
REMARK VINA RESULT:      -6.8      3.510      5.964
REMARK  Name = 
REMARK  9 active torsions:
REMARK  status: ('A' for Active; 'I' for Inactive)
REMARK    1  A    between atoms: C_1  and  O_2
REMARK    2  A    between atoms: O_2  and  C_3
REMARK    3  A    between atoms: C_5  and  C_6
REMARK    4  A    between atoms: C_6  and  C_7
REMARK    5  A    between atoms: C_13  and  N_14
REMARK    6  A    between atoms: C_16  and  O_17
REMARK    7  A    between atoms: O_17  and  C_18
REMARK    8  A    between atoms: C_19  and  O_20
REMARK    9  A    between atoms: O_20  and  C_21
REMARK                            x       y       z     vdW  Elec       q    Type
REMARK                         _______ _______ _______ _____ _____    ______ ____
ROOT
ATOM      1  C   UNL     1       4.464   3.401  17.410  0.00  0.00    +0.000 C 
ENDROOT
BRANCH   1   2
ATOM      2  C   UNL     1       5.484   3.870  16.424  0.00  0.00    +0.000 A 
ATOM      3  C   UNL     1       5.206   3.930  15.076  0.00  0.00    +0.000 A 
ATOM      4  N   UNL     1       6.026   4.468  14.159  0.00  0.00    +0.000 NA
ATOM      5  C   UNL     1       7.176   4.963  14.617  0.00  0.00    +0.000 A 
ATOM      6  N   UNL     1       7.996   5.600  13.718  0.00  0.00    +0.000 N 
ATOM      7  N   UNL     1       7.584   4.885  15.883  0.00  0.00    +0.000 NA
ATOM      8  C   UNL     1       6.736   4.355  16.773  0.00  0.00    +0.000 A 
ATOM      9  H   UNL     1       7.814   5.261  12.792  0.00  0.00    +0.000 HD
ATOM     10  H   UNL     1       8.956   5.576  14.037  0.00  0.00    +0.000 HD
BRANCH   8  11
ATOM     11  N   UNL     1       7.194   4.327  18.089  0.00  0.00    +0.000 N 
ATOM     12  H   UNL     1       6.366   4.407  18.675  0.00  0.00    +0.000 HD
ATOM     13  H   UNL     1       7.687   3.463  18.291  0.00  0.00    +0.000 HD
ENDBRANCH   8  11
ENDBRANCH   1   2
BRANCH   1  16
ATOM     14  C   UNL     1       2.543   6.535  18.503  0.00  0.00    +0.000 A 
ATOM     15  C   UNL     1       3.369   5.667  17.757  0.00  0.00    +0.000 A 
ATOM     16  C   UNL     1       3.811   4.447  18.279  0.00  0.00    +0.000 A 
ATOM     17  C   UNL     1       3.517   4.153  19.605  0.00  0.00    +0.000 A 
ATOM     18  C   UNL     1       2.682   4.980  20.368  0.00  0.00    +0.000 A 
ATOM     19  C   UNL     1       2.150   6.170  19.816  0.00  0.00    +0.000 A 
BRANCH  14  21
ATOM     20  C   UNL     1       2.865   8.811  17.738  0.00  0.00    +0.000 C 
ATOM     21  O   UNL     1       2.024   7.678  17.952  0.00  0.00    +0.000 OA
ENDBRANCH  14  21
BRANCH  18  22
ATOM     22  O   UNL     1       2.476   4.426  21.607  0.00  0.00    +0.000 OA
ATOM     23  C   UNL     1       2.146   3.055  21.740  0.00  0.00    +0.000 C 
ENDBRANCH  18  22
BRANCH  19  24
ATOM     24  O   UNL     1       1.240   6.787  20.621  0.00  0.00    +0.000 OA
ATOM     25  C   UNL     1       1.311   8.084  21.177  0.00  0.00    +0.000 C 
ENDBRANCH  19  24
ENDBRANCH   1  16
TORSDOF 6
ENDMDL
MODEL 3
REMARK VINA RESULT:      -6.7      3.805      5.855
REMARK  Name = 
REMARK  9 active torsions:
REMARK  status: ('A' for Active; 'I' for Inactive)
REMARK    1  A    between atoms: C_1  and  O_2
REMARK    2  A    between atoms: O_2  and  C_3
REMARK    3  A    between atoms: C_5  and  C_6
REMARK    4  A    between atoms: C_6  and  C_7
REMARK    5  A    between atoms: C_13  and  N_14
REMARK    6  A    between atoms: C_16  and  O_17
REMARK    7  A    between atoms: O_17  and  C_18
REMARK    8  A    between atoms: C_19  and  O_20
REMARK    9  A    between atoms: O_20  and  C_21
REMARK                            x       y       z     vdW  Elec       q    Type
REMARK                         _______ _______ _______ _____ _____    ______ ____
ROOT
ATOM      1  C   UNL     1       2.772   7.777  17.834  0.00  0.00    +0.000 C 
ENDROOT
BRANCH   1   2
ATOM      2  C   UNL     1       1.940   8.283  18.967  0.00  0.00    +0.000 A 
ATOM      3  C   UNL     1       1.949   7.663  20.197  0.00  0.00    +0.000 A 
ATOM      4  N   UNL     1       1.333   8.144  21.290  0.00  0.00    +0.000 NA
ATOM      5  C   UNL     1       0.679   9.295  21.136  0.00  0.00    +0.000 A 
ATOM      6  N   UNL     1       0.116   9.859  22.256  0.00  0.00    +0.000 N 
ATOM      7  N   UNL     1       0.535   9.937  19.978  0.00  0.00    +0.000 NA
ATOM      8  C   UNL     1       1.172   9.437  18.912  0.00  0.00    +0.000 A 
ATOM      9  H   UNL     1      -0.070   9.148  22.938  0.00  0.00    +0.000 HD
ATOM     10  H   UNL     1      -0.655  10.462  21.997  0.00  0.00    +0.000 HD
BRANCH   8  11
ATOM     11  N   UNL     1       1.019  10.163  17.732  0.00  0.00    +0.000 N 
ATOM     12  H   UNL     1       1.645   9.730  17.056  0.00  0.00    +0.000 HD
ATOM     13  H   UNL     1       0.061  10.128  17.398  0.00  0.00    +0.000 HD
ENDBRANCH   8  11
ENDBRANCH   1   2
BRANCH   1  16
ATOM     14  C   UNL     1       5.050   4.752  18.443  0.00  0.00    +0.000 A 
ATOM     15  C   UNL     1       4.619   6.056  18.112  0.00  0.00    +0.000 A 
ATOM     16  C   UNL     1       3.267   6.355  17.922  0.00  0.00    +0.000 A 
ATOM     17  C   UNL     1       2.351   5.309  17.949  0.00  0.00    +0.000 A 
ATOM     18  C   UNL     1       2.739   4.009  18.295  0.00  0.00    +0.000 A 
ATOM     19  C   UNL     1       4.093   3.715  18.584  0.00  0.00    +0.000 A 
BRANCH  14  21
ATOM     20  C   UNL     1       7.365   4.671  17.734  0.00  0.00    +0.000 C 
ATOM     21  O   UNL     1       6.362   4.485  18.733  0.00  0.00    +0.000 OA
ENDBRANCH  14  21
BRANCH  18  22
ATOM     22  O   UNL     1       1.640   3.186  18.336  0.00  0.00    +0.000 OA
ATOM     23  C   UNL     1       0.885   3.047  19.526  0.00  0.00    +0.000 C 
ENDBRANCH  18  22
BRANCH  19  24
ATOM     24  O   UNL     1       4.291   2.450  19.050  0.00  0.00    +0.000 OA
ATOM     25  C   UNL     1       4.407   2.026  20.393  0.00  0.00    +0.000 C 
ENDBRANCH  19  24
ENDBRANCH   1  16
TORSDOF 6
ENDMDL
MODEL 4
REMARK VINA RESULT:      -6.7      3.233      5.896
REMARK  Name = 
REMARK  9 active torsions:
REMARK  status: ('A' for Active; 'I' for Inactive)
REMARK    1  A    between atoms: C_1  and  O_2
REMARK    2  A    between atoms: O_2  and  C_3
REMARK    3  A    between atoms: C_5  and  C_6
REMARK    4  A    between atoms: C_6  and  C_7
REMARK    5  A    between atoms: C_13  and  N_14
REMARK    6  A    between atoms: C_16  and  O_17
REMARK    7  A    between atoms: O_17  and  C_18
REMARK    8  A    between atoms: C_19  and  O_20
REMARK    9  A    between atoms: O_20  and  C_21
REMARK                            x       y       z     vdW  Elec       q    Type
REMARK                         _______ _______ _______ _____ _____    ______ ____
ROOT
ATOM      1  C   UNL     1       4.292   3.330  17.026  0.00  0.00    +0.000 C 
ENDROOT
BRANCH   1   2
ATOM      2  C   UNL     1       5.420   3.842  16.190  0.00  0.00    +0.000 A 
ATOM      3  C   UNL     1       5.310   3.944  14.821  0.00  0.00    +0.000 A 
ATOM      4  N   UNL     1       6.230   4.520  14.030  0.00  0.00    +0.000 NA
ATOM      5  C   UNL     1       7.306   5.012  14.643  0.00  0.00    +0.000 A 
ATOM      6  N   UNL     1       8.222   5.688  13.873  0.00  0.00    +0.000 N 
ATOM      7  N   UNL     1       7.555   4.897  15.947  0.00  0.00    +0.000 NA
ATOM      8  C   UNL     1       6.612   4.328  16.707  0.00  0.00    +0.000 A 
ATOM      9  H   UNL     1       8.162   5.377  12.922  0.00  0.00    +0.000 HD
ATOM     10  H   UNL     1       9.136   5.662  14.309  0.00  0.00    +0.000 HD
BRANCH   8  11
ATOM     11  N   UNL     1       6.904   4.261  18.069  0.00  0.00    +0.000 N 
ATOM     12  H   UNL     1       7.829   4.671  18.176  0.00  0.00    +0.000 HD
ATOM     13  H   UNL     1       6.224   4.777  18.618  0.00  0.00    +0.000 HD
ENDBRANCH   8  11
ENDBRANCH   1   2
BRANCH   1  16
ATOM     14  C   UNL     1       2.569   4.961  20.039  0.00  0.00    +0.000 A 
ATOM     15  C   UNL     1       3.030   3.982  19.131  0.00  0.00    +0.000 A 
ATOM     16  C   UNL     1       3.560   4.330  17.885  0.00  0.00    +0.000 A 
ATOM     17  C   UNL     1       3.518   5.666  17.501  0.00  0.00    +0.000 A 
ATOM     18  C   UNL     1       3.088   6.665  18.383  0.00  0.00    +0.000 A 
ATOM     19  C   UNL     1       2.640   6.332  19.684  0.00  0.00    +0.000 A 
BRANCH  14  21
ATOM     20  C   UNL     1       1.878   3.262  21.621  0.00  0.00    +0.000 C 
ATOM     21  O   UNL     1       2.150   4.626  21.300  0.00  0.00    +0.000 OA
ENDBRANCH  14  21
BRANCH  18  22
ATOM     22  O   UNL     1       3.227   7.900  17.798  0.00  0.00    +0.000 OA
ATOM     23  C   UNL     1       2.102   8.740  17.608  0.00  0.00    +0.000 C 
ENDBRANCH  18  22
BRANCH  19  24
ATOM     24  O   UNL     1       2.400   7.416  20.474  0.00  0.00    +0.000 OA
ATOM     25  C   UNL     1       1.164   7.847  21.006  0.00  0.00    +0.000 C 
ENDBRANCH  19  24
ENDBRANCH   1  16
TORSDOF 6
ENDMDL
MODEL 5
REMARK VINA RESULT:      -6.6      3.827      6.721
REMARK  Name = 
REMARK  9 active torsions:
REMARK  status: ('A' for Active; 'I' for Inactive)
REMARK    1  A    between atoms: C_1  and  O_2
REMARK    2  A    between atoms: O_2  and  C_3
REMARK    3  A    between atoms: C_5  and  C_6
REMARK    4  A    between atoms: C_6  and  C_7
REMARK    5  A    between atoms: C_13  and  N_14
REMARK    6  A    between atoms: C_16  and  O_17
REMARK    7  A    between atoms: O_17  and  C_18
REMARK    8  A    between atoms: C_19  and  O_20
REMARK    9  A    between atoms: O_20  and  C_21
REMARK                            x       y       z     vdW  Elec       q    Type
REMARK                         _______ _______ _______ _____ _____    ______ ____
ROOT
ATOM      1  C   UNL     1       5.178   6.270  17.948  0.00  0.00    +0.000 C 
ENDROOT
BRANCH   1   2
ATOM      2  C   UNL     1       5.794   5.752  16.690  0.00  0.00    +0.000 A 
ATOM      3  C   UNL     1       5.321   6.127  15.451  0.00  0.00    +0.000 A 
ATOM      4  N   UNL     1       5.913   5.807  14.288  0.00  0.00    +0.000 NA
ATOM      5  C   UNL     1       7.024   5.077  14.376  0.00  0.00    +0.000 A 
ATOM      6  N   UNL     1       7.703   4.811  13.211  0.00  0.00    +0.000 N 
ATOM      7  N   UNL     1       7.525   4.591  15.511  0.00  0.00    +0.000 NA
ATOM      8  C   UNL     1       6.918   4.940  16.652  0.00  0.00    +0.000 A 
ATOM      9  H   UNL     1       7.072   4.854  12.433  0.00  0.00    +0.000 HD
ATOM     10  H   UNL     1       8.256   3.969  13.310  0.00  0.00    +0.000 HD
BRANCH   8  11
ATOM     11  N   UNL     1       7.499   4.435  17.815  0.00  0.00    +0.000 N 
ATOM     12  H   UNL     1       7.083   4.955  18.583  0.00  0.00    +0.000 HD
ATOM     13  H   UNL     1       7.313   3.442  17.919  0.00  0.00    +0.000 HD
ENDBRANCH   8  11
ENDBRANCH   1   2
BRANCH   1  16
ATOM     14  C   UNL     1       2.667   3.498  18.799  0.00  0.00    +0.000 A 
ATOM     15  C   UNL     1       3.676   4.230  18.134  0.00  0.00    +0.000 A 
ATOM     16  C   UNL     1       3.943   5.565  18.453  0.00  0.00    +0.000 A 
ATOM     17  C   UNL     1       3.112   6.204  19.366  0.00  0.00    +0.000 A 
ATOM     18  C   UNL     1       2.117   5.504  20.060  0.00  0.00    +0.000 A 
ATOM     19  C   UNL     1       1.901   4.127  19.813  0.00  0.00    +0.000 A 
BRANCH  14  21
ATOM     20  C   UNL     1       3.602   1.286  18.485  0.00  0.00    +0.000 C 
ATOM     21  O   UNL     1       2.478   2.162  18.559  0.00  0.00    +0.000 OA
ENDBRANCH  14  21
BRANCH  18  22
ATOM     22  O   UNL     1       1.499   6.335  20.962  0.00  0.00    +0.000 OA
ATOM     23  C   UNL     1       1.521   7.740  20.782  0.00  0.00    +0.000 C 
ENDBRANCH  18  22
BRANCH  19  24
ATOM     24  O   UNL     1       1.008   3.551  20.667  0.00  0.00    +0.000 OA
ATOM     25  C   UNL     1       1.278   2.700  21.763  0.00  0.00    +0.000 C 
ENDBRANCH  19  24
ENDBRANCH   1  16
TORSDOF 6
ENDMDL
MODEL 6
REMARK VINA RESULT:      -6.5      1.783      3.454
REMARK  Name = 
REMARK  9 active torsions:
REMARK  status: ('A' for Active; 'I' for Inactive)
REMARK    1  A    between atoms: C_1  and  O_2
REMARK    2  A    between atoms: O_2  and  C_3
REMARK    3  A    between atoms: C_5  and  C_6
REMARK    4  A    between atoms: C_6  and  C_7
REMARK    5  A    between atoms: C_13  and  N_14
REMARK    6  A    between atoms: C_16  and  O_17
REMARK    7  A    between atoms: O_17  and  C_18
REMARK    8  A    between atoms: C_19  and  O_20
REMARK    9  A    between atoms: O_20  and  C_21
REMARK                            x       y       z     vdW  Elec       q    Type
REMARK                         _______ _______ _______ _____ _____    ______ ____
ROOT
ATOM      1  C   UNL     1       3.383   5.905  17.629  0.00  0.00    +0.000 C 
ENDROOT
BRANCH   1   2
ATOM      2  C   UNL     1       2.949   5.043  18.771  0.00  0.00    +0.000 A 
ATOM      3  C   UNL     1       3.038   3.669  18.708  0.00  0.00    +0.000 A 
ATOM      4  N   UNL     1       2.795   2.849  19.743  0.00  0.00    +0.000 NA
ATOM      5  C   UNL     1       2.444   3.435  20.887  0.00  0.00    +0.000 A 
ATOM      6  N   UNL     1       2.277   2.629  21.987  0.00  0.00    +0.000 N 
ATOM      7  N   UNL     1       2.247   4.744  21.039  0.00  0.00    +0.000 NA
ATOM      8  C   UNL     1       2.511   5.534  19.992  0.00  0.00    +0.000 A 
ATOM      9  H   UNL     1       2.050   1.697  21.695  0.00  0.00    +0.000 HD
ATOM     10  H   UNL     1       1.653   3.067  22.654  0.00  0.00    +0.000 HD
BRANCH   8  11
ATOM     11  N   UNL     1       2.322   6.897  20.211  0.00  0.00    +0.000 N 
ATOM     12  H   UNL     1       3.000   7.371  19.619  0.00  0.00    +0.000 HD
ATOM     13  H   UNL     1       1.379   7.184  19.967  0.00  0.00    +0.000 HD
ENDBRANCH   8  11
ENDBRANCH   1   2
BRANCH   1  16
ATOM     14  C   UNL     1       5.821   4.280  15.155  0.00  0.00    +0.000 A 
ATOM     15  C   UNL     1       4.703   4.478  15.995  0.00  0.00    +0.000 A 
ATOM     16  C   UNL     1       4.660   5.523  16.923  0.00  0.00    +0.000 A 
ATOM     17  C   UNL     1       5.797   6.304  17.089  0.00  0.00    +0.000 A 
ATOM     18  C   UNL     1       6.915   6.150  16.259  0.00  0.00    +0.000 A 
ATOM     19  C   UNL     1       6.931   5.157  15.251  0.00  0.00    +0.000 A 
BRANCH  14  21
ATOM     20  C   UNL     1       5.233   3.605  12.904  0.00  0.00    +0.000 C 
ATOM     21  O   UNL     1       5.818   3.322  14.175  0.00  0.00    +0.000 OA
ENDBRANCH  14  21
BRANCH  18  22
ATOM     22  O   UNL     1       7.863   7.095  16.567  0.00  0.00    +0.000 OA
ATOM     23  C   UNL     1       7.701   7.941  17.692  0.00  0.00    +0.000 C 
ENDBRANCH  18  22
BRANCH  19  24
ATOM     24  O   UNL     1       8.017   5.228  14.430  0.00  0.00    +0.000 OA
ATOM     25  C   UNL     1       8.058   5.632  13.077  0.00  0.00    +0.000 C 
ENDBRANCH  19  24
ENDBRANCH   1  16
TORSDOF 6
ENDMDL
MODEL 7
REMARK VINA RESULT:      -6.4      3.987      6.122
REMARK  Name = 
REMARK  9 active torsions:
REMARK  status: ('A' for Active; 'I' for Inactive)
REMARK    1  A    between atoms: C_1  and  O_2
REMARK    2  A    between atoms: O_2  and  C_3
REMARK    3  A    between atoms: C_5  and  C_6
REMARK    4  A    between atoms: C_6  and  C_7
REMARK    5  A    between atoms: C_13  and  N_14
REMARK    6  A    between atoms: C_16  and  O_17
REMARK    7  A    between atoms: O_17  and  C_18
REMARK    8  A    between atoms: C_19  and  O_20
REMARK    9  A    between atoms: O_20  and  C_21
REMARK                            x       y       z     vdW  Elec       q    Type
REMARK                         _______ _______ _______ _____ _____    ______ ____
ROOT
ATOM      1  C   UNL     1       5.713   6.200  18.296  0.00  0.00    +0.000 C 
ENDROOT
BRANCH   1   2
ATOM      2  C   UNL     1       6.029   5.639  16.947  0.00  0.00    +0.000 A 
ATOM      3  C   UNL     1       5.291   5.984  15.835  0.00  0.00    +0.000 A 
ATOM      4  N   UNL     1       5.604   5.625  14.579  0.00  0.00    +0.000 NA
ATOM      5  C   UNL     1       6.704   4.885  14.438  0.00  0.00    +0.000 A 
ATOM      6  N   UNL     1       7.101   4.578  13.159  0.00  0.00    +0.000 N 
ATOM      7  N   UNL     1       7.444   4.426  15.445  0.00  0.00    +0.000 NA
ATOM      8  C   UNL     1       7.111   4.813  16.682  0.00  0.00    +0.000 A 
ATOM      9  H   UNL     1       6.312   4.606  12.541  0.00  0.00    +0.000 HD
ATOM     10  H   UNL     1       7.658   3.733  13.156  0.00  0.00    +0.000 HD
BRANCH   8  11
ATOM     11  N   UNL     1       7.935   4.334  17.699  0.00  0.00    +0.000 N 
ATOM     12  H   UNL     1       8.886   4.567  17.421  0.00  0.00    +0.000 HD
ATOM     13  H   UNL     1       7.713   4.767  18.590  0.00  0.00    +0.000 HD
ENDBRANCH   8  11
ENDBRANCH   1   2
BRANCH   1  16
ATOM     14  C   UNL     1       2.484   5.465  20.229  0.00  0.00    +0.000 A 
ATOM     15  C   UNL     1       3.585   6.159  19.681  0.00  0.00    +0.000 A 
ATOM     16  C   UNL     1       4.669   5.482  19.115  0.00  0.00    +0.000 A 
ATOM     17  C   UNL     1       4.701   4.096  19.206  0.00  0.00    +0.000 A 
ATOM     18  C   UNL     1       3.618   3.374  19.724  0.00  0.00    +0.000 A 
ATOM     19  C   UNL     1       2.473   4.047  20.211  0.00  0.00    +0.000 A 
BRANCH  14  21
ATOM     20  C   UNL     1       1.406   7.549  20.832  0.00  0.00    +0.000 C 
ATOM     21  O   UNL     1       1.376   6.129  20.687  0.00  0.00    +0.000 OA
ENDBRANCH  14  21
BRANCH  18  22
ATOM     22  O   UNL     1       3.860   2.026  19.622  0.00  0.00    +0.000 OA
ATOM     23  C   UNL     1       3.632   1.341  18.402  0.00  0.00    +0.000 C 
ENDBRANCH  18  22
BRANCH  19  24
ATOM     24  O   UNL     1       1.446   3.213  20.540  0.00  0.00    +0.000 OA
ATOM     25  C   UNL     1       1.246   2.518  21.754  0.00  0.00    +0.000 C 
ENDBRANCH  19  24
ENDBRANCH   1  16
TORSDOF 6
ENDMDL
MODEL 8
REMARK VINA RESULT:      -6.4      0.600      1.472
REMARK  Name = 
REMARK  9 active torsions:
REMARK  status: ('A' for Active; 'I' for Inactive)
REMARK    1  A    between atoms: C_1  and  O_2
REMARK    2  A    between atoms: O_2  and  C_3
REMARK    3  A    between atoms: C_5  and  C_6
REMARK    4  A    between atoms: C_6  and  C_7
REMARK    5  A    between atoms: C_13  and  N_14
REMARK    6  A    between atoms: C_16  and  O_17
REMARK    7  A    between atoms: O_17  and  C_18
REMARK    8  A    between atoms: C_19  and  O_20
REMARK    9  A    between atoms: O_20  and  C_21
REMARK                            x       y       z     vdW  Elec       q    Type
REMARK                         _______ _______ _______ _____ _____    ______ ____
ROOT
ATOM      1  C   UNL     1       3.527   2.635  17.427  0.00  0.00    +0.000 C 
ENDROOT
BRANCH   1   2
ATOM      2  C   UNL     1       2.990   2.524  18.817  0.00  0.00    +0.000 A 
ATOM      3  C   UNL     1       3.828   2.488  19.911  0.00  0.00    +0.000 A 
ATOM      4  N   UNL     1       3.408   2.527  21.186  0.00  0.00    +0.000 NA
ATOM      5  C   UNL     1       2.090   2.602  21.368  0.00  0.00    +0.000 A 
ATOM      6  N   UNL     1       1.634   2.735  22.657  0.00  0.00    +0.000 N 
ATOM      7  N   UNL     1       1.186   2.560  20.390  0.00  0.00    +0.000 NA
ATOM      8  C   UNL     1       1.639   2.534  19.131  0.00  0.00    +0.000 A 
ATOM      9  H   UNL     1       2.309   2.360  23.297  0.00  0.00    +0.000 HD
ATOM     10  H   UNL     1       0.686   2.389  22.733  0.00  0.00    +0.000 HD
BRANCH   8  11
ATOM     11  N   UNL     1       0.655   2.525  18.144  0.00  0.00    +0.000 N 
ATOM     12  H   UNL     1       0.736   1.624  17.678  0.00  0.00    +0.000 HD
ATOM     13  H   UNL     1      -0.271   2.634  18.544  0.00  0.00    +0.000 HD
ENDBRANCH   8  11
ENDBRANCH   1   2
BRANCH   1  16
ATOM     14  C   UNL     1       4.355   6.378  17.315  0.00  0.00    +0.000 A 
ATOM     15  C   UNL     1       3.638   5.172  17.472  0.00  0.00    +0.000 A 
ATOM     16  C   UNL     1       4.153   3.949  17.032  0.00  0.00    +0.000 A 
ATOM     17  C   UNL     1       5.348   3.955  16.322  0.00  0.00    +0.000 A 
ATOM     18  C   UNL     1       6.097   5.128  16.166  0.00  0.00    +0.000 A 
ATOM     19  C   UNL     1       5.630   6.356  16.693  0.00  0.00    +0.000 A 
BRANCH  14  21
ATOM     20  C   UNL     1       2.571   7.635  18.366  0.00  0.00    +0.000 C 
ATOM     21  O   UNL     1       3.897   7.557  17.841  0.00  0.00    +0.000 OA
ENDBRANCH  14  21
BRANCH  18  22
ATOM     22  O   UNL     1       7.271   4.852  15.509  0.00  0.00    +0.000 OA
ATOM     23  C   UNL     1       7.325   4.852  14.093  0.00  0.00    +0.000 C 
ENDBRANCH  18  22
BRANCH  19  24
ATOM     24  O   UNL     1       6.533   7.372  16.596  0.00  0.00    +0.000 OA
ATOM     25  C   UNL     1       7.563   7.708  17.502  0.00  0.00    +0.000 C 
ENDBRANCH  19  24
ENDBRANCH   1  16
TORSDOF 6
ENDMDL
MODEL 9
REMARK VINA RESULT:      -6.4      3.936      5.684
REMARK  Name = 
REMARK  9 active torsions:
REMARK  status: ('A' for Active; 'I' for Inactive)
REMARK    1  A    between atoms: C_1  and  O_2
REMARK    2  A    between atoms: O_2  and  C_3
REMARK    3  A    between atoms: C_5  and  C_6
REMARK    4  A    between atoms: C_6  and  C_7
REMARK    5  A    between atoms: C_13  and  N_14
REMARK    6  A    between atoms: C_16  and  O_17
REMARK    7  A    between atoms: O_17  and  C_18
REMARK    8  A    between atoms: C_19  and  O_20
REMARK    9  A    between atoms: O_20  and  C_21
REMARK                            x       y       z     vdW  Elec       q    Type
REMARK                         _______ _______ _______ _____ _____    ______ ____
ROOT
ATOM      1  C   UNL     1       2.766   7.769  18.112  0.00  0.00    +0.000 C 
ENDROOT
BRANCH   1   2
ATOM      2  C   UNL     1       1.898   8.430  19.133  0.00  0.00    +0.000 A 
ATOM      3  C   UNL     1       1.780   7.924  20.410  0.00  0.00    +0.000 A 
ATOM      4  N   UNL     1       1.130   8.542  21.410  0.00  0.00    +0.000 NA
ATOM      5  C   UNL     1       0.572   9.715  21.110  0.00  0.00    +0.000 A 
ATOM      6  N   UNL     1      -0.022  10.414  22.133  0.00  0.00    +0.000 N 
ATOM      7  N   UNL     1       0.553  10.258  19.894  0.00  0.00    +0.000 NA
ATOM      8  C   UNL     1       1.222   9.622  18.924  0.00  0.00    +0.000 A 
ATOM      9  H   UNL     1      -0.305   9.782  22.858  0.00  0.00    +0.000 HD
ATOM     10  H   UNL     1      -0.729  11.041  21.768  0.00  0.00    +0.000 HD
BRANCH   8  11
ATOM     11  N   UNL     1       1.200  10.246  17.678  0.00  0.00    +0.000 N 
ATOM     12  H   UNL     1       2.132  10.123  17.289  0.00  0.00    +0.000 HD
ATOM     13  H   UNL     1       0.505   9.829  17.067  0.00  0.00    +0.000 HD
ENDBRANCH   8  11
ENDBRANCH   1   2
BRANCH   1  16
ATOM     14  C   UNL     1       2.259   3.969  17.984  0.00  0.00    +0.000 A 
ATOM     15  C   UNL     1       1.987   5.351  18.087  0.00  0.00    +0.000 A 
ATOM     16  C   UNL     1       3.009   6.288  18.266  0.00  0.00    +0.000 A 
ATOM     17  C   UNL     1       4.304   5.821  18.461  0.00  0.00    +0.000 A 
ATOM     18  C   UNL     1       4.614   4.460  18.344  0.00  0.00    +0.000 A 
ATOM     19  C   UNL     1       3.599   3.513  18.066  0.00  0.00    +0.000 A 
BRANCH  14  21
ATOM     20  C   UNL     1       0.615   2.370  18.764  0.00  0.00    +0.000 C 
ATOM     21  O   UNL     1       1.269   3.065  17.702  0.00  0.00    +0.000 OA
ENDBRANCH  14  21
BRANCH  18  22
ATOM     22  O   UNL     1       5.966   4.272  18.492  0.00  0.00    +0.000 OA
ATOM     23  C   UNL     1       6.862   4.623  17.452  0.00  0.00    +0.000 C 
ENDBRANCH  18  22
BRANCH  19  24
ATOM     24  O   UNL     1       4.073   2.257  17.832  0.00  0.00    +0.000 OA
ATOM     25  C   UNL     1       3.985   1.124  18.673  0.00  0.00    +0.000 C 
ENDBRANCH  19  24
ENDBRANCH   1  16
TORSDOF 6
ENDMDL
