MODEL 1
REMARK VINA RESULT:      -6.7      0.000      0.000
REMARK  Name = 
REMARK  2 active torsions:
REMARK  status: ('A' for Active; 'I' for Inactive)
REMARK    1  A    between atoms: S_2  and  C_4
REMARK    2  A    between atoms: S_2  and  N_10
REMARK                            x       y       z     vdW  Elec       q    Type
REMARK                         _______ _______ _______ _____ _____    ______ ____
ROOT
ATOM      1  N   UNL     1       2.948   4.875  18.479  0.00  0.00    +0.000 NA
ATOM      2  C   UNL     1       1.929   4.770  19.571  0.00  0.00    +0.000 C 
ATOM      3  C   UNL     1       2.064   5.886  20.628  0.00  0.00    +0.000 C 
ATOM      4  N   UNL     1       2.128   7.199  19.989  0.00  0.00    +0.000 N 
ATOM      5  C   UNL     1       1.345   8.252  20.396  0.00  0.00    +0.000 A 
ATOM      6  C   UNL     1       0.996   8.416  21.738  0.00  0.00    +0.000 A 
ATOM      7  C   UNL     1       0.168   9.467  22.128  0.00  0.00    +0.000 A 
ATOM      8  C   UNL     1      -0.314  10.336  21.165  0.00  0.00    +0.000 A 
ATOM      9  C   UNL     1       0.079  10.122  19.856  0.00  0.00    +0.000 A 
ATOM     10  N   UNL     1       0.897   9.120  19.463  0.00  0.00    +0.000 NA
ATOM     11  C   UNL     1       3.064   7.365  18.872  0.00  0.00    +0.000 C 
ATOM     12  C   UNL     1       2.889   6.235  17.844  0.00  0.00    +0.000 C 
ENDROOT
BRANCH   1  14
ATOM     13  O   UNL     1       4.428   2.882  19.113  0.00  0.00    +0.000 OA
ATOM     14  S   UNL     1       4.503   4.302  18.850  0.00  0.00    +0.000 S 
ATOM     15  O   UNL     1       5.125   5.206  19.793  0.00  0.00    +0.000 OA
BRANCH  14  16
ATOM     16  C   UNL     1       5.477   4.423  17.364  0.00  0.00    +0.000 A 
ATOM     17  C   UNL     1       6.708   5.001  17.098  0.00  0.00    +0.000 A 
ATOM     18  C   UNL     1       7.101   4.834  15.736  0.00  0.00    +0.000 A 
ATOM     19  C   UNL     1       6.148   4.142  15.030  0.00  0.00    +0.000 A 
ATOM     20 BR   UNL     1       6.298   3.745  13.206  0.00  0.00    +0.000 Br
ATOM     21  S   UNL     1       4.819   3.678  15.971  0.00  0.00    +0.000 S 
ENDBRANCH  14  16
ENDBRANCH   1  14
TORSDOF 2
ENDMDL
MODEL 2
REMARK VINA RESULT:      -6.6      1.880      2.088
REMARK  Name = 
REMARK  2 active torsions:
REMARK  status: ('A' for Active; 'I' for Inactive)
REMARK    1  A    between atoms: S_2  and  C_4
REMARK    2  A    between atoms: S_2  and  N_10
REMARK                            x       y       z     vdW  Elec       q    Type
REMARK                         _______ _______ _______ _____ _____    ______ ____
ROOT
ATOM      1  N   UNL     1       1.947   3.876  18.679  0.00  0.00    +0.000 NA
ATOM      2  C   UNL     1       1.223   4.161  19.957  0.00  0.00    +0.000 C 
ATOM      3  C   UNL     1       1.842   5.330  20.751  0.00  0.00    +0.000 C 
ATOM      4  N   UNL     1       2.028   6.498  19.891  0.00  0.00    +0.000 N 
ATOM      5  C   UNL     1       1.608   7.753  20.258  0.00  0.00    +0.000 A 
ATOM      6  C   UNL     1       1.636   8.162  21.593  0.00  0.00    +0.000 A 
ATOM      7  C   UNL     1       1.169   9.424  21.954  0.00  0.00    +0.000 A 
ATOM      8  C   UNL     1       0.664  10.260  20.973  0.00  0.00    +0.000 A 
ATOM      9  C   UNL     1       0.676   9.797  19.670  0.00  0.00    +0.000 A 
ATOM     10  N   UNL     1       1.142   8.583  19.300  0.00  0.00    +0.000 NA
ATOM     11  C   UNL     1       2.679   6.288  18.594  0.00  0.00    +0.000 C 
ATOM     12  C   UNL     1       2.026   5.119  17.839  0.00  0.00    +0.000 C 
ENDROOT
BRANCH   1  14
ATOM     13  O   UNL     1       3.302   1.823  17.962  0.00  0.00    +0.000 OA
ATOM     14  S   UNL     1       3.387   2.986  18.816  0.00  0.00    +0.000 S 
ATOM     15  O   UNL     1       3.732   2.864  20.216  0.00  0.00    +0.000 OA
BRANCH  14  16
ATOM     16  C   UNL     1       4.684   3.969  18.093  0.00  0.00    +0.000 A 
ATOM     17  C   UNL     1       5.155   4.085  16.795  0.00  0.00    +0.000 A 
ATOM     18  C   UNL     1       6.223   5.027  16.689  0.00  0.00    +0.000 A 
ATOM     19  C   UNL     1       6.516   5.578  17.912  0.00  0.00    +0.000 A 
ATOM     20 BR   UNL     1       7.873   6.841  18.178  0.00  0.00    +0.000 Br
ATOM     21  S   UNL     1       5.527   5.006  19.163  0.00  0.00    +0.000 S 
ENDBRANCH  14  16
ENDBRANCH   1  14
TORSDOF 2
ENDMDL
MODEL 3
REMARK VINA RESULT:      -6.5      3.501      4.515
REMARK  Name = 
REMARK  2 active torsions:
REMARK  status: ('A' for Active; 'I' for Inactive)
REMARK    1  A    between atoms: S_2  and  C_4
REMARK    2  A    between atoms: S_2  and  N_10
REMARK                            x       y       z     vdW  Elec       q    Type
REMARK                         _______ _______ _______ _____ _____    ______ ____
ROOT
ATOM      1  N   UNL     1       5.432   5.849  16.612  0.00  0.00    +0.000 NA
ATOM      2  C   UNL     1       4.382   4.824  16.319  0.00  0.00    +0.000 C 
ATOM      3  C   UNL     1       4.324   3.703  17.378  0.00  0.00    +0.000 C 
ATOM      4  N   UNL     1       4.255   4.267  18.725  0.00  0.00    +0.000 N 
ATOM      5  C   UNL     1       3.328   3.849  19.648  0.00  0.00    +0.000 A 
ATOM      6  C   UNL     1       2.896   2.522  19.688  0.00  0.00    +0.000 A 
ATOM      7  C   UNL     1       1.925   2.123  20.604  0.00  0.00    +0.000 A 
ATOM      8  C   UNL     1       1.386   3.064  21.464  0.00  0.00    +0.000 A 
ATOM      9  C   UNL     1       1.867   4.358  21.379  0.00  0.00    +0.000 A 
ATOM     10  N   UNL     1       2.821   4.758  20.509  0.00  0.00    +0.000 NA
ATOM     11  C   UNL     1       5.217   5.319  19.069  0.00  0.00    +0.000 C 
ATOM     12  C   UNL     1       5.234   6.414  17.990  0.00  0.00    +0.000 C 
ENDROOT
BRANCH   1  14
ATOM     13  O   UNL     1       7.401   4.250  16.968  0.00  0.00    +0.000 OA
ATOM     14  S   UNL     1       7.026   5.423  16.211  0.00  0.00    +0.000 S 
ATOM     15  O   UNL     1       7.847   6.614  16.220  0.00  0.00    +0.000 OA
BRANCH  14  16
ATOM     16  C   UNL     1       7.013   4.869  14.519  0.00  0.00    +0.000 A 
ATOM     17  C   UNL     1       7.679   5.309  13.386  0.00  0.00    +0.000 A 
ATOM     18  C   UNL     1       7.356   4.532  12.233  0.00  0.00    +0.000 A 
ATOM     19  C   UNL     1       6.456   3.542  12.542  0.00  0.00    +0.000 A 
ATOM     20 BR   UNL     1       5.778   2.331  11.285  0.00  0.00    +0.000 Br
ATOM     21  S   UNL     1       6.018   3.518  14.178  0.00  0.00    +0.000 S 
ENDBRANCH  14  16
ENDBRANCH   1  14
TORSDOF 2
ENDMDL
MODEL 4
REMARK VINA RESULT:      -6.4      3.620      4.675
REMARK  Name = 
REMARK  2 active torsions:
REMARK  status: ('A' for Active; 'I' for Inactive)
REMARK    1  A    between atoms: S_2  and  C_4
REMARK    2  A    between atoms: S_2  and  N_10
REMARK                            x       y       z     vdW  Elec       q    Type
REMARK                         _______ _______ _______ _____ _____    ______ ____
ROOT
ATOM      1  N   UNL     1       6.558   4.527  17.072  0.00  0.00    +0.000 NA
ATOM      2  C   UNL     1       6.473   4.990  18.493  0.00  0.00    +0.000 C 
ATOM      3  C   UNL     1       5.050   5.428  18.898  0.00  0.00    +0.000 C 
ATOM      4  N   UNL     1       4.072   4.402  18.540  0.00  0.00    +0.000 N 
ATOM      5  C   UNL     1       3.131   3.945  19.429  0.00  0.00    +0.000 A 
ATOM      6  C   UNL     1       2.571   4.791  20.389  0.00  0.00    +0.000 A 
ATOM      7  C   UNL     1       1.648   4.301  21.310  0.00  0.00    +0.000 A 
ATOM      8  C   UNL     1       1.303   2.961  21.268  0.00  0.00    +0.000 A 
ATOM      9  C   UNL     1       1.886   2.181  20.285  0.00  0.00    +0.000 A 
ATOM     10  N   UNL     1       2.769   2.644  19.373  0.00  0.00    +0.000 NA
ATOM     11  C   UNL     1       4.128   3.857  17.180  0.00  0.00    +0.000 C 
ATOM     12  C   UNL     1       5.562   3.430  16.824  0.00  0.00    +0.000 C 
ENDROOT
BRANCH   1  14
ATOM     13  O   UNL     1       7.857   6.483  16.047  0.00  0.00    +0.000 OA
ATOM     14  S   UNL     1       6.623   5.745  15.890  0.00  0.00    +0.000 S 
ATOM     15  O   UNL     1       5.347   6.423  15.843  0.00  0.00    +0.000 OA
BRANCH  14  16
ATOM     16  C   UNL     1       6.790   4.938  14.311  0.00  0.00    +0.000 A 
ATOM     17  C   UNL     1       7.719   5.065  13.291  0.00  0.00    +0.000 A 
ATOM     18  C   UNL     1       7.448   4.184  12.201  0.00  0.00    +0.000 A 
ATOM     19  C   UNL     1       6.324   3.434  12.442  0.00  0.00    +0.000 A 
ATOM     20 BR   UNL     1       5.639   2.179  11.232  0.00  0.00    +0.000 Br
ATOM     21  S   UNL     1       5.612   3.751  13.946  0.00  0.00    +0.000 S 
ENDBRANCH  14  16
ENDBRANCH   1  14
TORSDOF 2
ENDMDL
MODEL 5
REMARK VINA RESULT:      -6.3      5.856      9.153
REMARK  Name = 
REMARK  2 active torsions:
REMARK  status: ('A' for Active; 'I' for Inactive)
REMARK    1  A    between atoms: S_2  and  C_4
REMARK    2  A    between atoms: S_2  and  N_10
REMARK                            x       y       z     vdW  Elec       q    Type
REMARK                         _______ _______ _______ _____ _____    ______ ____
ROOT
ATOM      1  N   UNL     1      -0.431  10.032  19.904  0.00  0.00    +0.000 NA
ATOM      2  C   UNL     1      -0.046   9.833  18.472  0.00  0.00    +0.000 C 
ATOM      3  C   UNL     1       1.452   9.509  18.291  0.00  0.00    +0.000 C 
ATOM      4  N   UNL     1       1.856   8.421  19.181  0.00  0.00    +0.000 N 
ATOM      5  C   UNL     1       2.568   7.335  18.734  0.00  0.00    +0.000 A 
ATOM      6  C   UNL     1       3.511   7.460  17.711  0.00  0.00    +0.000 A 
ATOM      7  C   UNL     1       4.195   6.341  17.241  0.00  0.00    +0.000 A 
ATOM      8  C   UNL     1       3.918   5.103  17.794  0.00  0.00    +0.000 A 
ATOM      9  C   UNL     1       2.982   5.052  18.810  0.00  0.00    +0.000 A 
ATOM     10  N   UNL     1       2.322   6.129  19.291  0.00  0.00    +0.000 NA
ATOM     11  C   UNL     1       1.465   8.517  20.591  0.00  0.00    +0.000 C 
ATOM     12  C   UNL     1      -0.034   8.835  20.719  0.00  0.00    +0.000 C 
ENDROOT
BRANCH   1  14
ATOM     13  O   UNL     1       0.210  12.481  19.509  0.00  0.00    +0.000 OA
ATOM     14  S   UNL     1      -0.049  11.544  20.578  0.00  0.00    +0.000 S 
ATOM     15  O   UNL     1       0.900  11.352  21.653  0.00  0.00    +0.000 OA
BRANCH  14  16
ATOM     16  C   UNL     1      -1.527  12.162  21.356  0.00  0.00    +0.000 A 
ATOM     17  C   UNL     1      -2.552  12.975  20.901  0.00  0.00    +0.000 A 
ATOM     18  C   UNL     1      -3.551  13.195  21.897  0.00  0.00    +0.000 A 
ATOM     19  C   UNL     1      -3.235  12.544  23.063  0.00  0.00    +0.000 A 
ATOM     20 BR   UNL     1      -4.295  12.611  24.606  0.00  0.00    +0.000 Br
ATOM     21  S   UNL     1      -1.789  11.666  22.974  0.00  0.00    +0.000 S 
ENDBRANCH  14  16
ENDBRANCH   1  14
TORSDOF 2
ENDMDL
MODEL 6
REMARK VINA RESULT:      -6.2      5.930      9.160
REMARK  Name = 
REMARK  2 active torsions:
REMARK  status: ('A' for Active; 'I' for Inactive)
REMARK    1  A    between atoms: S_2  and  C_4
REMARK    2  A    between atoms: S_2  and  N_10
REMARK                            x       y       z     vdW  Elec       q    Type
REMARK                         _______ _______ _______ _____ _____    ______ ____
ROOT
ATOM      1  N   UNL     1      -0.477  10.042  19.941  0.00  0.00    +0.000 NA
ATOM      2  C   UNL     1      -0.072   9.889  18.509  0.00  0.00    +0.000 C 
ATOM      3  C   UNL     1       1.430   9.576  18.340  0.00  0.00    +0.000 C 
ATOM      4  N   UNL     1       1.826   8.462  19.200  0.00  0.00    +0.000 N 
ATOM      5  C   UNL     1       2.549   7.393  18.729  0.00  0.00    +0.000 A 
ATOM      6  C   UNL     1       3.505   7.554  17.725  0.00  0.00    +0.000 A 
ATOM      7  C   UNL     1       4.200   6.452  17.230  0.00  0.00    +0.000 A 
ATOM      8  C   UNL     1       3.920   5.197  17.739  0.00  0.00    +0.000 A 
ATOM      9  C   UNL     1       2.971   5.110  18.741  0.00  0.00    +0.000 A 
ATOM     10  N   UNL     1       2.300   6.170  19.245  0.00  0.00    +0.000 NA
ATOM     11  C   UNL     1       1.416   8.513  20.607  0.00  0.00    +0.000 C 
ATOM     12  C   UNL     1      -0.086   8.821  20.724  0.00  0.00    +0.000 C 
ENDROOT
BRANCH   1  14
ATOM     13  O   UNL     1      -0.092  12.558  19.648  0.00  0.00    +0.000 OA
ATOM     14  S   UNL     1      -0.110  11.533  20.668  0.00  0.00    +0.000 S 
ATOM     15  O   UNL     1       1.006  11.354  21.570  0.00  0.00    +0.000 OA
BRANCH  14  16
ATOM     16  C   UNL     1      -1.492  11.968  21.704  0.00  0.00    +0.000 A 
ATOM     17  C   UNL     1      -1.767  11.733  23.041  0.00  0.00    +0.000 A 
ATOM     18  C   UNL     1      -3.017  12.295  23.442  0.00  0.00    +0.000 A 
ATOM     19  C   UNL     1      -3.634  12.924  22.390  0.00  0.00    +0.000 A 
ATOM     20 BR   UNL     1      -5.304  13.764  22.522  0.00  0.00    +0.000 Br
ATOM     21  S   UNL     1      -2.738  12.872  20.954  0.00  0.00    +0.000 S 
ENDBRANCH  14  16
ENDBRANCH   1  14
TORSDOF 2
ENDMDL
MODEL 7
REMARK VINA RESULT:      -6.1      3.526      7.364
REMARK  Name = 
REMARK  2 active torsions:
REMARK  status: ('A' for Active; 'I' for Inactive)
REMARK    1  A    between atoms: S_2  and  C_4
REMARK    2  A    between atoms: S_2  and  N_10
REMARK                            x       y       z     vdW  Elec       q    Type
REMARK                         _______ _______ _______ _____ _____    ______ ____
ROOT
ATOM      1  N   UNL     1       4.334   5.191  18.771  0.00  0.00    +0.000 NA
ATOM      2  C   UNL     1       4.778   3.866  18.234  0.00  0.00    +0.000 C 
ATOM      3  C   UNL     1       4.493   3.702  16.726  0.00  0.00    +0.000 C 
ATOM      4  N   UNL     1       4.994   4.854  15.978  0.00  0.00    +0.000 N 
ATOM      5  C   UNL     1       5.769   4.716  14.852  0.00  0.00    +0.000 A 
ATOM      6  C   UNL     1       5.581   3.649  13.972  0.00  0.00    +0.000 A 
ATOM      7  C   UNL     1       6.402   3.501  12.856  0.00  0.00    +0.000 A 
ATOM      8  C   UNL     1       7.415   4.419  12.641  0.00  0.00    +0.000 A 
ATOM      9  C   UNL     1       7.539   5.458  13.545  0.00  0.00    +0.000 A 
ATOM     10  N   UNL     1       6.740   5.627  14.622  0.00  0.00    +0.000 NA
ATOM     11  C   UNL     1       4.648   6.189  16.475  0.00  0.00    +0.000 C 
ATOM     12  C   UNL     1       4.954   6.306  17.978  0.00  0.00    +0.000 C 
ENDROOT
BRANCH   1  14
ATOM     13  O   UNL     1       2.440   5.076  20.493  0.00  0.00    +0.000 OA
ATOM     14  S   UNL     1       2.673   5.349  19.092  0.00  0.00    +0.000 S 
ATOM     15  O   UNL     1       1.927   4.662  18.061  0.00  0.00    +0.000 OA
BRANCH  14  16
ATOM     16  C   UNL     1       2.263   7.072  18.906  0.00  0.00    +0.000 A 
ATOM     17  C   UNL     1       2.299   7.928  17.817  0.00  0.00    +0.000 A 
ATOM     18  C   UNL     1       1.857   9.244  18.150  0.00  0.00    +0.000 A 
ATOM     19  C   UNL     1       1.512   9.327  19.476  0.00  0.00    +0.000 A 
ATOM     20 BR   UNL     1       0.904  10.901  20.290  0.00  0.00    +0.000 Br
ATOM     21  S   UNL     1       1.686   7.864  20.310  0.00  0.00    +0.000 S 
ENDBRANCH  14  16
ENDBRANCH   1  14
TORSDOF 2
ENDMDL
MODEL 8
REMARK VINA RESULT:      -6.0      5.977      9.182
REMARK  Name = 
REMARK  2 active torsions:
REMARK  status: ('A' for Active; 'I' for Inactive)
REMARK    1  A    between atoms: S_2  and  C_4
REMARK    2  A    between atoms: S_2  and  N_10
REMARK                            x       y       z     vdW  Elec       q    Type
REMARK                         _______ _______ _______ _____ _____    ______ ____
ROOT
ATOM      1  N   UNL     1      -0.478   9.762  20.775  0.00  0.00    +0.000 NA
ATOM      2  C   UNL     1      -0.112   9.885  19.329  0.00  0.00    +0.000 C 
ATOM      3  C   UNL     1       1.375   9.571  19.057  0.00  0.00    +0.000 C 
ATOM      4  N   UNL     1       1.755   8.299  19.670  0.00  0.00    +0.000 N 
ATOM      5  C   UNL     1       2.432   7.326  18.976  0.00  0.00    +0.000 A 
ATOM      6  C   UNL     1       3.369   7.656  17.995  0.00  0.00    +0.000 A 
ATOM      7  C   UNL     1       4.017   6.657  17.273  0.00  0.00    +0.000 A 
ATOM      8  C   UNL     1       3.710   5.333  17.533  0.00  0.00    +0.000 A 
ATOM      9  C   UNL     1       2.781   5.075  18.525  0.00  0.00    +0.000 A 
ATOM     10  N   UNL     1       2.156   6.031  19.248  0.00  0.00    +0.000 NA
ATOM     11  C   UNL     1       1.380   8.081  21.070  0.00  0.00    +0.000 C 
ATOM     12  C   UNL     1      -0.108   8.400  21.290  0.00  0.00    +0.000 C 
ENDROOT
BRANCH   1  14
ATOM     13  O   UNL     1       1.104  11.731  21.200  0.00  0.00    +0.000 OA
ATOM     14  S   UNL     1      -0.047  11.069  21.770  0.00  0.00    +0.000 S 
ATOM     15  O   UNL     1      -0.053  10.632  23.149  0.00  0.00    +0.000 OA
BRANCH  14  16
ATOM     16  C   UNL     1      -1.352  12.275  21.650  0.00  0.00    +0.000 A 
ATOM     17  C   UNL     1      -2.201  12.632  20.615  0.00  0.00    +0.000 A 
ATOM     18  C   UNL     1      -3.113  13.663  20.996  0.00  0.00    +0.000 A 
ATOM     19  C   UNL     1      -2.910  14.043  22.299  0.00  0.00    +0.000 A 
ATOM     20 BR   UNL     1      -3.901  15.385  23.151  0.00  0.00    +0.000 Br
ATOM     21  S   UNL     1      -1.674  13.178  23.069  0.00  0.00    +0.000 S 
ENDBRANCH  14  16
ENDBRANCH   1  14
TORSDOF 2
ENDMDL
MODEL 9
REMARK VINA RESULT:      -6.0      3.573      4.786
REMARK  Name = 
REMARK  2 active torsions:
REMARK  status: ('A' for Active; 'I' for Inactive)
REMARK    1  A    between atoms: S_2  and  C_4
REMARK    2  A    between atoms: S_2  and  N_10
REMARK                            x       y       z     vdW  Elec       q    Type
REMARK                         _______ _______ _______ _____ _____    ______ ____
ROOT
ATOM      1  N   UNL     1       6.392   4.495  16.660  0.00  0.00    +0.000 NA
ATOM      2  C   UNL     1       6.229   5.210  17.965  0.00  0.00    +0.000 C 
ATOM      3  C   UNL     1       4.769   5.620  18.247  0.00  0.00    +0.000 C 
ATOM      4  N   UNL     1       3.868   4.483  18.066  0.00  0.00    +0.000 N 
ATOM      5  C   UNL     1       2.926   4.138  19.004  0.00  0.00    +0.000 A 
ATOM      6  C   UNL     1       2.282   5.110  19.773  0.00  0.00    +0.000 A 
ATOM      7  C   UNL     1       1.359   4.741  20.749  0.00  0.00    +0.000 A 
ATOM      8  C   UNL     1       1.098   3.397  20.953  0.00  0.00    +0.000 A 
ATOM      9  C   UNL     1       1.762   2.488  20.150  0.00  0.00    +0.000 A 
ATOM     10  N   UNL     1       2.647   2.829  19.186  0.00  0.00    +0.000 NA
ATOM     11  C   UNL     1       4.006   3.697  16.836  0.00  0.00    +0.000 C 
ATOM     12  C   UNL     1       5.474   3.308  16.601  0.00  0.00    +0.000 C 
ENDROOT
BRANCH   1  14
ATOM     13  O   UNL     1       7.782   5.916  15.043  0.00  0.00    +0.000 OA
ATOM     14  S   UNL     1       6.425   5.472  15.270  0.00  0.00    +0.000 S 
ATOM     15  O   UNL     1       5.330   6.415  15.333  0.00  0.00    +0.000 OA
BRANCH  14  16
ATOM     16  C   UNL     1       6.067   4.420  13.879  0.00  0.00    +0.000 A 
ATOM     17  C   UNL     1       4.877   4.021  13.292  0.00  0.00    +0.000 A 
ATOM     18  C   UNL     1       5.089   3.167  12.167  0.00  0.00    +0.000 A 
ATOM     19  C   UNL     1       6.429   2.953  11.957  0.00  0.00    +0.000 A 
ATOM     20 BR   UNL     1       7.101   1.869  10.586  0.00  0.00    +0.000 Br
ATOM     21  S   UNL     1       7.422   3.770  13.059  0.00  0.00    +0.000 S 
ENDBRANCH  14  16
ENDBRANCH   1  14
TORSDOF 2
ENDMDL
