MODEL 1
REMARK VINA RESULT:      -9.1      0.000      0.000
REMARK  Name = 
REMARK  6 active torsions:
REMARK  status: ('A' for Active; 'I' for Inactive)
REMARK    1  A    between atoms: N_1  and  C_2
REMARK    2  A    between atoms: C_2  and  C_3
REMARK    3  A    between atoms: C_2  and  C_26
REMARK    4  A    between atoms: C_3  and  C_4
REMARK    5  A    between atoms: C_10  and  C_12
REMARK    6  A    between atoms: C_16  and  C_17
REMARK                            x       y       z     vdW  Elec       q    Type
REMARK                         _______ _______ _______ _____ _____    ______ ____
ROOT
ATOM      1  C   UNL     1       2.346  16.040  18.337  0.00  0.00    +0.000 C 
ATOM      2  O   UNL     1       1.698  17.027  17.970  0.00  0.00    +0.000 OA
ATOM      3  N   UNL     1       1.740  14.902  18.845  0.00  0.00    +0.000 N 
ATOM      4  C   UNL     1       0.268  14.813  18.872  0.00  0.00    +0.000 C 
ATOM      5  C   UNL     1      -0.229  13.541  18.166  0.00  0.00    +0.000 C 
ATOM      6  N   UNL     1       0.490  12.347  18.653  0.00  0.00    +0.000 N 
ATOM      7  C   UNL     1      -0.268  11.221  19.008  0.00  0.00    +0.000 C 
ATOM      8  O   UNL     1      -1.482  11.170  18.838  0.00  0.00    +0.000 OA
ATOM      9  C   UNL     1       1.944  12.459  18.547  0.00  0.00    +0.000 C 
ATOM     10  C   UNL     1       2.429  13.687  19.326  0.00  0.00    +0.000 C 
ENDROOT
BRANCH   7  11
ATOM     11  C   UNL     1       0.374  10.030  19.623  0.00  0.00    +0.000 A 
ATOM     12  C   UNL     1       0.190   9.811  20.989  0.00  0.00    +0.000 A 
ATOM     13  C   UNL     1       0.809   8.729  21.609  0.00  0.00    +0.000 A 
ATOM     14  C   UNL     1       1.606   7.857  20.858  0.00  0.00    +0.000 A 
ATOM     15  C   UNL     1       1.830   8.056  19.484  0.00  0.00    +0.000 A 
ATOM     16  C   UNL     1       1.236   9.190  18.900  0.00  0.00    +0.000 A 
BRANCH  15  17
ATOM     17  C   UNL     1       2.652   7.117  18.677  0.00  0.00    +0.000 A 
ATOM     18  C   UNL     1       3.531   7.577  17.679  0.00  0.00    +0.000 A 
ATOM     19  C   UNL     1       4.304   6.694  16.916  0.00  0.00    +0.000 A 
ATOM     20  C   UNL     1       4.234   5.325  17.148  0.00  0.00    +0.000 A 
ATOM     21  C   UNL     1       3.391   4.841  18.140  0.00  0.00    +0.000 A 
ATOM     22  C   UNL     1       2.607   5.725  18.888  0.00  0.00    +0.000 A 
ENDBRANCH  15  17
ENDBRANCH   7  11
BRANCH   1  23
ATOM     23  C   UNL     1       3.851  15.999  18.196  0.00  0.00    +0.000 C 
BRANCH  23  24
ATOM     24  C   UNL     1       4.662  16.506  19.408  0.00  0.00    +0.000 C 
BRANCH  24  25
ATOM     25  C   UNL     1       6.082  16.838  18.892  0.00  0.00    +0.000 C 
ATOM     26  O   UNL     1       6.508  18.000  18.929  0.00  0.00    +0.000 OA
ATOM     27  N   UNL     1       6.896  15.826  18.450  0.00  0.00    +0.000 N 
ATOM     28  C   UNL     1       8.324  16.085  18.373  0.00  0.00    +0.000 C 
ATOM     29  C   UNL     1       8.901  14.713  18.340  0.00  0.00    +0.000 A 
ATOM     30  C   UNL     1      10.115  14.247  18.797  0.00  0.00    +0.000 A 
ATOM     31  C   UNL     1      10.416  12.904  18.581  0.00  0.00    +0.000 A 
ATOM     32  C   UNL     1       9.551  12.089  17.828  0.00  0.00    +0.000 A 
ATOM     33  C   UNL     1       8.280  12.546  17.473  0.00  0.00    +0.000 A 
ATOM     34  C   UNL     1       7.934  13.825  17.864  0.00  0.00    +0.000 A 
ATOM     35  C   UNL     1       6.585  14.414  18.187  0.00  0.00    +0.000 C 
ENDBRANCH  24  25
BRANCH  24  36
ATOM     36  N   UNL     1       4.075  17.734  19.995  0.00  0.00    +0.000 NA
ATOM     37  H   UNL     1       3.735  17.500  20.935  0.00  0.00    +0.000 HD
ATOM     38  H   UNL     1       3.244  17.998  19.462  0.00  0.00    +0.000 HD
ENDBRANCH  24  36
ENDBRANCH  23  24
ENDBRANCH   1  23
TORSDOF 6
ENDMDL
MODEL 2
REMARK VINA RESULT:      -9.1      4.896      9.478
REMARK  Name = 
REMARK  6 active torsions:
REMARK  status: ('A' for Active; 'I' for Inactive)
REMARK    1  A    between atoms: N_1  and  C_2
REMARK    2  A    between atoms: C_2  and  C_3
REMARK    3  A    between atoms: C_2  and  C_26
REMARK    4  A    between atoms: C_3  and  C_4
REMARK    5  A    between atoms: C_10  and  C_12
REMARK    6  A    between atoms: C_16  and  C_17
REMARK                            x       y       z     vdW  Elec       q    Type
REMARK                         _______ _______ _______ _____ _____    ______ ____
ROOT
ATOM      1  C   UNL     1       3.826   5.552  18.912  0.00  0.00    +0.000 C 
ATOM      2  O   UNL     1       4.058   4.599  19.665  0.00  0.00    +0.000 OA
ATOM      3  N   UNL     1       2.714   6.365  19.067  0.00  0.00    +0.000 N 
ATOM      4  C   UNL     1       1.816   6.157  20.218  0.00  0.00    +0.000 C 
ATOM      5  C   UNL     1       1.626   7.453  21.022  0.00  0.00    +0.000 C 
ATOM      6  N   UNL     1       1.276   8.581  20.137  0.00  0.00    +0.000 N 
ATOM      7  C   UNL     1       0.194   9.397  20.506  0.00  0.00    +0.000 C 
ATOM      8  O   UNL     1      -0.396   9.257  21.572  0.00  0.00    +0.000 OA
ATOM      9  C   UNL     1       2.230   8.786  19.049  0.00  0.00    +0.000 C 
ATOM     10  C   UNL     1       2.344   7.509  18.209  0.00  0.00    +0.000 C 
ENDROOT
BRANCH   7  11
ATOM     11  C   UNL     1      -0.295  10.472  19.604  0.00  0.00    +0.000 A 
ATOM     12  C   UNL     1      -1.349  10.179  18.737  0.00  0.00    +0.000 A 
ATOM     13  C   UNL     1      -1.807  11.147  17.849  0.00  0.00    +0.000 A 
ATOM     14  C   UNL     1      -1.218  12.417  17.835  0.00  0.00    +0.000 A 
ATOM     15  C   UNL     1      -0.142  12.743  18.679  0.00  0.00    +0.000 A 
ATOM     16  C   UNL     1       0.335  11.724  19.525  0.00  0.00    +0.000 A 
BRANCH  15  17
ATOM     17  C   UNL     1       0.470  14.097  18.688  0.00  0.00    +0.000 A 
ATOM     18  C   UNL     1      -0.310  15.257  18.856  0.00  0.00    +0.000 A 
ATOM     19  C   UNL     1       0.264  16.534  18.861  0.00  0.00    +0.000 A 
ATOM     20  C   UNL     1       1.639  16.682  18.719  0.00  0.00    +0.000 A 
ATOM     21  C   UNL     1       2.438  15.555  18.572  0.00  0.00    +0.000 A 
ATOM     22  C   UNL     1       1.858  14.283  18.549  0.00  0.00    +0.000 A 
ENDBRANCH  15  17
ENDBRANCH   7  11
BRANCH   1  23
ATOM     23  C   UNL     1       4.784   5.920  17.803  0.00  0.00    +0.000 C 
BRANCH  23  24
ATOM     24  C   UNL     1       5.981   4.967  17.592  0.00  0.00    +0.000 C 
BRANCH  24  25
ATOM     25  C   UNL     1       6.714   5.441  16.315  0.00  0.00    +0.000 C 
ATOM     26  O   UNL     1       7.690   6.199  16.395  0.00  0.00    +0.000 OA
ATOM     27  N   UNL     1       6.317   4.965  15.091  0.00  0.00    +0.000 N 
ATOM     28  C   UNL     1       7.250   5.075  13.981  0.00  0.00    +0.000 C 
ATOM     29  C   UNL     1       6.720   4.079  13.011  0.00  0.00    +0.000 A 
ATOM     30  C   UNL     1       7.376   3.323  12.065  0.00  0.00    +0.000 A 
ATOM     31  C   UNL     1       6.607   2.498  11.246  0.00  0.00    +0.000 A 
ATOM     32  C   UNL     1       5.203   2.527  11.320  0.00  0.00    +0.000 A 
ATOM     33  C   UNL     1       4.563   3.211  12.357  0.00  0.00    +0.000 A 
ATOM     34  C   UNL     1       5.363   3.870  13.269  0.00  0.00    +0.000 A 
ATOM     35  C   UNL     1       5.131   4.178  14.726  0.00  0.00    +0.000 C 
ENDBRANCH  24  25
BRANCH  24  36
ATOM     36  N   UNL     1       6.935   5.015  18.727  0.00  0.00    +0.000 NA
ATOM     37  H   UNL     1       7.762   4.468  18.463  0.00  0.00    +0.000 HD
ATOM     38  H   UNL     1       6.529   4.528  19.528  0.00  0.00    +0.000 HD
ENDBRANCH  24  36
ENDBRANCH  23  24
ENDBRANCH   1  23
TORSDOF 6
ENDMDL
MODEL 3
REMARK VINA RESULT:      -9.1      3.922      7.531
REMARK  Name = 
REMARK  6 active torsions:
REMARK  status: ('A' for Active; 'I' for Inactive)
REMARK    1  A    between atoms: N_1  and  C_2
REMARK    2  A    between atoms: C_2  and  C_3
REMARK    3  A    between atoms: C_2  and  C_26
REMARK    4  A    between atoms: C_3  and  C_4
REMARK    5  A    between atoms: C_10  and  C_12
REMARK    6  A    between atoms: C_16  and  C_17
REMARK                            x       y       z     vdW  Elec       q    Type
REMARK                         _______ _______ _______ _____ _____    ______ ____
ROOT
ATOM      1  C   UNL     1       0.340   8.266  20.789  0.00  0.00    +0.000 C 
ATOM      2  O   UNL     1      -0.588   7.919  21.528  0.00  0.00    +0.000 OA
ATOM      3  N   UNL     1       1.437   7.455  20.547  0.00  0.00    +0.000 N 
ATOM      4  C   UNL     1       1.471   6.092  21.109  0.00  0.00    +0.000 C 
ATOM      5  C   UNL     1       1.719   5.040  20.016  0.00  0.00    +0.000 C 
ATOM      6  N   UNL     1       2.874   5.411  19.174  0.00  0.00    +0.000 N 
ATOM      7  C   UNL     1       3.841   4.428  18.912  0.00  0.00    +0.000 C 
ATOM      8  O   UNL     1       3.706   3.265  19.279  0.00  0.00    +0.000 OA
ATOM      9  C   UNL     1       2.763   6.746  18.588  0.00  0.00    +0.000 C 
ATOM     10  C   UNL     1       2.600   7.789  19.699  0.00  0.00    +0.000 C 
ENDROOT
BRANCH   7  11
ATOM     11  C   UNL     1       5.090   4.760  18.180  0.00  0.00    +0.000 A 
ATOM     12  C   UNL     1       6.136   5.351  18.890  0.00  0.00    +0.000 A 
ATOM     13  C   UNL     1       7.307   5.714  18.230  0.00  0.00    +0.000 A 
ATOM     14  C   UNL     1       7.436   5.476  16.856  0.00  0.00    +0.000 A 
ATOM     15  C   UNL     1       6.397   4.901  16.103  0.00  0.00    +0.000 A 
ATOM     16  C   UNL     1       5.206   4.597  16.790  0.00  0.00    +0.000 A 
BRANCH  15  17
ATOM     17  C   UNL     1       6.539   4.620  14.651  0.00  0.00    +0.000 A 
ATOM     18  C   UNL     1       7.543   5.233  13.877  0.00  0.00    +0.000 A 
ATOM     19  C   UNL     1       7.677   4.973  12.508  0.00  0.00    +0.000 A 
ATOM     20  C   UNL     1       6.821   4.073  11.881  0.00  0.00    +0.000 A 
ATOM     21  C   UNL     1       5.834   3.436  12.623  0.00  0.00    +0.000 A 
ATOM     22  C   UNL     1       5.692   3.713  13.986  0.00  0.00    +0.000 A 
ENDBRANCH  15  17
ENDBRANCH   7  11
BRANCH   1  23
ATOM     23  C   UNL     1       0.301   9.587  20.055  0.00  0.00    +0.000 C 
BRANCH  23  24
ATOM     24  C   UNL     1       0.643  10.841  20.891  0.00  0.00    +0.000 C 
BRANCH  24  25
ATOM     25  C   UNL     1      -0.135  12.023  20.266  0.00  0.00    +0.000 C 
ATOM     26  O   UNL     1      -1.351  12.148  20.461  0.00  0.00    +0.000 OA
ATOM     27  N   UNL     1       0.543  12.973  19.545  0.00  0.00    +0.000 N 
ATOM     28  C   UNL     1      -0.103  14.258  19.334  0.00  0.00    +0.000 C 
ATOM     29  C   UNL     1       1.040  15.141  18.976  0.00  0.00    +0.000 A 
ATOM     30  C   UNL     1       1.218  16.492  19.179  0.00  0.00    +0.000 A 
ATOM     31  C   UNL     1       2.383  17.075  18.684  0.00  0.00    +0.000 A 
ATOM     32  C   UNL     1       3.285  16.322  17.911  0.00  0.00    +0.000 A 
ATOM     33  C   UNL     1       3.146  14.935  17.812  0.00  0.00    +0.000 A 
ATOM     34  C   UNL     1       2.080  14.357  18.473  0.00  0.00    +0.000 A 
ATOM     35  C   UNL     1       1.933  12.981  19.069  0.00  0.00    +0.000 C 
ENDBRANCH  24  25
BRANCH  24  36
ATOM     36  N   UNL     1       0.223  10.696  22.305  0.00  0.00    +0.000 NA
ATOM     37  H   UNL     1       0.590  11.502  22.824  0.00  0.00    +0.000 HD
ATOM     38  H   UNL     1       0.682   9.878  22.711  0.00  0.00    +0.000 HD
ENDBRANCH  24  36
ENDBRANCH  23  24
ENDBRANCH   1  23
TORSDOF 6
ENDMDL
MODEL 4
REMARK VINA RESULT:      -8.9      1.310      1.681
REMARK  Name = 
REMARK  6 active torsions:
REMARK  status: ('A' for Active; 'I' for Inactive)
REMARK    1  A    between atoms: N_1  and  C_2
REMARK    2  A    between atoms: C_2  and  C_3
REMARK    3  A    between atoms: C_2  and  C_26
REMARK    4  A    between atoms: C_3  and  C_4
REMARK    5  A    between atoms: C_10  and  C_12
REMARK    6  A    between atoms: C_16  and  C_17
REMARK                            x       y       z     vdW  Elec       q    Type
REMARK                         _______ _______ _______ _____ _____    ______ ____
ROOT
ATOM      1  C   UNL     1       1.922  15.980  19.841  0.00  0.00    +0.000 C 
ATOM      2  O   UNL     1       1.248  16.949  19.473  0.00  0.00    +0.000 OA
ATOM      3  N   UNL     1       1.408  14.694  19.885  0.00  0.00    +0.000 N 
ATOM      4  C   UNL     1       0.040  14.440  19.395  0.00  0.00    +0.000 C 
ATOM      5  C   UNL     1       0.023  13.329  18.333  0.00  0.00    +0.000 C 
ATOM      6  N   UNL     1       0.765  12.139  18.795  0.00  0.00    +0.000 N 
ATOM      7  C   UNL     1       0.153  10.884  18.650  0.00  0.00    +0.000 C 
ATOM      8  O   UNL     1      -0.920  10.743  18.073  0.00  0.00    +0.000 OA
ATOM      9  C   UNL     1       2.135  12.433  19.211  0.00  0.00    +0.000 C 
ATOM     10  C   UNL     1       2.127  13.482  20.329  0.00  0.00    +0.000 C 
ENDROOT
BRANCH   7  11
ATOM     11  C   UNL     1       0.783   9.658  19.205  0.00  0.00    +0.000 A 
ATOM     12  C   UNL     1       0.574   9.359  20.552  0.00  0.00    +0.000 A 
ATOM     13  C   UNL     1       1.181   8.242  21.119  0.00  0.00    +0.000 A 
ATOM     14  C   UNL     1       1.991   7.414  20.333  0.00  0.00    +0.000 A 
ATOM     15  C   UNL     1       2.241   7.693  18.977  0.00  0.00    +0.000 A 
ATOM     16  C   UNL     1       1.658   8.861  18.450  0.00  0.00    +0.000 A 
BRANCH  15  17
ATOM     17  C   UNL     1       3.078   6.803  18.132  0.00  0.00    +0.000 A 
ATOM     18  C   UNL     1       4.112   7.312  17.323  0.00  0.00    +0.000 A 
ATOM     19  C   UNL     1       4.899   6.474  16.523  0.00  0.00    +0.000 A 
ATOM     20  C   UNL     1       4.686   5.100  16.529  0.00  0.00    +0.000 A 
ATOM     21  C   UNL     1       3.686   4.565  17.333  0.00  0.00    +0.000 A 
ATOM     22  C   UNL     1       2.890   5.407  18.116  0.00  0.00    +0.000 A 
ENDBRANCH  15  17
ENDBRANCH   7  11
BRANCH   1  23
ATOM     23  C   UNL     1       3.378  16.140  20.211  0.00  0.00    +0.000 C 
BRANCH  23  24
ATOM     24  C   UNL     1       4.320  16.614  19.083  0.00  0.00    +0.000 C 
BRANCH  24  25
ATOM     25  C   UNL     1       5.041  15.357  18.540  0.00  0.00    +0.000 C 
ATOM     26  O   UNL     1       4.510  14.656  17.669  0.00  0.00    +0.000 OA
ATOM     27  N   UNL     1       6.304  15.057  18.984  0.00  0.00    +0.000 N 
ATOM     28  C   UNL     1       7.111  14.153  18.181  0.00  0.00    +0.000 C 
ATOM     29  C   UNL     1       8.490  14.433  18.663  0.00  0.00    +0.000 A 
ATOM     30  C   UNL     1       9.697  14.350  18.005  0.00  0.00    +0.000 A 
ATOM     31  C   UNL     1      10.854  14.625  18.732  0.00  0.00    +0.000 A 
ATOM     32  C   UNL     1      10.786  14.872  20.115  0.00  0.00    +0.000 A 
ATOM     33  C   UNL     1       9.551  15.064  20.740  0.00  0.00    +0.000 A 
ATOM     34  C   UNL     1       8.421  14.969  19.951  0.00  0.00    +0.000 A 
ATOM     35  C   UNL     1       7.079  15.643  20.086  0.00  0.00    +0.000 C 
ENDBRANCH  24  25
BRANCH  24  36
ATOM     36  N   UNL     1       3.575  17.248  17.968  0.00  0.00    +0.000 NA
ATOM     37  H   UNL     1       4.261  17.688  17.345  0.00  0.00    +0.000 HD
ATOM     38  H   UNL     1       3.009  18.015  18.335  0.00  0.00    +0.000 HD
ENDBRANCH  24  36
ENDBRANCH  23  24
ENDBRANCH   1  23
TORSDOF 6
ENDMDL
MODEL 5
REMARK VINA RESULT:      -8.9      5.948      9.374
REMARK  Name = 
REMARK  6 active torsions:
REMARK  status: ('A' for Active; 'I' for Inactive)
REMARK    1  A    between atoms: N_1  and  C_2
REMARK    2  A    between atoms: C_2  and  C_3
REMARK    3  A    between atoms: C_2  and  C_26
REMARK    4  A    between atoms: C_3  and  C_4
REMARK    5  A    between atoms: C_10  and  C_12
REMARK    6  A    between atoms: C_16  and  C_17
REMARK                            x       y       z     vdW  Elec       q    Type
REMARK                         _______ _______ _______ _____ _____    ______ ____
ROOT
ATOM      1  C   UNL     1       3.596   4.841  18.889  0.00  0.00    +0.000 C 
ATOM      2  O   UNL     1       3.820   3.827  19.560  0.00  0.00    +0.000 OA
ATOM      3  N   UNL     1       2.591   5.738  19.215  0.00  0.00    +0.000 N 
ATOM      4  C   UNL     1       1.811   5.538  20.451  0.00  0.00    +0.000 C 
ATOM      5  C   UNL     1       1.835   6.793  21.338  0.00  0.00    +0.000 C 
ATOM      6  N   UNL     1       1.496   8.001  20.560  0.00  0.00    +0.000 N 
ATOM      7  C   UNL     1       0.544   8.884  21.094  0.00  0.00    +0.000 C 
ATOM      8  O   UNL     1       0.066   8.730  22.213  0.00  0.00    +0.000 OA
ATOM      9  C   UNL     1       2.339   8.189  19.380  0.00  0.00    +0.000 C 
ATOM     10  C   UNL     1       2.236   6.961  18.467  0.00  0.00    +0.000 C 
ENDROOT
BRANCH   7  11
ATOM     11  C   UNL     1       0.062  10.052  20.313  0.00  0.00    +0.000 A 
ATOM     12  C   UNL     1       0.535  11.318  20.657  0.00  0.00    +0.000 A 
ATOM     13  C   UNL     1       0.074  12.441  19.975  0.00  0.00    +0.000 A 
ATOM     14  C   UNL     1      -0.855  12.296  18.938  0.00  0.00    +0.000 A 
ATOM     15  C   UNL     1      -1.369  11.038  18.576  0.00  0.00    +0.000 A 
ATOM     16  C   UNL     1      -0.926   9.930  19.322  0.00  0.00    +0.000 A 
BRANCH  15  17
ATOM     17  C   UNL     1      -2.334  10.875  17.457  0.00  0.00    +0.000 A 
ATOM     18  C   UNL     1      -3.561  11.565  17.436  0.00  0.00    +0.000 A 
ATOM     19  C   UNL     1      -4.473  11.411  16.385  0.00  0.00    +0.000 A 
ATOM     20  C   UNL     1      -4.170  10.576  15.314  0.00  0.00    +0.000 A 
ATOM     21  C   UNL     1      -2.958   9.897  15.297  0.00  0.00    +0.000 A 
ATOM     22  C   UNL     1      -2.058  10.041  16.358  0.00  0.00    +0.000 A 
ENDBRANCH  15  17
ENDBRANCH   7  11
BRANCH   1  23
ATOM     23  C   UNL     1       4.455   5.193  17.696  0.00  0.00    +0.000 C 
BRANCH  23  24
ATOM     24  C   UNL     1       5.917   4.697  17.741  0.00  0.00    +0.000 C 
BRANCH  24  25
ATOM     25  C   UNL     1       6.628   5.281  16.497  0.00  0.00    +0.000 C 
ATOM     26  O   UNL     1       7.565   6.080  16.626  0.00  0.00    +0.000 OA
ATOM     27  N   UNL     1       6.257   4.860  15.245  0.00  0.00    +0.000 N 
ATOM     28  C   UNL     1       7.185   5.082  14.149  0.00  0.00    +0.000 C 
ATOM     29  C   UNL     1       6.707   4.120  13.119  0.00  0.00    +0.000 A 
ATOM     30  C   UNL     1       7.402   3.454  12.132  0.00  0.00    +0.000 A 
ATOM     31  C   UNL     1       6.676   2.643  11.262  0.00  0.00    +0.000 A 
ATOM     32  C   UNL     1       5.272   2.599  11.331  0.00  0.00    +0.000 A 
ATOM     33  C   UNL     1       4.597   3.187  12.404  0.00  0.00    +0.000 A 
ATOM     34  C   UNL     1       5.362   3.829  13.357  0.00  0.00    +0.000 A 
ATOM     35  C   UNL     1       5.112   4.039  14.829  0.00  0.00    +0.000 C 
ENDBRANCH  24  25
BRANCH  24  36
ATOM     36  N   UNL     1       6.627   5.170  18.954  0.00  0.00    +0.000 NA
ATOM     37  H   UNL     1       7.223   5.959  18.680  0.00  0.00    +0.000 HD
ATOM     38  H   UNL     1       7.267   4.442  19.275  0.00  0.00    +0.000 HD
ENDBRANCH  24  36
ENDBRANCH  23  24
ENDBRANCH   1  23
TORSDOF 6
ENDMDL
MODEL 6
REMARK VINA RESULT:      -8.9      5.710      8.464
REMARK  Name = 
REMARK  6 active torsions:
REMARK  status: ('A' for Active; 'I' for Inactive)
REMARK    1  A    between atoms: N_1  and  C_2
REMARK    2  A    between atoms: C_2  and  C_3
REMARK    3  A    between atoms: C_2  and  C_26
REMARK    4  A    between atoms: C_3  and  C_4
REMARK    5  A    between atoms: C_10  and  C_12
REMARK    6  A    between atoms: C_16  and  C_17
REMARK                            x       y       z     vdW  Elec       q    Type
REMARK                         _______ _______ _______ _____ _____    ______ ____
ROOT
ATOM      1  C   UNL     1      -3.354  13.898  21.898  0.00  0.00    +0.000 C 
ATOM      2  O   UNL     1      -3.700  14.330  23.004  0.00  0.00    +0.000 OA
ATOM      3  N   UNL     1      -2.185  13.175  21.718  0.00  0.00    +0.000 N 
ATOM      4  C   UNL     1      -1.361  12.823  22.889  0.00  0.00    +0.000 C 
ATOM      5  C   UNL     1      -1.097  11.310  22.954  0.00  0.00    +0.000 C 
ATOM      6  N   UNL     1      -0.612  10.798  21.657  0.00  0.00    +0.000 N 
ATOM      7  C   UNL     1       0.518   9.965  21.658  0.00  0.00    +0.000 C 
ATOM      8  O   UNL     1       1.045   9.580  22.697  0.00  0.00    +0.000 OA
ATOM      9  C   UNL     1      -1.496  11.119  20.538  0.00  0.00    +0.000 C 
ATOM     10  C   UNL     1      -1.680  12.638  20.439  0.00  0.00    +0.000 C 
ENDROOT
BRANCH   7  11
ATOM     11  C   UNL     1       1.137   9.515  20.384  0.00  0.00    +0.000 A 
ATOM     12  C   UNL     1       1.168  10.408  19.313  0.00  0.00    +0.000 A 
ATOM     13  C   UNL     1       1.702  10.009  18.091  0.00  0.00    +0.000 A 
ATOM     14  C   UNL     1       2.218   8.716  17.943  0.00  0.00    +0.000 A 
ATOM     15  C   UNL     1       2.186   7.782  18.994  0.00  0.00    +0.000 A 
ATOM     16  C   UNL     1       1.588   8.198  20.198  0.00  0.00    +0.000 A 
BRANCH  15  17
ATOM     17  C   UNL     1       2.756   6.417  18.851  0.00  0.00    +0.000 A 
ATOM     18  C   UNL     1       3.590   6.076  17.770  0.00  0.00    +0.000 A 
ATOM     19  C   UNL     1       4.126   4.790  17.632  0.00  0.00    +0.000 A 
ATOM     20  C   UNL     1       3.858   3.815  18.587  0.00  0.00    +0.000 A 
ATOM     21  C   UNL     1       3.055   4.127  19.677  0.00  0.00    +0.000 A 
ATOM     22  C   UNL     1       2.507   5.408  19.801  0.00  0.00    +0.000 A 
ENDBRANCH  15  17
ENDBRANCH   7  11
BRANCH   1  23
ATOM     23  C   UNL     1      -4.227  14.087  20.679  0.00  0.00    +0.000 C 
BRANCH  23  24
ATOM     24  C   UNL     1      -5.693  13.622  20.812  0.00  0.00    +0.000 C 
BRANCH  24  25
ATOM     25  C   UNL     1      -6.187  13.277  19.387  0.00  0.00    +0.000 C 
ATOM     26  O   UNL     1      -7.117  13.914  18.874  0.00  0.00    +0.000 OA
ATOM     27  N   UNL     1      -5.547  12.302  18.666  0.00  0.00    +0.000 N 
ATOM     28  C   UNL     1      -5.736  12.285  17.225  0.00  0.00    +0.000 C 
ATOM     29  C   UNL     1      -4.583  11.471  16.755  0.00  0.00    +0.000 A 
ATOM     30  C   UNL     1      -3.886  11.517  15.568  0.00  0.00    +0.000 A 
ATOM     31  C   UNL     1      -2.868  10.585  15.375  0.00  0.00    +0.000 A 
ATOM     32  C   UNL     1      -2.643   9.569  16.321  0.00  0.00    +0.000 A 
ATOM     33  C   UNL     1      -3.279   9.605  17.565  0.00  0.00    +0.000 A 
ATOM     34  C   UNL     1      -4.148  10.652  17.800  0.00  0.00    +0.000 A 
ATOM     35  C   UNL     1      -4.527  11.333  19.091  0.00  0.00    +0.000 C 
ENDBRANCH  24  25
BRANCH  24  36
ATOM     36  N   UNL     1      -5.816  12.411  21.659  0.00  0.00    +0.000 NA
ATOM     37  H   UNL     1      -6.114  11.636  21.055  0.00  0.00    +0.000 HD
ATOM     38  H   UNL     1      -6.577  12.544  22.328  0.00  0.00    +0.000 HD
ENDBRANCH  24  36
ENDBRANCH  23  24
ENDBRANCH   1  23
TORSDOF 6
ENDMDL
MODEL 7
REMARK VINA RESULT:      -8.8      0.984      1.035
REMARK  Name = 
REMARK  6 active torsions:
REMARK  status: ('A' for Active; 'I' for Inactive)
REMARK    1  A    between atoms: N_1  and  C_2
REMARK    2  A    between atoms: C_2  and  C_3
REMARK    3  A    between atoms: C_2  and  C_26
REMARK    4  A    between atoms: C_3  and  C_4
REMARK    5  A    between atoms: C_10  and  C_12
REMARK    6  A    between atoms: C_16  and  C_17
REMARK                            x       y       z     vdW  Elec       q    Type
REMARK                         _______ _______ _______ _____ _____    ______ ____
ROOT
ATOM      1  C   UNL     1       1.780  15.958  19.323  0.00  0.00    +0.000 C 
ATOM      2  O   UNL     1       1.057  16.897  18.969  0.00  0.00    +0.000 OA
ATOM      3  N   UNL     1       1.290  14.676  19.511  0.00  0.00    +0.000 N 
ATOM      4  C   UNL     1      -0.121  14.383  19.195  0.00  0.00    +0.000 C 
ATOM      5  C   UNL     1      -0.243  13.203  18.218  0.00  0.00    +0.000 C 
ATOM      6  N   UNL     1       0.560  12.050  18.672  0.00  0.00    +0.000 N 
ATOM      7  C   UNL     1      -0.048  10.785  18.681  0.00  0.00    +0.000 C 
ATOM      8  O   UNL     1      -1.178  10.600  18.239  0.00  0.00    +0.000 OA
ATOM      9  C   UNL     1       1.965  12.378  18.910  0.00  0.00    +0.000 C 
ATOM     10  C   UNL     1       2.069  13.500  19.950  0.00  0.00    +0.000 C 
ENDROOT
BRANCH   7  11
ATOM     11  C   UNL     1       0.655   9.603  19.242  0.00  0.00    +0.000 A 
ATOM     12  C   UNL     1       0.497   9.322  20.600  0.00  0.00    +0.000 A 
ATOM     13  C   UNL     1       1.172   8.247  21.171  0.00  0.00    +0.000 A 
ATOM     14  C   UNL     1       2.000   7.443  20.379  0.00  0.00    +0.000 A 
ATOM     15  C   UNL     1       2.199   7.705  19.011  0.00  0.00    +0.000 A 
ATOM     16  C   UNL     1       1.547   8.833  18.478  0.00  0.00    +0.000 A 
BRANCH  15  17
ATOM     17  C   UNL     1       3.055   6.838  18.160  0.00  0.00    +0.000 A 
ATOM     18  C   UNL     1       4.086   7.373  17.365  0.00  0.00    +0.000 A 
ATOM     19  C   UNL     1       4.891   6.558  16.560  0.00  0.00    +0.000 A 
ATOM     20  C   UNL     1       4.699   5.181  16.547  0.00  0.00    +0.000 A 
ATOM     21  C   UNL     1       3.703   4.621  17.337  0.00  0.00    +0.000 A 
ATOM     22  C   UNL     1       2.889   5.441  18.126  0.00  0.00    +0.000 A 
ENDBRANCH  15  17
ENDBRANCH   7  11
BRANCH   1  23
ATOM     23  C   UNL     1       3.267  16.150  19.516  0.00  0.00    +0.000 C 
BRANCH  23  24
ATOM     24  C   UNL     1       4.092  16.404  18.236  0.00  0.00    +0.000 C 
BRANCH  24  25
ATOM     25  C   UNL     1       5.546  16.684  18.686  0.00  0.00    +0.000 C 
ATOM     26  O   UNL     1       5.827  17.731  19.284  0.00  0.00    +0.000 OA
ATOM     27  N   UNL     1       6.514  15.735  18.477  0.00  0.00    +0.000 N 
ATOM     28  C   UNL     1       7.736  15.824  19.259  0.00  0.00    +0.000 C 
ATOM     29  C   UNL     1       8.298  14.451  19.142  0.00  0.00    +0.000 A 
ATOM     30  C   UNL     1       9.081  13.732  20.018  0.00  0.00    +0.000 A 
ATOM     31  C   UNL     1       9.512  12.469  19.617  0.00  0.00    +0.000 A 
ATOM     32  C   UNL     1       9.242  12.001  18.318  0.00  0.00    +0.000 A 
ATOM     33  C   UNL     1       8.355  12.691  17.488  0.00  0.00    +0.000 A 
ATOM     34  C   UNL     1       7.793  13.850  17.986  0.00  0.00    +0.000 A 
ATOM     35  C   UNL     1       6.463  14.495  17.690  0.00  0.00    +0.000 C 
ENDBRANCH  24  25
BRANCH  24  36
ATOM     36  N   UNL     1       4.096  15.226  17.335  0.00  0.00    +0.000 NA
ATOM     37  H   UNL     1       3.163  15.151  16.915  0.00  0.00    +0.000 HD
ATOM     38  H   UNL     1       4.215  14.377  17.891  0.00  0.00    +0.000 HD
ENDBRANCH  24  36
ENDBRANCH  23  24
ENDBRANCH   1  23
TORSDOF 6
ENDMDL
MODEL 8
REMARK VINA RESULT:      -8.8      5.477      9.104
REMARK  Name = 
REMARK  6 active torsions:
REMARK  status: ('A' for Active; 'I' for Inactive)
REMARK    1  A    between atoms: N_1  and  C_2
REMARK    2  A    between atoms: C_2  and  C_3
REMARK    3  A    between atoms: C_2  and  C_26
REMARK    4  A    between atoms: C_3  and  C_4
REMARK    5  A    between atoms: C_10  and  C_12
REMARK    6  A    between atoms: C_16  and  C_17
REMARK                            x       y       z     vdW  Elec       q    Type
REMARK                         _______ _______ _______ _____ _____    ______ ____
ROOT
ATOM      1  C   UNL     1       0.692   8.201  20.879  0.00  0.00    +0.000 C 
ATOM      2  O   UNL     1      -0.329   7.929  21.521  0.00  0.00    +0.000 OA
ATOM      3  N   UNL     1       1.628   7.240  20.533  0.00  0.00    +0.000 N 
ATOM      4  C   UNL     1       1.368   5.824  20.854  0.00  0.00    +0.000 C 
ATOM      5  C   UNL     1       1.479   4.936  19.604  0.00  0.00    +0.000 C 
ATOM      6  N   UNL     1       2.732   5.203  18.871  0.00  0.00    +0.000 N 
ATOM      7  C   UNL     1       3.510   4.104  18.473  0.00  0.00    +0.000 C 
ATOM      8  O   UNL     1       3.134   2.947  18.631  0.00  0.00    +0.000 OA
ATOM      9  C   UNL     1       2.913   6.611  18.520  0.00  0.00    +0.000 C 
ATOM     10  C   UNL     1       2.883   7.471  19.789  0.00  0.00    +0.000 C 
ENDROOT
BRANCH   7  11
ATOM     11  C   UNL     1       4.842   4.298  17.845  0.00  0.00    +0.000 A 
ATOM     12  C   UNL     1       5.921   4.618  18.669  0.00  0.00    +0.000 A 
ATOM     13  C   UNL     1       7.177   4.848  18.112  0.00  0.00    +0.000 A 
ATOM     14  C   UNL     1       7.355   4.746  16.728  0.00  0.00    +0.000 A 
ATOM     15  C   UNL     1       6.288   4.445  15.863  0.00  0.00    +0.000 A 
ATOM     16  C   UNL     1       5.021   4.275  16.452  0.00  0.00    +0.000 A 
BRANCH  15  17
ATOM     17  C   UNL     1       6.478   4.309  14.396  0.00  0.00    +0.000 A 
ATOM     18  C   UNL     1       5.676   3.446  13.625  0.00  0.00    +0.000 A 
ATOM     19  C   UNL     1       5.855   3.315  12.243  0.00  0.00    +0.000 A 
ATOM     20  C   UNL     1       6.830   4.061  11.591  0.00  0.00    +0.000 A 
ATOM     21  C   UNL     1       7.625   4.937  12.321  0.00  0.00    +0.000 A 
ATOM     22  C   UNL     1       7.454   5.052  13.704  0.00  0.00    +0.000 A 
ENDBRANCH  15  17
ENDBRANCH   7  11
BRANCH   1  23
ATOM     23  C   UNL     1       0.949   9.606  20.382  0.00  0.00    +0.000 C 
BRANCH  23  24
ATOM     24  C   UNL     1       0.062  10.087  19.213  0.00  0.00    +0.000 C 
BRANCH  24  25
ATOM     25  C   UNL     1      -0.179  11.601  19.425  0.00  0.00    +0.000 C 
ATOM     26  O   UNL     1       0.258  12.426  18.613  0.00  0.00    +0.000 OA
ATOM     27  N   UNL     1      -0.937  12.023  20.488  0.00  0.00    +0.000 N 
ATOM     28  C   UNL     1      -1.495  13.364  20.437  0.00  0.00    +0.000 C 
ATOM     29  C   UNL     1      -2.588  13.300  21.444  0.00  0.00    +0.000 A 
ATOM     30  C   UNL     1      -3.784  13.981  21.503  0.00  0.00    +0.000 A 
ATOM     31  C   UNL     1      -4.604  13.757  22.608  0.00  0.00    +0.000 A 
ATOM     32  C   UNL     1      -4.167  12.945  23.669  0.00  0.00    +0.000 A 
ATOM     33  C   UNL     1      -3.007  12.176  23.540  0.00  0.00    +0.000 A 
ATOM     34  C   UNL     1      -2.309  12.277  22.353  0.00  0.00    +0.000 A 
ATOM     35  C   UNL     1      -1.444  11.268  21.642  0.00  0.00    +0.000 C 
ENDBRANCH  24  25
BRANCH  24  36
ATOM     36  N   UNL     1       0.723   9.895  17.899  0.00  0.00    +0.000 NA
ATOM     37  H   UNL     1       1.053   8.925  17.855  0.00  0.00    +0.000 HD
ATOM     38  H   UNL     1       1.564  10.473  17.858  0.00  0.00    +0.000 HD
ENDBRANCH  24  36
ENDBRANCH  23  24
ENDBRANCH   1  23
TORSDOF 6
ENDMDL
MODEL 9
REMARK VINA RESULT:      -8.8      5.626      9.074
REMARK  Name = 
REMARK  6 active torsions:
REMARK  status: ('A' for Active; 'I' for Inactive)
REMARK    1  A    between atoms: N_1  and  C_2
REMARK    2  A    between atoms: C_2  and  C_3
REMARK    3  A    between atoms: C_2  and  C_26
REMARK    4  A    between atoms: C_3  and  C_4
REMARK    5  A    between atoms: C_10  and  C_12
REMARK    6  A    between atoms: C_16  and  C_17
REMARK                            x       y       z     vdW  Elec       q    Type
REMARK                         _______ _______ _______ _____ _____    ______ ____
ROOT
ATOM      1  C   UNL     1       0.511   8.102  20.860  0.00  0.00    +0.000 C 
ATOM      2  O   UNL     1      -0.474   7.784  21.537  0.00  0.00    +0.000 OA
ATOM      3  N   UNL     1       1.519   7.204  20.551  0.00  0.00    +0.000 N 
ATOM      4  C   UNL     1       1.386   5.793  20.958  0.00  0.00    +0.000 C 
ATOM      5  C   UNL     1       1.553   4.845  19.760  0.00  0.00    +0.000 C 
ATOM      6  N   UNL     1       2.767   5.172  18.987  0.00  0.00    +0.000 N 
ATOM      7  C   UNL     1       3.629   4.121  18.638  0.00  0.00    +0.000 C 
ATOM      8  O   UNL     1       3.357   2.947  18.870  0.00  0.00    +0.000 OA
ATOM      9  C   UNL     1       2.822   6.567  18.552  0.00  0.00    +0.000 C 
ATOM     10  C   UNL     1       2.738   7.495  19.769  0.00  0.00    +0.000 C 
ENDROOT
BRANCH   7  11
ATOM     11  C   UNL     1       4.930   4.388  17.972  0.00  0.00    +0.000 A 
ATOM     12  C   UNL     1       6.000   4.817  18.759  0.00  0.00    +0.000 A 
ATOM     13  C   UNL     1       7.223   5.117  18.165  0.00  0.00    +0.000 A 
ATOM     14  C   UNL     1       7.380   4.977  16.782  0.00  0.00    +0.000 A 
ATOM     15  C   UNL     1       6.320   4.567  15.954  0.00  0.00    +0.000 A 
ATOM     16  C   UNL     1       5.082   4.326  16.577  0.00  0.00    +0.000 A 
BRANCH  15  17
ATOM     17  C   UNL     1       6.490   4.391  14.488  0.00  0.00    +0.000 A 
ATOM     18  C   UNL     1       7.500   5.065  13.776  0.00  0.00    +0.000 A 
ATOM     19  C   UNL     1       7.659   4.902  12.394  0.00  0.00    +0.000 A 
ATOM     20  C   UNL     1       6.823   4.041  11.692  0.00  0.00    +0.000 A 
ATOM     21  C   UNL     1       5.830   3.345  12.370  0.00  0.00    +0.000 A 
ATOM     22  C   UNL     1       5.663   3.525  13.747  0.00  0.00    +0.000 A 
ENDBRANCH  15  17
ENDBRANCH   7  11
BRANCH   1  23
ATOM     23  C   UNL     1       0.640   9.491  20.277  0.00  0.00    +0.000 C 
BRANCH  23  24
ATOM     24  C   UNL     1      -0.540  10.453  20.542  0.00  0.00    +0.000 C 
BRANCH  24  25
ATOM     25  C   UNL     1       0.032  11.661  21.320  0.00  0.00    +0.000 C 
ATOM     26  O   UNL     1       1.196  12.036  21.130  0.00  0.00    +0.000 OA
ATOM     27  N   UNL     1      -0.780  12.359  22.178  0.00  0.00    +0.000 N 
ATOM     28  C   UNL     1      -0.372  13.700  22.563  0.00  0.00    +0.000 C 
ATOM     29  C   UNL     1      -1.642  14.296  23.058  0.00  0.00    +0.000 A 
ATOM     30  C   UNL     1      -2.072  15.605  23.053  0.00  0.00    +0.000 A 
ATOM     31  C   UNL     1      -3.304  15.886  23.641  0.00  0.00    +0.000 A 
ATOM     32  C   UNL     1      -4.023  14.878  24.308  0.00  0.00    +0.000 A 
ATOM     33  C   UNL     1      -3.629  13.541  24.205  0.00  0.00    +0.000 A 
ATOM     34  C   UNL     1      -2.502  13.270  23.456  0.00  0.00    +0.000 A 
ATOM     35  C   UNL     1      -2.129  12.041  22.666  0.00  0.00    +0.000 C 
ENDBRANCH  24  25
BRANCH  24  36
ATOM     36  N   UNL     1      -1.145  10.947  19.282  0.00  0.00    +0.000 NA
ATOM     37  H   UNL     1      -1.662  10.169  18.857  0.00  0.00    +0.000 HD
ATOM     38  H   UNL     1      -0.403  11.177  18.619  0.00  0.00    +0.000 HD
ENDBRANCH  24  36
ENDBRANCH  23  24
ENDBRANCH   1  23
TORSDOF 6
ENDMDL
