MODEL 1
REMARK VINA RESULT:      -7.1      0.000      0.000
REMARK  Name = 
REMARK  12 active torsions:
REMARK  status: ('A' for Active; 'I' for Inactive)
REMARK    1  A    between atoms: C_1  and  C_2
REMARK    2  A    between atoms: C_2  and  C_3
REMARK    3  A    between atoms: C_3  and  C_4
REMARK    4  A    between atoms: C_4  and  C_5
REMARK    5  A    between atoms: C_5  and  C_6
REMARK    6  A    between atoms: C_6  and  C_7
REMARK    7  A    between atoms: C_7  and  C_8
REMARK    8  A    between atoms: C_8  and  O_9
REMARK    9  A    between atoms: N_26  and  C_27
REMARK   10  A    between atoms: C_27  and  C_28
REMARK   11  A    between atoms: C_31  and  O_32
REMARK   12  A    between atoms: O_32  and  C_33
REMARK                            x       y       z     vdW  Elec       q    Type
REMARK                         _______ _______ _______ _____ _____    ______ ____
ROOT
ATOM      1  C   UNL     1       9.782  11.728  20.466  0.00  0.00    +0.000 C 
ATOM      2  C   UNL     1       8.959  12.040  21.687  0.00  0.00    +0.000 A 
ATOM      3  C   UNL     1       8.862  11.273  22.850  0.00  0.00    +0.000 A 
ATOM      4  C   UNL     1       7.989  11.693  23.843  0.00  0.00    +0.000 A 
ATOM      5  C   UNL     1       7.226  12.850  23.656  0.00  0.00    +0.000 A 
ATOM      6  C   UNL     1       7.336  13.616  22.482  0.00  0.00    +0.000 A 
ATOM      7  C   UNL     1       8.208  13.219  21.477  0.00  0.00    +0.000 A 
ATOM      8  C   UNL     1       8.612  13.796  20.182  0.00  0.00    +0.000 A 
ATOM      9  C   UNL     1       9.517  12.961  19.640  0.00  0.00    +0.000 A 
ATOM     10  C   UNL     1      10.291  13.350  18.465  0.00  0.00    +0.000 A 
ATOM     11  C   UNL     1      11.274  12.521  17.921  0.00  0.00    +0.000 A 
ATOM     12  C   UNL     1      12.304  13.060  17.162  0.00  0.00    +0.000 A 
ATOM     13  C   UNL     1      12.260  14.400  16.796  0.00  0.00    +0.000 A 
ATOM     14  C   UNL     1      11.158  15.185  17.151  0.00  0.00    +0.000 A 
ATOM     15  C   UNL     1      10.185  14.670  18.018  0.00  0.00    +0.000 A 
ATOM     16  C   UNL     1       9.058  15.515  18.510  0.00  0.00    +0.000 A 
ATOM     17  O   UNL     1       8.854  16.607  17.966  0.00  0.00    +0.000 OA
ATOM     18  N   UNL     1       8.303  15.028  19.597  0.00  0.00    +0.000 N 
ENDROOT
BRANCH   1  19
ATOM     19  O   UNL     1      11.166  11.682  20.805  0.00  0.00    +0.000 OA
ATOM     20  H   UNL     1      11.321  10.866  21.304  0.00  0.00    +0.000 HD
ENDBRANCH   1  19
BRANCH   1  21
ATOM     21  C   UNL     1       9.360  10.384  19.836  0.00  0.00    +0.000 C 
BRANCH  21  22
ATOM     22  C   UNL     1       8.365  10.542  18.683  0.00  0.00    +0.000 C 
BRANCH  22  23
ATOM     23  C   UNL     1       8.368   9.384  17.694  0.00  0.00    +0.000 C 
BRANCH  23  24
ATOM     24  C   UNL     1       8.305   8.009  18.358  0.00  0.00    +0.000 C 
BRANCH  24  25
ATOM     25  C   UNL     1       7.370   7.102  17.552  0.00  0.00    +0.000 C 
BRANCH  25  27
ATOM     26  C   UNL     1       7.585   4.611  17.598  0.00  0.00    +0.000 C 
ATOM     27  C   UNL     1       7.007   5.827  18.306  0.00  0.00    +0.000 C 
ENDBRANCH  25  27
ENDBRANCH  24  25
ENDBRANCH  23  24
ENDBRANCH  22  23
ENDBRANCH  21  22
ENDBRANCH   1  21
BRANCH  18  28
ATOM     28  C   UNL     1       7.172  15.847  20.033  0.00  0.00    +0.000 C 
BRANCH  28  29
ATOM     29  C   UNL     1       5.791  15.324  19.698  0.00  0.00    +0.000 A 
ATOM     30  C   UNL     1       4.804  15.096  20.667  0.00  0.00    +0.000 A 
ATOM     31  C   UNL     1       3.592  14.497  20.316  0.00  0.00    +0.000 A 
ATOM     32  C   UNL     1       3.320  14.150  18.990  0.00  0.00    +0.000 A 
ATOM     33  C   UNL     1       4.265  14.422  18.009  0.00  0.00    +0.000 A 
ATOM     34  C   UNL     1       5.488  15.009  18.362  0.00  0.00    +0.000 A 
BRANCH  32  35
ATOM     35  O   UNL     1       2.134  13.488  18.812  0.00  0.00    +0.000 OA
ATOM     36  C   UNL     1       0.960  14.285  18.767  0.00  0.00    +0.000 C 
ENDBRANCH  32  35
ENDBRANCH  28  29
ENDBRANCH  18  28
TORSDOF 10
ENDMDL
MODEL 2
REMARK VINA RESULT:      -7.0      7.587     10.070
REMARK  Name = 
REMARK  12 active torsions:
REMARK  status: ('A' for Active; 'I' for Inactive)
REMARK    1  A    between atoms: C_1  and  C_2
REMARK    2  A    between atoms: C_2  and  C_3
REMARK    3  A    between atoms: C_3  and  C_4
REMARK    4  A    between atoms: C_4  and  C_5
REMARK    5  A    between atoms: C_5  and  C_6
REMARK    6  A    between atoms: C_6  and  C_7
REMARK    7  A    between atoms: C_7  and  C_8
REMARK    8  A    between atoms: C_8  and  O_9
REMARK    9  A    between atoms: N_26  and  C_27
REMARK   10  A    between atoms: C_27  and  C_28
REMARK   11  A    between atoms: C_31  and  O_32
REMARK   12  A    between atoms: O_32  and  C_33
REMARK                            x       y       z     vdW  Elec       q    Type
REMARK                         _______ _______ _______ _____ _____    ______ ____
ROOT
ATOM      1  C   UNL     1       0.999  12.314  20.160  0.00  0.00    +0.000 C 
ATOM      2  C   UNL     1       0.489  11.428  21.265  0.00  0.00    +0.000 A 
ATOM      3  C   UNL     1       1.019  10.200  21.667  0.00  0.00    +0.000 A 
ATOM      4  C   UNL     1       0.360   9.494  22.663  0.00  0.00    +0.000 A 
ATOM      5  C   UNL     1      -0.810  10.013  23.226  0.00  0.00    +0.000 A 
ATOM      6  C   UNL     1      -1.331  11.253  22.817  0.00  0.00    +0.000 A 
ATOM      7  C   UNL     1      -0.686  11.980  21.826  0.00  0.00    +0.000 A 
ATOM      8  C   UNL     1      -0.908  13.303  21.214  0.00  0.00    +0.000 A 
ATOM      9  C   UNL     1       0.063  13.487  20.301  0.00  0.00    +0.000 A 
ATOM     10  C   UNL     1       0.271  14.790  19.676  0.00  0.00    +0.000 A 
ATOM     11  C   UNL     1       1.308  15.016  18.768  0.00  0.00    +0.000 A 
ATOM     12  C   UNL     1       1.798  16.299  18.570  0.00  0.00    +0.000 A 
ATOM     13  C   UNL     1       1.142  17.383  19.141  0.00  0.00    +0.000 A 
ATOM     14  C   UNL     1      -0.034  17.180  19.871  0.00  0.00    +0.000 A 
ATOM     15  C   UNL     1      -0.454  15.877  20.170  0.00  0.00    +0.000 A 
ATOM     16  C   UNL     1      -1.639  15.624  21.042  0.00  0.00    +0.000 A 
ATOM     17  O   UNL     1      -2.389  16.569  21.312  0.00  0.00    +0.000 OA
ATOM     18  N   UNL     1      -1.817  14.315  21.537  0.00  0.00    +0.000 N 
ENDROOT
BRANCH   1  19
ATOM     19  O   UNL     1       2.328  12.741  20.446  0.00  0.00    +0.000 OA
ATOM     20  H   UNL     1       2.595  13.364  19.754  0.00  0.00    +0.000 HD
ENDBRANCH   1  19
BRANCH   1  21
ATOM     21  C   UNL     1       0.973  11.583  18.801  0.00  0.00    +0.000 C 
BRANCH  21  22
ATOM     22  C   UNL     1      -0.092  10.486  18.724  0.00  0.00    +0.000 C 
BRANCH  22  23
ATOM     23  C   UNL     1      -1.411  10.940  18.115  0.00  0.00    +0.000 C 
BRANCH  23  24
ATOM     24  C   UNL     1      -2.129   9.849  17.321  0.00  0.00    +0.000 C 
BRANCH  24  25
ATOM     25  C   UNL     1      -3.563  10.301  17.026  0.00  0.00    +0.000 C 
BRANCH  25  27
ATOM     26  C   UNL     1      -3.043  10.112  14.587  0.00  0.00    +0.000 C 
ATOM     27  C   UNL     1      -3.691  10.971  15.663  0.00  0.00    +0.000 C 
ENDBRANCH  25  27
ENDBRANCH  24  25
ENDBRANCH  23  24
ENDBRANCH  22  23
ENDBRANCH  21  22
ENDBRANCH   1  21
BRANCH  18  28
ATOM     28  C   UNL     1      -3.009  14.076  22.350  0.00  0.00    +0.000 C 
BRANCH  28  29
ATOM     29  C   UNL     1      -4.177  13.409  21.654  0.00  0.00    +0.000 A 
ATOM     30  C   UNL     1      -5.385  13.114  22.300  0.00  0.00    +0.000 A 
ATOM     31  C   UNL     1      -6.381  12.387  21.644  0.00  0.00    +0.000 A 
ATOM     32  C   UNL     1      -6.213  11.973  20.320  0.00  0.00    +0.000 A 
ATOM     33  C   UNL     1      -5.046  12.308  19.647  0.00  0.00    +0.000 A 
ATOM     34  C   UNL     1      -4.039  13.024  20.308  0.00  0.00    +0.000 A 
BRANCH  32  35
ATOM     35  O   UNL     1      -7.231  11.192  19.839  0.00  0.00    +0.000 OA
ATOM     36  C   UNL     1      -6.898  10.282  18.801  0.00  0.00    +0.000 C 
ENDBRANCH  32  35
ENDBRANCH  28  29
ENDBRANCH  18  28
TORSDOF 10
ENDMDL
MODEL 3
REMARK VINA RESULT:      -7.0      7.825     10.379
REMARK  Name = 
REMARK  12 active torsions:
REMARK  status: ('A' for Active; 'I' for Inactive)
REMARK    1  A    between atoms: C_1  and  C_2
REMARK    2  A    between atoms: C_2  and  C_3
REMARK    3  A    between atoms: C_3  and  C_4
REMARK    4  A    between atoms: C_4  and  C_5
REMARK    5  A    between atoms: C_5  and  C_6
REMARK    6  A    between atoms: C_6  and  C_7
REMARK    7  A    between atoms: C_7  and  C_8
REMARK    8  A    between atoms: C_8  and  O_9
REMARK    9  A    between atoms: N_26  and  C_27
REMARK   10  A    between atoms: C_27  and  C_28
REMARK   11  A    between atoms: C_31  and  O_32
REMARK   12  A    between atoms: O_32  and  C_33
REMARK                            x       y       z     vdW  Elec       q    Type
REMARK                         _______ _______ _______ _____ _____    ______ ____
ROOT
ATOM      1  C   UNL     1       0.916  12.677  20.692  0.00  0.00    +0.000 C 
ATOM      2  C   UNL     1       0.507  11.449  21.461  0.00  0.00    +0.000 A 
ATOM      3  C   UNL     1       1.029  10.162  21.324  0.00  0.00    +0.000 A 
ATOM      4  C   UNL     1       0.467   9.141  22.076  0.00  0.00    +0.000 A 
ATOM      5  C   UNL     1      -0.603   9.415  22.933  0.00  0.00    +0.000 A 
ATOM      6  C   UNL     1      -1.118  10.717  23.065  0.00  0.00    +0.000 A 
ATOM      7  C   UNL     1      -0.567  11.756  22.328  0.00  0.00    +0.000 A 
ATOM      8  C   UNL     1      -0.806  13.210  22.266  0.00  0.00    +0.000 A 
ATOM      9  C   UNL     1       0.054  13.716  21.363  0.00  0.00    +0.000 A 
ATOM     10  C   UNL     1       0.239  15.157  21.227  0.00  0.00    +0.000 A 
ATOM     11  C   UNL     1       1.167  15.701  20.336  0.00  0.00    +0.000 A 
ATOM     12  C   UNL     1       1.683  16.972  20.550  0.00  0.00    +0.000 A 
ATOM     13  C   UNL     1       1.147  17.772  21.551  0.00  0.00    +0.000 A 
ATOM     14  C   UNL     1       0.060  17.314  22.303  0.00  0.00    +0.000 A 
ATOM     15  C   UNL     1      -0.375  15.989  22.166  0.00  0.00    +0.000 A 
ATOM     16  C   UNL     1      -1.455  15.433  23.033  0.00  0.00    +0.000 A 
ATOM     17  O   UNL     1      -2.127  16.212  23.718  0.00  0.00    +0.000 OA
ATOM     18  N   UNL     1      -1.627  14.032  23.044  0.00  0.00    +0.000 N 
ENDROOT
BRANCH   1  19
ATOM     19  O   UNL     1       2.287  12.978  20.940  0.00  0.00    +0.000 OA
ATOM     20  H   UNL     1       2.320  13.770  21.497  0.00  0.00    +0.000 HD
ENDBRANCH   1  19
BRANCH   1  21
ATOM     21  C   UNL     1       0.696  12.486  19.176  0.00  0.00    +0.000 C 
BRANCH  21  22
ATOM     22  C   UNL     1      -0.777  12.555  18.765  0.00  0.00    +0.000 C 
BRANCH  22  23
ATOM     23  C   UNL     1      -1.430  11.195  18.556  0.00  0.00    +0.000 C 
BRANCH  23  24
ATOM     24  C   UNL     1      -2.928  11.272  18.262  0.00  0.00    +0.000 C 
BRANCH  24  25
ATOM     25  C   UNL     1      -3.375   9.976  17.577  0.00  0.00    +0.000 C 
BRANCH  25  27
ATOM     26  C   UNL     1      -3.152  10.821  15.234  0.00  0.00    +0.000 C 
ATOM     27  C   UNL     1      -2.692   9.767  16.230  0.00  0.00    +0.000 C 
ENDBRANCH  25  27
ENDBRANCH  24  25
ENDBRANCH  23  24
ENDBRANCH  22  23
ENDBRANCH  21  22
ENDBRANCH   1  21
BRANCH  18  28
ATOM     28  C   UNL     1      -2.721  13.510  23.861  0.00  0.00    +0.000 C 
BRANCH  28  29
ATOM     29  C   UNL     1      -3.981  13.109  23.125  0.00  0.00    +0.000 A 
ATOM     30  C   UNL     1      -4.006  12.818  21.753  0.00  0.00    +0.000 A 
ATOM     31  C   UNL     1      -5.218  12.575  21.102  0.00  0.00    +0.000 A 
ATOM     32  C   UNL     1      -6.424  12.575  21.807  0.00  0.00    +0.000 A 
ATOM     33  C   UNL     1      -6.410  12.804  23.177  0.00  0.00    +0.000 A 
ATOM     34  C   UNL     1      -5.197  13.064  23.829  0.00  0.00    +0.000 A 
BRANCH  32  35
ATOM     35  O   UNL     1      -7.536  12.414  21.024  0.00  0.00    +0.000 OA
ATOM     36  C   UNL     1      -7.627  11.203  20.288  0.00  0.00    +0.000 C 
ENDBRANCH  32  35
ENDBRANCH  28  29
ENDBRANCH  18  28
TORSDOF 10
ENDMDL
MODEL 4
REMARK VINA RESULT:      -7.0      8.107     10.693
REMARK  Name = 
REMARK  12 active torsions:
REMARK  status: ('A' for Active; 'I' for Inactive)
REMARK    1  A    between atoms: C_1  and  C_2
REMARK    2  A    between atoms: C_2  and  C_3
REMARK    3  A    between atoms: C_3  and  C_4
REMARK    4  A    between atoms: C_4  and  C_5
REMARK    5  A    between atoms: C_5  and  C_6
REMARK    6  A    between atoms: C_6  and  C_7
REMARK    7  A    between atoms: C_7  and  C_8
REMARK    8  A    between atoms: C_8  and  O_9
REMARK    9  A    between atoms: N_26  and  C_27
REMARK   10  A    between atoms: C_27  and  C_28
REMARK   11  A    between atoms: C_31  and  O_32
REMARK   12  A    between atoms: O_32  and  C_33
REMARK                            x       y       z     vdW  Elec       q    Type
REMARK                         _______ _______ _______ _____ _____    ______ ____
ROOT
ATOM      1  C   UNL     1       0.450  12.406  20.042  0.00  0.00    +0.000 C 
ATOM      2  C   UNL     1       0.232  11.374  21.116  0.00  0.00    +0.000 A 
ATOM      3  C   UNL     1       0.825  10.112  21.198  0.00  0.00    +0.000 A 
ATOM      4  C   UNL     1       0.438   9.271  22.231  0.00  0.00    +0.000 A 
ATOM      5  C   UNL     1      -0.533   9.691  23.146  0.00  0.00    +0.000 A 
ATOM      6  C   UNL     1      -1.120  10.966  23.054  0.00  0.00    +0.000 A 
ATOM      7  C   UNL     1      -0.744  11.828  22.033  0.00  0.00    +0.000 A 
ATOM      8  C   UNL     1      -1.094  13.216  21.682  0.00  0.00    +0.000 A 
ATOM      9  C   UNL     1      -0.394  13.535  20.578  0.00  0.00    +0.000 A 
ATOM     10  C   UNL     1      -0.332  14.912  20.098  0.00  0.00    +0.000 A 
ATOM     11  C   UNL     1       0.434  15.274  18.987  0.00  0.00    +0.000 A 
ATOM     12  C   UNL     1       0.878  16.580  18.838  0.00  0.00    +0.000 A 
ATOM     13  C   UNL     1       0.416  17.567  19.699  0.00  0.00    +0.000 A 
ATOM     14  C   UNL     1      -0.530  17.251  20.679  0.00  0.00    +0.000 A 
ATOM     15  C   UNL     1      -0.882  15.912  20.904  0.00  0.00    +0.000 A 
ATOM     16  C   UNL     1      -1.800  15.527  22.016  0.00  0.00    +0.000 A 
ATOM     17  O   UNL     1      -2.435  16.415  22.595  0.00  0.00    +0.000 OA
ATOM     18  N   UNL     1      -1.867  14.161  22.363  0.00  0.00    +0.000 N 
ENDROOT
BRANCH   1  19
ATOM     19  O   UNL     1       1.815  12.813  20.023  0.00  0.00    +0.000 OA
ATOM     20  H   UNL     1       2.335  12.090  19.641  0.00  0.00    +0.000 HD
ENDBRANCH   1  19
BRANCH   1  21
ATOM     21  C   UNL     1       0.054  11.861  18.654  0.00  0.00    +0.000 C 
BRANCH  21  22
ATOM     22  C   UNL     1      -1.296  11.139  18.649  0.00  0.00    +0.000 C 
BRANCH  22  23
ATOM     23  C   UNL     1      -1.409  10.034  17.608  0.00  0.00    +0.000 C 
BRANCH  23  24
ATOM     24  C   UNL     1      -2.833   9.811  17.101  0.00  0.00    +0.000 C 
BRANCH  24  25
ATOM     25  C   UNL     1      -3.770  10.825  17.766  0.00  0.00    +0.000 C 
BRANCH  25  27
ATOM     26  C   UNL     1      -5.692  12.393  17.448  0.00  0.00    +0.000 C 
ATOM     27  C   UNL     1      -4.591  11.610  16.748  0.00  0.00    +0.000 C 
ENDBRANCH  25  27
ENDBRANCH  24  25
ENDBRANCH  23  24
ENDBRANCH  22  23
ENDBRANCH  21  22
ENDBRANCH   1  21
BRANCH  18  28
ATOM     28  C   UNL     1      -2.808  13.797  23.421  0.00  0.00    +0.000 C 
BRANCH  28  29
ATOM     29  C   UNL     1      -4.198  13.394  22.978  0.00  0.00    +0.000 A 
ATOM     30  C   UNL     1      -5.263  13.212  23.872  0.00  0.00    +0.000 A 
ATOM     31  C   UNL     1      -6.490  12.720  23.421  0.00  0.00    +0.000 A 
ATOM     32  C   UNL     1      -6.697  12.436  22.069  0.00  0.00    +0.000 A 
ATOM     33  C   UNL     1      -5.670  12.666  21.162  0.00  0.00    +0.000 A 
ATOM     34  C   UNL     1      -4.433  13.145  21.614  0.00  0.00    +0.000 A 
BRANCH  32  35
ATOM     35  O   UNL     1      -7.914  11.874  21.790  0.00  0.00    +0.000 OA
ATOM     36  C   UNL     1      -7.898  10.610  21.141  0.00  0.00    +0.000 C 
ENDBRANCH  32  35
ENDBRANCH  28  29
ENDBRANCH  18  28
TORSDOF 10
ENDMDL
MODEL 5
REMARK VINA RESULT:      -7.0      7.798     10.387
REMARK  Name = 
REMARK  12 active torsions:
REMARK  status: ('A' for Active; 'I' for Inactive)
REMARK    1  A    between atoms: C_1  and  C_2
REMARK    2  A    between atoms: C_2  and  C_3
REMARK    3  A    between atoms: C_3  and  C_4
REMARK    4  A    between atoms: C_4  and  C_5
REMARK    5  A    between atoms: C_5  and  C_6
REMARK    6  A    between atoms: C_6  and  C_7
REMARK    7  A    between atoms: C_7  and  C_8
REMARK    8  A    between atoms: C_8  and  O_9
REMARK    9  A    between atoms: N_26  and  C_27
REMARK   10  A    between atoms: C_27  and  C_28
REMARK   11  A    between atoms: C_31  and  O_32
REMARK   12  A    between atoms: O_32  and  C_33
REMARK                            x       y       z     vdW  Elec       q    Type
REMARK                         _______ _______ _______ _____ _____    ______ ____
ROOT
ATOM      1  C   UNL     1       0.432  12.081  19.791  0.00  0.00    +0.000 C 
ATOM      2  C   UNL     1       0.159  11.054  20.857  0.00  0.00    +0.000 A 
ATOM      3  C   UNL     1       0.396   9.680  20.778  0.00  0.00    +0.000 A 
ATOM      4  C   UNL     1       0.006   8.884  21.845  0.00  0.00    +0.000 A 
ATOM      5  C   UNL     1      -0.617   9.463  22.955  0.00  0.00    +0.000 A 
ATOM      6  C   UNL     1      -0.846  10.848  23.025  0.00  0.00    +0.000 A 
ATOM      7  C   UNL     1      -0.459  11.666  21.972  0.00  0.00    +0.000 A 
ATOM      8  C   UNL     1      -0.485  13.122  21.741  0.00  0.00    +0.000 A 
ATOM      9  C   UNL     1       0.045  13.340  20.523  0.00  0.00    +0.000 A 
ATOM     10  C   UNL     1       0.379  14.690  20.080  0.00  0.00    +0.000 A 
ATOM     11  C   UNL     1       0.981  14.933  18.843  0.00  0.00    +0.000 A 
ATOM     12  C   UNL     1       1.723  16.089  18.639  0.00  0.00    +0.000 A 
ATOM     13  C   UNL     1       1.721  17.087  19.606  0.00  0.00    +0.000 A 
ATOM     14  C   UNL     1       0.935  16.944  20.754  0.00  0.00    +0.000 A 
ATOM     15  C   UNL     1       0.288  15.728  21.011  0.00  0.00    +0.000 A 
ATOM     16  C   UNL     1      -0.464  15.501  22.280  0.00  0.00    +0.000 A 
ATOM     17  O   UNL     1      -0.711  16.471  23.005  0.00  0.00    +0.000 OA
ATOM     18  N   UNL     1      -0.826  14.174  22.596  0.00  0.00    +0.000 N 
ENDROOT
BRANCH   1  19
ATOM     19  O   UNL     1       1.826  12.123  19.495  0.00  0.00    +0.000 OA
ATOM     20  H   UNL     1       2.020  12.991  19.110  0.00  0.00    +0.000 HD
ENDBRANCH   1  19
BRANCH   1  21
ATOM     21  C   UNL     1      -0.360  11.773  18.502  0.00  0.00    +0.000 C 
BRANCH  21  22
ATOM     22  C   UNL     1      -1.857  12.066  18.627  0.00  0.00    +0.000 C 
BRANCH  22  23
ATOM     23  C   UNL     1      -2.756  10.919  18.187  0.00  0.00    +0.000 C 
BRANCH  23  24
ATOM     24  C   UNL     1      -3.421  11.145  16.830  0.00  0.00    +0.000 C 
BRANCH  24  25
ATOM     25  C   UNL     1      -4.890  11.522  17.045  0.00  0.00    +0.000 C 
BRANCH  25  27
ATOM     26  C   UNL     1      -6.816  10.806  18.471  0.00  0.00    +0.000 C 
ATOM     27  C   UNL     1      -5.358  11.243  18.469  0.00  0.00    +0.000 C 
ENDBRANCH  25  27
ENDBRANCH  24  25
ENDBRANCH  23  24
ENDBRANCH  22  23
ENDBRANCH  21  22
ENDBRANCH   1  21
BRANCH  18  28
ATOM     28  C   UNL     1      -1.604  13.978  23.818  0.00  0.00    +0.000 C 
BRANCH  28  29
ATOM     29  C   UNL     1      -3.060  13.603  23.638  0.00  0.00    +0.000 A 
ATOM     30  C   UNL     1      -3.816  12.969  24.634  0.00  0.00    +0.000 A 
ATOM     31  C   UNL     1      -5.117  12.535  24.369  0.00  0.00    +0.000 A 
ATOM     32  C   UNL     1      -5.708  12.759  23.123  0.00  0.00    +0.000 A 
ATOM     33  C   UNL     1      -4.993  13.437  22.144  0.00  0.00    +0.000 A 
ATOM     34  C   UNL     1      -3.682  13.859  22.403  0.00  0.00    +0.000 A 
BRANCH  32  35
ATOM     35  O   UNL     1      -6.949  12.198  22.978  0.00  0.00    +0.000 OA
ATOM     36  C   UNL     1      -7.598  12.401  21.731  0.00  0.00    +0.000 C 
ENDBRANCH  32  35
ENDBRANCH  28  29
ENDBRANCH  18  28
TORSDOF 10
ENDMDL
MODEL 6
REMARK VINA RESULT:      -6.9      7.684     10.032
REMARK  Name = 
REMARK  12 active torsions:
REMARK  status: ('A' for Active; 'I' for Inactive)
REMARK    1  A    between atoms: C_1  and  C_2
REMARK    2  A    between atoms: C_2  and  C_3
REMARK    3  A    between atoms: C_3  and  C_4
REMARK    4  A    between atoms: C_4  and  C_5
REMARK    5  A    between atoms: C_5  and  C_6
REMARK    6  A    between atoms: C_6  and  C_7
REMARK    7  A    between atoms: C_7  and  C_8
REMARK    8  A    between atoms: C_8  and  O_9
REMARK    9  A    between atoms: N_26  and  C_27
REMARK   10  A    between atoms: C_27  and  C_28
REMARK   11  A    between atoms: C_31  and  O_32
REMARK   12  A    between atoms: O_32  and  C_33
REMARK                            x       y       z     vdW  Elec       q    Type
REMARK                         _______ _______ _______ _____ _____    ______ ____
ROOT
ATOM      1  C   UNL     1       0.621  12.430  20.015  0.00  0.00    +0.000 C 
ATOM      2  C   UNL     1       0.267  11.338  20.990  0.00  0.00    +0.000 A 
ATOM      3  C   UNL     1       0.504   9.970  20.838  0.00  0.00    +0.000 A 
ATOM      4  C   UNL     1       0.036   9.109  21.820  0.00  0.00    +0.000 A 
ATOM      5  C   UNL     1      -0.663   9.620  22.918  0.00  0.00    +0.000 A 
ATOM      6  C   UNL     1      -0.891  11.000  23.062  0.00  0.00    +0.000 A 
ATOM      7  C   UNL     1      -0.427  11.881  22.095  0.00  0.00    +0.000 A 
ATOM      8  C   UNL     1      -0.431  13.349  21.959  0.00  0.00    +0.000 A 
ATOM      9  C   UNL     1       0.186  13.642  20.800  0.00  0.00    +0.000 A 
ATOM     10  C   UNL     1       0.556  15.015  20.470  0.00  0.00    +0.000 A 
ATOM     11  C   UNL     1       1.247  15.333  19.299  0.00  0.00    +0.000 A 
ATOM     12  C   UNL     1       2.005  16.493  19.225  0.00  0.00    +0.000 A 
ATOM     13  C   UNL     1       1.938  17.426  20.253  0.00  0.00    +0.000 A 
ATOM     14  C   UNL     1       1.070  17.216  21.330  0.00  0.00    +0.000 A 
ATOM     15  C   UNL     1       0.402  15.991  21.459  0.00  0.00    +0.000 A 
ATOM     16  C   UNL     1      -0.440  15.688  22.653  0.00  0.00    +0.000 A 
ATOM     17  O   UNL     1      -0.734  16.611  23.421  0.00  0.00    +0.000 OA
ATOM     18  N   UNL     1      -0.829  14.347  22.855  0.00  0.00    +0.000 N 
ENDROOT
BRANCH   1  19
ATOM     19  O   UNL     1       2.032  12.480  19.824  0.00  0.00    +0.000 OA
ATOM     20  H   UNL     1       2.322  13.387  19.999  0.00  0.00    +0.000 HD
ENDBRANCH   1  19
BRANCH   1  21
ATOM     21  C   UNL     1      -0.078  12.213  18.656  0.00  0.00    +0.000 C 
BRANCH  21  22
ATOM     22  C   UNL     1      -1.606  12.238  18.750  0.00  0.00    +0.000 C 
BRANCH  22  23
ATOM     23  C   UNL     1      -2.313  11.577  17.575  0.00  0.00    +0.000 C 
BRANCH  23  24
ATOM     24  C   UNL     1      -2.424  10.058  17.702  0.00  0.00    +0.000 C 
BRANCH  24  25
ATOM     25  C   UNL     1      -2.882   9.472  16.362  0.00  0.00    +0.000 C 
BRANCH  25  27
ATOM     26  C   UNL     1      -2.983   9.945  13.908  0.00  0.00    +0.000 C 
ATOM     27  C   UNL     1      -3.095  10.547  15.301  0.00  0.00    +0.000 C 
ENDBRANCH  25  27
ENDBRANCH  24  25
ENDBRANCH  23  24
ENDBRANCH  22  23
ENDBRANCH  21  22
ENDBRANCH   1  21
BRANCH  18  28
ATOM     28  C   UNL     1      -1.694  14.078  24.002  0.00  0.00    +0.000 C 
BRANCH  28  29
ATOM     29  C   UNL     1      -3.120  13.674  23.693  0.00  0.00    +0.000 A 
ATOM     30  C   UNL     1      -3.957  13.046  24.626  0.00  0.00    +0.000 A 
ATOM     31  C   UNL     1      -5.220  12.586  24.248  0.00  0.00    +0.000 A 
ATOM     32  C   UNL     1      -5.693  12.775  22.947  0.00  0.00    +0.000 A 
ATOM     33  C   UNL     1      -4.899  13.447  22.026  0.00  0.00    +0.000 A 
ATOM     34  C   UNL     1      -3.625  13.896  22.400  0.00  0.00    +0.000 A 
BRANCH  32  35
ATOM     35  O   UNL     1      -6.906  12.190  22.696  0.00  0.00    +0.000 OA
ATOM     36  C   UNL     1      -7.785  12.892  21.829  0.00  0.00    +0.000 C 
ENDBRANCH  32  35
ENDBRANCH  28  29
ENDBRANCH  18  28
TORSDOF 10
ENDMDL
MODEL 7
REMARK VINA RESULT:      -6.8      7.890     10.626
REMARK  Name = 
REMARK  12 active torsions:
REMARK  status: ('A' for Active; 'I' for Inactive)
REMARK    1  A    between atoms: C_1  and  C_2
REMARK    2  A    between atoms: C_2  and  C_3
REMARK    3  A    between atoms: C_3  and  C_4
REMARK    4  A    between atoms: C_4  and  C_5
REMARK    5  A    between atoms: C_5  and  C_6
REMARK    6  A    between atoms: C_6  and  C_7
REMARK    7  A    between atoms: C_7  and  C_8
REMARK    8  A    between atoms: C_8  and  O_9
REMARK    9  A    between atoms: N_26  and  C_27
REMARK   10  A    between atoms: C_27  and  C_28
REMARK   11  A    between atoms: C_31  and  O_32
REMARK   12  A    between atoms: O_32  and  C_33
REMARK                            x       y       z     vdW  Elec       q    Type
REMARK                         _______ _______ _______ _____ _____    ______ ____
ROOT
ATOM      1  C   UNL     1       0.343  12.002  19.800  0.00  0.00    +0.000 C 
ATOM      2  C   UNL     1       0.104  10.974  20.873  0.00  0.00    +0.000 A 
ATOM      3  C   UNL     1       0.359   9.603  20.793  0.00  0.00    +0.000 A 
ATOM      4  C   UNL     1       0.001   8.804  21.869  0.00  0.00    +0.000 A 
ATOM      5  C   UNL     1      -0.611   9.376  22.988  0.00  0.00    +0.000 A 
ATOM      6  C   UNL     1      -0.859  10.758  23.059  0.00  0.00    +0.000 A 
ATOM      7  C   UNL     1      -0.504  11.579  21.998  0.00  0.00    +0.000 A 
ATOM      8  C   UNL     1      -0.555  13.034  21.764  0.00  0.00    +0.000 A 
ATOM      9  C   UNL     1      -0.051  13.257  20.537  0.00  0.00    +0.000 A 
ATOM     10  C   UNL     1       0.256  14.611  20.084  0.00  0.00    +0.000 A 
ATOM     11  C   UNL     1       0.832  14.859  18.836  0.00  0.00    +0.000 A 
ATOM     12  C   UNL     1       1.552  16.025  18.617  0.00  0.00    +0.000 A 
ATOM     13  C   UNL     1       1.553  17.026  19.581  0.00  0.00    +0.000 A 
ATOM     14  C   UNL     1       0.789  16.875  20.743  0.00  0.00    +0.000 A 
ATOM     15  C   UNL     1       0.165  15.649  21.014  0.00  0.00    +0.000 A 
ATOM     16  C   UNL     1      -0.560  15.414  22.297  0.00  0.00    +0.000 A 
ATOM     17  O   UNL     1      -0.808  16.383  23.024  0.00  0.00    +0.000 OA
ATOM     18  N   UNL     1      -0.897  14.083  22.622  0.00  0.00    +0.000 N 
ENDROOT
BRANCH   1  19
ATOM     19  O   UNL     1       1.729  12.064  19.479  0.00  0.00    +0.000 OA
ATOM     20  H   UNL     1       1.927  11.333  18.874  0.00  0.00    +0.000 HD
ENDBRANCH   1  19
BRANCH   1  21
ATOM     21  C   UNL     1      -0.468  11.678  18.526  0.00  0.00    +0.000 C 
BRANCH  21  22
ATOM     22  C   UNL     1      -1.799  10.981  18.817  0.00  0.00    +0.000 C 
BRANCH  22  23
ATOM     23  C   UNL     1      -3.023  11.863  18.608  0.00  0.00    +0.000 C 
BRANCH  23  24
ATOM     24  C   UNL     1      -3.613  12.412  19.906  0.00  0.00    +0.000 C 
BRANCH  24  25
ATOM     25  C   UNL     1      -5.142  12.419  19.803  0.00  0.00    +0.000 C 
BRANCH  25  27
ATOM     26  C   UNL     1      -6.957  11.873  18.172  0.00  0.00    +0.000 C 
ATOM     27  C   UNL     1      -5.660  11.390  18.804  0.00  0.00    +0.000 C 
ENDBRANCH  25  27
ENDBRANCH  24  25
ENDBRANCH  23  24
ENDBRANCH  22  23
ENDBRANCH  21  22
ENDBRANCH   1  21
BRANCH  18  28
ATOM     28  C   UNL     1      -1.650  13.878  23.859  0.00  0.00    +0.000 C 
BRANCH  28  29
ATOM     29  C   UNL     1      -3.150  13.730  23.718  0.00  0.00    +0.000 A 
ATOM     30  C   UNL     1      -3.951  14.662  23.042  0.00  0.00    +0.000 A 
ATOM     31  C   UNL     1      -5.342  14.539  23.051  0.00  0.00    +0.000 A 
ATOM     32  C   UNL     1      -5.964  13.467  23.696  0.00  0.00    +0.000 A 
ATOM     33  C   UNL     1      -5.182  12.504  24.320  0.00  0.00    +0.000 A 
ATOM     34  C   UNL     1      -3.787  12.634  24.326  0.00  0.00    +0.000 A 
BRANCH  32  35
ATOM     35  O   UNL     1      -7.333  13.527  23.700  0.00  0.00    +0.000 OA
ATOM     36  C   UNL     1      -7.916  14.780  23.371  0.00  0.00    +0.000 C 
ENDBRANCH  32  35
ENDBRANCH  28  29
ENDBRANCH  18  28
TORSDOF 10
ENDMDL
MODEL 8
REMARK VINA RESULT:      -6.8      7.822     10.327
REMARK  Name = 
REMARK  12 active torsions:
REMARK  status: ('A' for Active; 'I' for Inactive)
REMARK    1  A    between atoms: C_1  and  C_2
REMARK    2  A    between atoms: C_2  and  C_3
REMARK    3  A    between atoms: C_3  and  C_4
REMARK    4  A    between atoms: C_4  and  C_5
REMARK    5  A    between atoms: C_5  and  C_6
REMARK    6  A    between atoms: C_6  and  C_7
REMARK    7  A    between atoms: C_7  and  C_8
REMARK    8  A    between atoms: C_8  and  O_9
REMARK    9  A    between atoms: N_26  and  C_27
REMARK   10  A    between atoms: C_27  and  C_28
REMARK   11  A    between atoms: C_31  and  O_32
REMARK   12  A    between atoms: O_32  and  C_33
REMARK                            x       y       z     vdW  Elec       q    Type
REMARK                         _______ _______ _______ _____ _____    ______ ____
ROOT
ATOM      1  C   UNL     1       0.778  12.504  20.165  0.00  0.00    +0.000 C 
ATOM      2  C   UNL     1       0.322  11.580  21.261  0.00  0.00    +0.000 A 
ATOM      3  C   UNL     1       0.862  10.334  21.586  0.00  0.00    +0.000 A 
ATOM      4  C   UNL     1       0.253   9.594  22.589  0.00  0.00    +0.000 A 
ATOM      5  C   UNL     1      -0.880  10.098  23.236  0.00  0.00    +0.000 A 
ATOM      6  C   UNL     1      -1.412  11.356  22.903  0.00  0.00    +0.000 A 
ATOM      7  C   UNL     1      -0.816  12.117  21.907  0.00  0.00    +0.000 A 
ATOM      8  C   UNL     1      -1.060  13.464  21.360  0.00  0.00    +0.000 A 
ATOM      9  C   UNL     1      -0.140  13.677  20.402  0.00  0.00    +0.000 A 
ATOM     10  C   UNL     1       0.045  15.002  19.818  0.00  0.00    +0.000 A 
ATOM     11  C   UNL     1       1.032  15.257  18.863  0.00  0.00    +0.000 A 
ATOM     12  C   UNL     1       1.521  16.544  18.688  0.00  0.00    +0.000 A 
ATOM     13  C   UNL     1       0.907  17.608  19.336  0.00  0.00    +0.000 A 
ATOM     14  C   UNL     1      -0.229  17.385  20.120  0.00  0.00    +0.000 A 
ATOM     15  C   UNL     1      -0.643  16.074  20.392  0.00  0.00    +0.000 A 
ATOM     16  C   UNL     1      -1.780  15.795  21.318  0.00  0.00    +0.000 A 
ATOM     17  O   UNL     1      -2.507  16.733  21.665  0.00  0.00    +0.000 OA
ATOM     18  N   UNL     1      -1.942  14.469  21.771  0.00  0.00    +0.000 N 
ENDROOT
BRANCH   1  19
ATOM     19  O   UNL     1       2.124  12.912  20.394  0.00  0.00    +0.000 OA
ATOM     20  H   UNL     1       2.228  13.067  21.345  0.00  0.00    +0.000 HD
ENDBRANCH   1  19
BRANCH   1  21
ATOM     21  C   UNL     1       0.671  11.827  18.782  0.00  0.00    +0.000 C 
BRANCH  21  22
ATOM     22  C   UNL     1      -0.773  11.591  18.333  0.00  0.00    +0.000 C 
BRANCH  22  23
ATOM     23  C   UNL     1      -1.173  10.123  18.266  0.00  0.00    +0.000 C 
BRANCH  23  24
ATOM     24  C   UNL     1      -2.570   9.893  17.692  0.00  0.00    +0.000 C 
BRANCH  24  25
ATOM     25  C   UNL     1      -2.552  10.188  16.188  0.00  0.00    +0.000 C 
BRANCH  25  27
ATOM     26  C   UNL     1      -4.508  11.600  16.846  0.00  0.00    +0.000 C 
ATOM     27  C   UNL     1      -3.847  10.836  15.709  0.00  0.00    +0.000 C 
ENDBRANCH  25  27
ENDBRANCH  24  25
ENDBRANCH  23  24
ENDBRANCH  22  23
ENDBRANCH  21  22
ENDBRANCH   1  21
BRANCH  18  28
ATOM     28  C   UNL     1      -3.090  14.205  22.638  0.00  0.00    +0.000 C 
BRANCH  28  29
ATOM     29  C   UNL     1      -4.375  13.794  21.950  0.00  0.00    +0.000 A 
ATOM     30  C   UNL     1      -4.530  12.567  21.290  0.00  0.00    +0.000 A 
ATOM     31  C   UNL     1      -5.694  12.294  20.568  0.00  0.00    +0.000 A 
ATOM     32  C   UNL     1      -6.743  13.216  20.520  0.00  0.00    +0.000 A 
ATOM     33  C   UNL     1      -6.628  14.412  21.217  0.00  0.00    +0.000 A 
ATOM     34  C   UNL     1      -5.454  14.695  21.930  0.00  0.00    +0.000 A 
BRANCH  32  35
ATOM     35  O   UNL     1      -7.778  12.852  19.701  0.00  0.00    +0.000 OA
ATOM     36  C   UNL     1      -7.868  13.524  18.453  0.00  0.00    +0.000 C 
ENDBRANCH  32  35
ENDBRANCH  28  29
ENDBRANCH  18  28
TORSDOF 10
ENDMDL
MODEL 9
REMARK VINA RESULT:      -6.8      7.936     10.651
REMARK  Name = 
REMARK  12 active torsions:
REMARK  status: ('A' for Active; 'I' for Inactive)
REMARK    1  A    between atoms: C_1  and  C_2
REMARK    2  A    between atoms: C_2  and  C_3
REMARK    3  A    between atoms: C_3  and  C_4
REMARK    4  A    between atoms: C_4  and  C_5
REMARK    5  A    between atoms: C_5  and  C_6
REMARK    6  A    between atoms: C_6  and  C_7
REMARK    7  A    between atoms: C_7  and  C_8
REMARK    8  A    between atoms: C_8  and  O_9
REMARK    9  A    between atoms: N_26  and  C_27
REMARK   10  A    between atoms: C_27  and  C_28
REMARK   11  A    between atoms: C_31  and  O_32
REMARK   12  A    between atoms: O_32  and  C_33
REMARK                            x       y       z     vdW  Elec       q    Type
REMARK                         _______ _______ _______ _____ _____    ______ ____
ROOT
ATOM      1  C   UNL     1       0.420  11.885  19.813  0.00  0.00    +0.000 C 
ATOM      2  C   UNL     1       0.223  10.859  20.897  0.00  0.00    +0.000 A 
ATOM      3  C   UNL     1       0.616   9.520  20.865  0.00  0.00    +0.000 A 
ATOM      4  C   UNL     1       0.277   8.710  21.940  0.00  0.00    +0.000 A 
ATOM      5  C   UNL     1      -0.449   9.240  23.009  0.00  0.00    +0.000 A 
ATOM      6  C   UNL     1      -0.836  10.592  23.032  0.00  0.00    +0.000 A 
ATOM      7  C   UNL     1      -0.503  11.423  21.971  0.00  0.00    +0.000 A 
ATOM      8  C   UNL     1      -0.684  12.861  21.699  0.00  0.00    +0.000 A 
ATOM      9  C   UNL     1      -0.135  13.109  20.496  0.00  0.00    +0.000 A 
ATOM     10  C   UNL     1       0.062  14.477  20.026  0.00  0.00    +0.000 A 
ATOM     11  C   UNL     1       0.680  14.758  18.806  0.00  0.00    +0.000 A 
ATOM     12  C   UNL     1       1.294  15.985  18.597  0.00  0.00    +0.000 A 
ATOM     13  C   UNL     1       1.142  16.999  19.534  0.00  0.00    +0.000 A 
ATOM     14  C   UNL     1       0.333  16.796  20.657  0.00  0.00    +0.000 A 
ATOM     15  C   UNL     1      -0.182  15.520  20.924  0.00  0.00    +0.000 A 
ATOM     16  C   UNL     1      -0.952  15.239  22.171  0.00  0.00    +0.000 A 
ATOM     17  O   UNL     1      -1.335  16.192  22.859  0.00  0.00    +0.000 OA
ATOM     18  N   UNL     1      -1.175  13.888  22.511  0.00  0.00    +0.000 N 
ENDROOT
BRANCH   1  19
ATOM     19  O   UNL     1       1.810  12.078  19.567  0.00  0.00    +0.000 OA
ATOM     20  H   UNL     1       2.280  11.945  20.403  0.00  0.00    +0.000 HD
ENDBRANCH   1  19
BRANCH   1  21
ATOM     21  C   UNL     1      -0.282  11.458  18.506  0.00  0.00    +0.000 C 
BRANCH  21  22
ATOM     22  C   UNL     1      -1.804  11.609  18.559  0.00  0.00    +0.000 C 
BRANCH  22  23
ATOM     23  C   UNL     1      -2.512  11.241  17.262  0.00  0.00    +0.000 C 
BRANCH  23  24
ATOM     24  C   UNL     1      -3.847  10.527  17.473  0.00  0.00    +0.000 C 
BRANCH  24  25
ATOM     25  C   UNL     1      -4.672  11.297  18.510  0.00  0.00    +0.000 C 
BRANCH  25  27
ATOM     26  C   UNL     1      -6.076  12.779  17.065  0.00  0.00    +0.000 C 
ATOM     27  C   UNL     1      -6.086  11.595  18.020  0.00  0.00    +0.000 C 
ENDBRANCH  25  27
ENDBRANCH  24  25
ENDBRANCH  23  24
ENDBRANCH  22  23
ENDBRANCH  21  22
ENDBRANCH   1  21
BRANCH  18  28
ATOM     28  C   UNL     1      -1.973  13.633  23.709  0.00  0.00    +0.000 C 
BRANCH  28  29
ATOM     29  C   UNL     1      -3.422  13.255  23.487  0.00  0.00    +0.000 A 
ATOM     30  C   UNL     1      -4.074  13.414  22.257  0.00  0.00    +0.000 A 
ATOM     31  C   UNL     1      -5.443  13.164  22.143  0.00  0.00    +0.000 A 
ATOM     32  C   UNL     1      -6.184  12.713  23.238  0.00  0.00    +0.000 A 
ATOM     33  C   UNL     1      -5.541  12.495  24.450  0.00  0.00    +0.000 A 
ATOM     34  C   UNL     1      -4.170  12.760  24.570  0.00  0.00    +0.000 A 
BRANCH  32  35
ATOM     35  O   UNL     1      -7.529  12.600  23.003  0.00  0.00    +0.000 OA
ATOM     36  C   UNL     1      -7.916  11.811  21.888  0.00  0.00    +0.000 C 
ENDBRANCH  32  35
ENDBRANCH  28  29
ENDBRANCH  18  28
TORSDOF 10
ENDMDL
