MODEL 1
REMARK VINA RESULT:      -8.2      0.000      0.000
REMARK  Name = 
REMARK  2 active torsions:
REMARK  status: ('A' for Active; 'I' for Inactive)
REMARK    1  A    between atoms: C_1  and  N_2
REMARK    2  A    between atoms: C_11  and  C_12
REMARK                            x       y       z     vdW  Elec       q    Type
REMARK                         _______ _______ _______ _____ _____    ______ ____
ROOT
ATOM      1  C   UNL     1       2.357   4.883  20.966  0.00  0.00    +0.000 C 
ATOM      2  N   UNL     1       2.734   5.701  19.834  0.00  0.00    +0.000 N 
ATOM      3  C   UNL     1       2.271   6.974  19.552  0.00  0.00    +0.000 A 
ATOM      4  C   UNL     1       1.364   7.797  20.241  0.00  0.00    +0.000 A 
ATOM      5  C   UNL     1       1.076   9.057  19.711  0.00  0.00    +0.000 A 
ATOM      6  C   UNL     1       1.675   9.488  18.532  0.00  0.00    +0.000 A 
ATOM      7  C   UNL     1       2.579   8.665  17.846  0.00  0.00    +0.000 A 
ATOM      8  C   UNL     1       2.884   7.388  18.357  0.00  0.00    +0.000 A 
ATOM      9  C   UNL     1       3.712   6.316  17.941  0.00  0.00    +0.000 A 
ATOM     10  O   UNL     1       4.503   6.206  16.844  0.00  0.00    +0.000 OA
ATOM     11  C   UNL     1       5.216   5.006  16.662  0.00  0.00    +0.000 A 
ATOM     12  C   UNL     1       5.166   3.972  17.529  0.00  0.00    +0.000 A 
ATOM     13  C   UNL     1       4.328   4.068  18.738  0.00  0.00    +0.000 A 
ATOM     14  O   UNL     1       4.285   3.138  19.537  0.00  0.00    +0.000 OA
ATOM     15  C   UNL     1       3.613   5.300  18.860  0.00  0.00    +0.000 A 
ENDROOT
BRANCH  11  16
ATOM     16  C   UNL     1       6.022   4.946  15.478  0.00  0.00    +0.000 A 
ATOM     17  N   UNL     1       7.227   5.598  15.396  0.00  0.00    +0.000 NA
ATOM     18  N   UNL     1       7.718   5.343  14.187  0.00  0.00    +0.000 NA
ATOM     19  N   UNL     1       6.802   4.561  13.608  0.00  0.00    +0.000 N 
ATOM     20  N   UNL     1       5.720   4.278  14.347  0.00  0.00    +0.000 NA
ATOM     21  H   UNL     1       6.921   4.199  12.665  0.00  0.00    +0.000 HD
ENDBRANCH  11  16
TORSDOF 1
ENDMDL
MODEL 2
REMARK VINA RESULT:      -8.1      1.315      3.585
REMARK  Name = 
REMARK  2 active torsions:
REMARK  status: ('A' for Active; 'I' for Inactive)
REMARK    1  A    between atoms: C_1  and  N_2
REMARK    2  A    between atoms: C_11  and  C_12
REMARK                            x       y       z     vdW  Elec       q    Type
REMARK                         _______ _______ _______ _____ _____    ______ ____
ROOT
ATOM      1  C   UNL     1       1.835   7.211  20.190  0.00  0.00    +0.000 C 
ATOM      2  N   UNL     1       2.602   6.088  19.697  0.00  0.00    +0.000 N 
ATOM      3  C   UNL     1       2.664   4.826  20.262  0.00  0.00    +0.000 A 
ATOM      4  C   UNL     1       2.034   4.295  21.401  0.00  0.00    +0.000 A 
ATOM      5  C   UNL     1       2.289   2.965  21.742  0.00  0.00    +0.000 A 
ATOM      6  C   UNL     1       3.142   2.183  20.971  0.00  0.00    +0.000 A 
ATOM      7  C   UNL     1       3.770   2.714  19.836  0.00  0.00    +0.000 A 
ATOM      8  C   UNL     1       3.534   4.055  19.472  0.00  0.00    +0.000 A 
ATOM      9  C   UNL     1       3.989   4.904  18.433  0.00  0.00    +0.000 A 
ATOM     10  O   UNL     1       4.853   4.649  17.419  0.00  0.00    +0.000 OA
ATOM     11  C   UNL     1       5.148   5.694  16.524  0.00  0.00    +0.000 A 
ATOM     12  C   UNL     1       4.604   6.926  16.613  0.00  0.00    +0.000 A 
ATOM     13  C   UNL     1       3.649   7.230  17.695  0.00  0.00    +0.000 A 
ATOM     14  O   UNL     1       3.140   8.343  17.777  0.00  0.00    +0.000 OA
ATOM     15  C   UNL     1       3.403   6.137  18.584  0.00  0.00    +0.000 A 
ENDROOT
BRANCH  11  16
ATOM     16  C   UNL     1       6.078   5.365  15.484  0.00  0.00    +0.000 A 
ATOM     17  N   UNL     1       5.725   4.556  14.433  0.00  0.00    +0.000 NA
ATOM     18  N   UNL     1       6.795   4.451  13.653  0.00  0.00    +0.000 NA
ATOM     19  N   UNL     1       7.728   5.192  14.259  0.00  0.00    +0.000 N 
ATOM     20  N   UNL     1       7.357   5.784  15.403  0.00  0.00    +0.000 NA
ATOM     21  H   UNL     1       8.663   5.303  13.872  0.00  0.00    +0.000 HD
ENDBRANCH  11  16
TORSDOF 1
ENDMDL
MODEL 3
REMARK VINA RESULT:      -8.0      1.594      3.437
REMARK  Name = 
REMARK  2 active torsions:
REMARK  status: ('A' for Active; 'I' for Inactive)
REMARK    1  A    between atoms: C_1  and  N_2
REMARK    2  A    between atoms: C_11  and  C_12
REMARK                            x       y       z     vdW  Elec       q    Type
REMARK                         _______ _______ _______ _____ _____    ______ ____
ROOT
ATOM      1  C   UNL     1       2.043   7.093  19.834  0.00  0.00    +0.000 C 
ATOM      2  N   UNL     1       2.468   5.915  19.109  0.00  0.00    +0.000 N 
ATOM      3  C   UNL     1       2.068   4.613  19.355  0.00  0.00    +0.000 A 
ATOM      4  C   UNL     1       1.185   4.086  20.312  0.00  0.00    +0.000 A 
ATOM      5  C   UNL     1       0.971   2.706  20.329  0.00  0.00    +0.000 A 
ATOM      6  C   UNL     1       1.614   1.873  19.420  0.00  0.00    +0.000 A 
ATOM      7  C   UNL     1       2.496   2.400  18.467  0.00  0.00    +0.000 A 
ATOM      8  C   UNL     1       2.733   3.789  18.430  0.00  0.00    +0.000 A 
ATOM      9  C   UNL     1       3.541   4.645  17.641  0.00  0.00    +0.000 A 
ATOM     10  O   UNL     1       4.386   4.345  16.623  0.00  0.00    +0.000 OA
ATOM     11  C   UNL     1       5.090   5.403  16.016  0.00  0.00    +0.000 A 
ATOM     12  C   UNL     1       4.953   6.695  16.383  0.00  0.00    +0.000 A 
ATOM     13  C   UNL     1       4.031   7.053  17.476  0.00  0.00    +0.000 A 
ATOM     14  O   UNL     1       3.891   8.226  17.808  0.00  0.00    +0.000 OA
ATOM     15  C   UNL     1       3.359   5.938  18.067  0.00  0.00    +0.000 A 
ENDROOT
BRANCH  11  16
ATOM     16  C   UNL     1       5.977   5.020  14.957  0.00  0.00    +0.000 A 
ATOM     17  N   UNL     1       7.219   5.587  14.820  0.00  0.00    +0.000 NA
ATOM     18  N   UNL     1       7.784   5.021  13.759  0.00  0.00    +0.000 NA
ATOM     19  N   UNL     1       6.872   4.152  13.314  0.00  0.00    +0.000 N 
ATOM     20  N   UNL     1       5.724   4.101  14.004  0.00  0.00    +0.000 NA
ATOM     21  H   UNL     1       7.040   3.561  12.503  0.00  0.00    +0.000 HD
ENDBRANCH  11  16
TORSDOF 1
ENDMDL
MODEL 4
REMARK VINA RESULT:      -7.8      2.972      6.156
REMARK  Name = 
REMARK  2 active torsions:
REMARK  status: ('A' for Active; 'I' for Inactive)
REMARK    1  A    between atoms: C_1  and  N_2
REMARK    2  A    between atoms: C_11  and  C_12
REMARK                            x       y       z     vdW  Elec       q    Type
REMARK                         _______ _______ _______ _____ _____    ______ ____
ROOT
ATOM      1  C   UNL     1       3.284   2.454  18.873  0.00  0.00    +0.000 C 
ATOM      2  N   UNL     1       3.390   3.856  18.534  0.00  0.00    +0.000 N 
ATOM      3  C   UNL     1       4.127   4.394  17.493  0.00  0.00    +0.000 A 
ATOM      4  C   UNL     1       4.930   3.777  16.518  0.00  0.00    +0.000 A 
ATOM      5  C   UNL     1       5.569   4.586  15.576  0.00  0.00    +0.000 A 
ATOM      6  C   UNL     1       5.413   5.968  15.599  0.00  0.00    +0.000 A 
ATOM      7  C   UNL     1       4.612   6.581  16.572  0.00  0.00    +0.000 A 
ATOM      8  C   UNL     1       3.959   5.789  17.538  0.00  0.00    +0.000 A 
ATOM      9  C   UNL     1       3.110   6.054  18.641  0.00  0.00    +0.000 A 
ATOM     10  O   UNL     1       2.656   7.238  19.121  0.00  0.00    +0.000 OA
ATOM     11  C   UNL     1       1.828   7.216  20.259  0.00  0.00    +0.000 A 
ATOM     12  C   UNL     1       1.450   6.079  20.882  0.00  0.00    +0.000 A 
ATOM     13  C   UNL     1       1.915   4.775  20.374  0.00  0.00    +0.000 A 
ATOM     14  O   UNL     1       1.568   3.736  20.927  0.00  0.00    +0.000 OA
ATOM     15  C   UNL     1       2.768   4.861  19.230  0.00  0.00    +0.000 A 
ENDROOT
BRANCH  11  16
ATOM     16  C   UNL     1       1.393   8.499  20.726  0.00  0.00    +0.000 A 
ATOM     17  N   UNL     1       1.429   8.829  22.058  0.00  0.00    +0.000 NA
ATOM     18  N   UNL     1       0.968  10.072  22.157  0.00  0.00    +0.000 NA
ATOM     19  N   UNL     1       0.684  10.428  20.901  0.00  0.00    +0.000 N 
ATOM     20  N   UNL     1       0.915   9.501  19.961  0.00  0.00    +0.000 NA
ATOM     21  H   UNL     1       0.316  11.349  20.672  0.00  0.00    +0.000 HD
ENDBRANCH  11  16
TORSDOF 1
ENDMDL
MODEL 5
REMARK VINA RESULT:      -7.5      2.598      5.841
REMARK  Name = 
REMARK  2 active torsions:
REMARK  status: ('A' for Active; 'I' for Inactive)
REMARK    1  A    between atoms: C_1  and  N_2
REMARK    2  A    between atoms: C_11  and  C_12
REMARK                            x       y       z     vdW  Elec       q    Type
REMARK                         _______ _______ _______ _____ _____    ______ ____
ROOT
ATOM      1  C   UNL     1       4.432   3.101  19.273  0.00  0.00    +0.000 C 
ATOM      2  N   UNL     1       4.353   4.252  18.400  0.00  0.00    +0.000 N 
ATOM      3  C   UNL     1       5.012   4.413  17.193  0.00  0.00    +0.000 A 
ATOM      4  C   UNL     1       5.887   3.559  16.502  0.00  0.00    +0.000 A 
ATOM      5  C   UNL     1       6.414   3.994  15.283  0.00  0.00    +0.000 A 
ATOM      6  C   UNL     1       6.078   5.240  14.766  0.00  0.00    +0.000 A 
ATOM      7  C   UNL     1       5.205   6.091  15.458  0.00  0.00    +0.000 A 
ATOM      8  C   UNL     1       4.662   5.679  16.691  0.00  0.00    +0.000 A 
ATOM      9  C   UNL     1       3.788   6.259  17.643  0.00  0.00    +0.000 A 
ATOM     10  O   UNL     1       3.183   7.473  17.639  0.00  0.00    +0.000 OA
ATOM     11  C   UNL     1       2.367   7.808  18.735  0.00  0.00    +0.000 A 
ATOM     12  C   UNL     1       2.143   6.979  19.777  0.00  0.00    +0.000 A 
ATOM     13  C   UNL     1       2.774   5.647  19.803  0.00  0.00    +0.000 A 
ATOM     14  O   UNL     1       2.567   4.882  20.739  0.00  0.00    +0.000 OA
ATOM     15  C   UNL     1       3.606   5.370  18.674  0.00  0.00    +0.000 A 
ENDROOT
BRANCH  11  16
ATOM     16  C   UNL     1       1.768   9.110  18.678  0.00  0.00    +0.000 A 
ATOM     17  N   UNL     1       0.989   9.587  19.703  0.00  0.00    +0.000 NA
ATOM     18  N   UNL     1       0.595  10.806  19.347  0.00  0.00    +0.000 NA
ATOM     19  N   UNL     1       1.147  11.003  18.147  0.00  0.00    +0.000 N 
ATOM     20  N   UNL     1       1.883   9.991  17.665  0.00  0.00    +0.000 NA
ATOM     21  H   UNL     1       1.019  11.870  17.630  0.00  0.00    +0.000 HD
ENDBRANCH  11  16
TORSDOF 1
ENDMDL
MODEL 6
REMARK VINA RESULT:      -7.5      3.280      7.337
REMARK  Name = 
REMARK  2 active torsions:
REMARK  status: ('A' for Active; 'I' for Inactive)
REMARK    1  A    between atoms: C_1  and  N_2
REMARK    2  A    between atoms: C_11  and  C_12
REMARK                            x       y       z     vdW  Elec       q    Type
REMARK                         _______ _______ _______ _____ _____    ______ ____
ROOT
ATOM      1  C   UNL     1       3.709   5.794  17.288  0.00  0.00    +0.000 C 
ATOM      2  N   UNL     1       3.095   5.704  18.594  0.00  0.00    +0.000 N 
ATOM      3  C   UNL     1       3.028   4.576  19.394  0.00  0.00    +0.000 A 
ATOM      4  C   UNL     1       3.511   3.273  19.188  0.00  0.00    +0.000 A 
ATOM      5  C   UNL     1       3.291   2.319  20.184  0.00  0.00    +0.000 A 
ATOM      6  C   UNL     1       2.612   2.651  21.352  0.00  0.00    +0.000 A 
ATOM      7  C   UNL     1       2.131   3.951  21.554  0.00  0.00    +0.000 A 
ATOM      8  C   UNL     1       2.336   4.933  20.564  0.00  0.00    +0.000 A 
ATOM      9  C   UNL     1       1.990   6.300  20.423  0.00  0.00    +0.000 A 
ATOM     10  O   UNL     1       1.306   7.113  21.266  0.00  0.00    +0.000 OA
ATOM     11  C   UNL     1       1.084   8.444  20.865  0.00  0.00    +0.000 A 
ATOM     12  C   UNL     1       1.532   8.954  19.698  0.00  0.00    +0.000 A 
ATOM     13  C   UNL     1       2.293   8.099  18.768  0.00  0.00    +0.000 A 
ATOM     14  O   UNL     1       2.714   8.556  17.711  0.00  0.00    +0.000 OA
ATOM     15  C   UNL     1       2.470   6.753  19.219  0.00  0.00    +0.000 A 
ENDROOT
BRANCH  11  16
ATOM     16  C   UNL     1       0.343   9.247  21.792  0.00  0.00    +0.000 A 
ATOM     17  N   UNL     1       0.585  10.591  21.931  0.00  0.00    +0.000 NA
ATOM     18  N   UNL     1      -0.260  11.039  22.854  0.00  0.00    +0.000 NA
ATOM     19  N   UNL     1      -0.961   9.962  23.220  0.00  0.00    +0.000 N 
ATOM     20  N   UNL     1      -0.638   8.814  22.609  0.00  0.00    +0.000 NA
ATOM     21  H   UNL     1      -1.699  10.012  23.920  0.00  0.00    +0.000 HD
ENDBRANCH  11  16
TORSDOF 1
ENDMDL
MODEL 7
REMARK VINA RESULT:      -7.5      0.890      1.158
REMARK  Name = 
REMARK  2 active torsions:
REMARK  status: ('A' for Active; 'I' for Inactive)
REMARK    1  A    between atoms: C_1  and  N_2
REMARK    2  A    between atoms: C_11  and  C_12
REMARK                            x       y       z     vdW  Elec       q    Type
REMARK                         _______ _______ _______ _____ _____    ______ ____
ROOT
ATOM      1  C   UNL     1       2.173   4.035  21.404  0.00  0.00    +0.000 C 
ATOM      2  N   UNL     1       2.561   5.023  20.422  0.00  0.00    +0.000 N 
ATOM      3  C   UNL     1       2.037   6.297  20.289  0.00  0.00    +0.000 A 
ATOM      4  C   UNL     1       1.045   6.966  21.027  0.00  0.00    +0.000 A 
ATOM      5  C   UNL     1       0.711   8.271  20.658  0.00  0.00    +0.000 A 
ATOM      6  C   UNL     1       1.345   8.895  19.589  0.00  0.00    +0.000 A 
ATOM      7  C   UNL     1       2.334   8.226  18.855  0.00  0.00    +0.000 A 
ATOM      8  C   UNL     1       2.688   6.907  19.203  0.00  0.00    +0.000 A 
ATOM      9  C   UNL     1       3.601   5.949  18.696  0.00  0.00    +0.000 A 
ATOM     10  O   UNL     1       4.456   6.036  17.646  0.00  0.00    +0.000 OA
ATOM     11  C   UNL     1       5.249   4.913  17.345  0.00  0.00    +0.000 A 
ATOM     12  C   UNL     1       5.215   3.766  18.057  0.00  0.00    +0.000 A 
ATOM     13  C   UNL     1       4.308   3.647  19.212  0.00  0.00    +0.000 A 
ATOM     14  O   UNL     1       4.279   2.613  19.872  0.00  0.00    +0.000 OA
ATOM     15  C   UNL     1       3.514   4.811  19.458  0.00  0.00    +0.000 A 
ENDROOT
BRANCH  11  16
ATOM     16  C   UNL     1       6.121   5.063  16.217  0.00  0.00    +0.000 A 
ATOM     17  N   UNL     1       5.671   5.576  15.026  0.00  0.00    +0.000 NA
ATOM     18  N   UNL     1       6.710   5.587  14.197  0.00  0.00    +0.000 NA
ATOM     19  N   UNL     1       7.720   5.089  14.916  0.00  0.00    +0.000 N 
ATOM     20  N   UNL     1       7.428   4.737  16.175  0.00  0.00    +0.000 NA
ATOM     21  H   UNL     1       8.657   4.988  14.531  0.00  0.00    +0.000 HD
ENDBRANCH  11  16
TORSDOF 1
ENDMDL
MODEL 8
REMARK VINA RESULT:      -7.4      1.187      1.468
REMARK  Name = 
REMARK  2 active torsions:
REMARK  status: ('A' for Active; 'I' for Inactive)
REMARK    1  A    between atoms: C_1  and  N_2
REMARK    2  A    between atoms: C_11  and  C_12
REMARK                            x       y       z     vdW  Elec       q    Type
REMARK                         _______ _______ _______ _____ _____    ______ ____
ROOT
ATOM      1  C   UNL     1       1.797   2.820  20.149  0.00  0.00    +0.000 C 
ATOM      2  N   UNL     1       2.386   3.962  19.485  0.00  0.00    +0.000 N 
ATOM      3  C   UNL     1       2.122   5.294  19.754  0.00  0.00    +0.000 A 
ATOM      4  C   UNL     1       1.266   5.890  20.695  0.00  0.00    +0.000 A 
ATOM      5  C   UNL     1       1.197   7.285  20.740  0.00  0.00    +0.000 A 
ATOM      6  C   UNL     1       1.959   8.064  19.877  0.00  0.00    +0.000 A 
ATOM      7  C   UNL     1       2.812   7.467  18.938  0.00  0.00    +0.000 A 
ATOM      8  C   UNL     1       2.898   6.062  18.869  0.00  0.00    +0.000 A 
ATOM      9  C   UNL     1       3.617   5.142  18.066  0.00  0.00    +0.000 A 
ATOM     10  O   UNL     1       4.490   5.372  17.054  0.00  0.00    +0.000 OA
ATOM     11  C   UNL     1       5.056   4.258  16.405  0.00  0.00    +0.000 A 
ATOM     12  C   UNL     1       4.788   2.981  16.749  0.00  0.00    +0.000 A 
ATOM     13  C   UNL     1       3.854   2.699  17.855  0.00  0.00    +0.000 A 
ATOM     14  O   UNL     1       3.613   1.542  18.182  0.00  0.00    +0.000 OA
ATOM     15  C   UNL     1       3.297   3.867  18.463  0.00  0.00    +0.000 A 
ENDROOT
BRANCH  11  16
ATOM     16  C   UNL     1       5.959   4.567  15.335  0.00  0.00    +0.000 A 
ATOM     17  N   UNL     1       7.016   5.424  15.513  0.00  0.00    +0.000 NA
ATOM     18  N   UNL     1       7.652   5.494  14.348  0.00  0.00    +0.000 NA
ATOM     19  N   UNL     1       6.962   4.687  13.537  0.00  0.00    +0.000 N 
ATOM     20  N   UNL     1       5.895   4.083  14.079  0.00  0.00    +0.000 NA
ATOM     21  H   UNL     1       7.232   4.537  12.567  0.00  0.00    +0.000 HD
ENDBRANCH  11  16
TORSDOF 1
ENDMDL
MODEL 9
REMARK VINA RESULT:      -7.3      3.672      5.554
REMARK  Name = 
REMARK  2 active torsions:
REMARK  status: ('A' for Active; 'I' for Inactive)
REMARK    1  A    between atoms: C_1  and  N_2
REMARK    2  A    between atoms: C_11  and  C_12
REMARK                            x       y       z     vdW  Elec       q    Type
REMARK                         _______ _______ _______ _____ _____    ______ ____
ROOT
ATOM      1  C   UNL     1       1.286  11.035  18.477  0.00  0.00    +0.000 C 
ATOM      2  N   UNL     1       1.076  10.072  19.536  0.00  0.00    +0.000 N 
ATOM      3  C   UNL     1       0.418  10.300  20.732  0.00  0.00    +0.000 A 
ATOM      4  C   UNL     1      -0.207  11.454  21.234  0.00  0.00    +0.000 A 
ATOM      5  C   UNL     1      -0.799  11.392  22.497  0.00  0.00    +0.000 A 
ATOM      6  C   UNL     1      -0.774  10.217  23.240  0.00  0.00    +0.000 A 
ATOM      7  C   UNL     1      -0.150   9.067  22.738  0.00  0.00    +0.000 A 
ATOM      8  C   UNL     1       0.459   9.102  21.468  0.00  0.00    +0.000 A 
ATOM      9  C   UNL     1       1.170   8.170  20.673  0.00  0.00    +0.000 A 
ATOM     10  O   UNL     1       1.497   6.879  20.933  0.00  0.00    +0.000 OA
ATOM     11  C   UNL     1       2.234   6.176  19.962  0.00  0.00    +0.000 A 
ATOM     12  C   UNL     1       2.615   6.713  18.783  0.00  0.00    +0.000 A 
ATOM     13  C   UNL     1       2.262   8.109  18.466  0.00  0.00    +0.000 A 
ATOM     14  O   UNL     1       2.594   8.602  17.393  0.00  0.00    +0.000 OA
ATOM     15  C   UNL     1       1.531   8.779  19.496  0.00  0.00    +0.000 A 
ENDROOT
BRANCH  11  16
ATOM     16  C   UNL     1       2.560   4.822  20.302  0.00  0.00    +0.000 A 
ATOM     17  N   UNL     1       3.499   4.110  19.598  0.00  0.00    +0.000 NA
ATOM     18  N   UNL     1       3.568   2.908  20.159  0.00  0.00    +0.000 NA
ATOM     19  N   UNL     1       2.683   2.950  21.159  0.00  0.00    +0.000 N 
ATOM     20  N   UNL     1       2.016   4.103  21.304  0.00  0.00    +0.000 NA
ATOM     21  H   UNL     1       2.529   2.156  21.776  0.00  0.00    +0.000 HD
ENDBRANCH  11  16
TORSDOF 1
ENDMDL
