MODEL 1
REMARK VINA RESULT:      -7.1      0.000      0.000
REMARK  Name = 
REMARK  2 active torsions:
REMARK  status: ('A' for Active; 'I' for Inactive)
REMARK    1  A    between atoms: C_2  and  C_3
REMARK    2  A    between atoms: C_3  and  N_4
REMARK                            x       y       z     vdW  Elec       q    Type
REMARK                         _______ _______ _______ _____ _____    ______ ____
ROOT
ATOM      1  O   UNL     1       5.455   3.227  19.515  0.00  0.00    +0.000 OA
ATOM      2  C   UNL     1       4.766   3.696  18.602  0.00  0.00    +0.000 C 
ATOM      3  N   UNL     1       5.116   4.812  17.859  0.00  0.00    +0.000 N 
ATOM      4  C   UNL     1       4.348   5.414  16.752  0.00  0.00    +0.000 C 
ATOM      5  C   UNL     1       5.199   6.545  16.160  0.00  0.00    +0.000 C 
ATOM      6  C   UNL     1       6.277   6.684  17.185  0.00  0.00    +0.000 A 
ATOM      7  C   UNL     1       7.266   7.655  17.241  0.00  0.00    +0.000 A 
ATOM      8  C   UNL     1       8.211   7.579  18.265  0.00  0.00    +0.000 A 
ATOM      9  C   UNL     1       8.161   6.539  19.202  0.00  0.00    +0.000 A 
ATOM     10  C   UNL     1       7.162   5.564  19.133  0.00  0.00    +0.000 A 
ATOM     11  C   UNL     1       6.222   5.647  18.120  0.00  0.00    +0.000 A 
ENDROOT
BRANCH   2  12
ATOM     12  C   UNL     1       3.457   3.011  18.252  0.00  0.00    +0.000 C 
BRANCH  12  13
ATOM     13  N   UNL     1       2.431   3.235  19.258  0.00  0.00    +0.000 N 
ATOM     14  C   UNL     1       2.117   2.372  20.277  0.00  0.00    +0.000 A 
ATOM     15  C   UNL     1       1.113   2.947  21.026  0.00  0.00    +0.000 A 
ATOM     16  C   UNL     1       0.833   4.212  20.459  0.00  0.00    +0.000 A 
ATOM     17  C   UNL     1       1.672   4.371  19.378  0.00  0.00    +0.000 A 
ENDBRANCH  12  13
ENDBRANCH   2  12
TORSDOF 2
ENDMDL
MODEL 2
REMARK VINA RESULT:      -7.0      1.489      6.019
REMARK  Name = 
REMARK  2 active torsions:
REMARK  status: ('A' for Active; 'I' for Inactive)
REMARK    1  A    between atoms: C_2  and  C_3
REMARK    2  A    between atoms: C_3  and  N_4
REMARK                            x       y       z     vdW  Elec       q    Type
REMARK                         _______ _______ _______ _____ _____    ______ ____
ROOT
ATOM      1  O   UNL     1       3.373   6.988  18.108  0.00  0.00    +0.000 OA
ATOM      2  C   UNL     1       3.966   6.025  17.610  0.00  0.00    +0.000 C 
ATOM      3  N   UNL     1       3.634   4.700  17.847  0.00  0.00    +0.000 N 
ATOM      4  C   UNL     1       4.291   3.508  17.277  0.00  0.00    +0.000 C 
ATOM      5  C   UNL     1       3.491   2.279  17.728  0.00  0.00    +0.000 C 
ATOM      6  C   UNL     1       2.598   2.863  18.774  0.00  0.00    +0.000 A 
ATOM      7  C   UNL     1       1.741   2.183  19.626  0.00  0.00    +0.000 A 
ATOM      8  C   UNL     1       0.955   2.926  20.508  0.00  0.00    +0.000 A 
ATOM      9  C   UNL     1       1.030   4.325  20.518  0.00  0.00    +0.000 A 
ATOM     10  C   UNL     1       1.895   5.000  19.652  0.00  0.00    +0.000 A 
ATOM     11  C   UNL     1       2.677   4.258  18.784  0.00  0.00    +0.000 A 
ENDROOT
BRANCH   2  12
ATOM     12  C   UNL     1       5.126   6.292  16.667  0.00  0.00    +0.000 C 
BRANCH  12  13
ATOM     13  N   UNL     1       6.349   6.628  17.378  0.00  0.00    +0.000 N 
ATOM     14  C   UNL     1       7.015   7.824  17.290  0.00  0.00    +0.000 A 
ATOM     15  C   UNL     1       8.110   7.763  18.125  0.00  0.00    +0.000 A 
ATOM     16  C   UNL     1       8.087   6.500  18.761  0.00  0.00    +0.000 A 
ATOM     17  C   UNL     1       6.980   5.826  18.294  0.00  0.00    +0.000 A 
ENDBRANCH  12  13
ENDBRANCH   2  12
TORSDOF 2
ENDMDL
MODEL 3
REMARK VINA RESULT:      -7.0      1.516      5.973
REMARK  Name = 
REMARK  2 active torsions:
REMARK  status: ('A' for Active; 'I' for Inactive)
REMARK    1  A    between atoms: C_2  and  C_3
REMARK    2  A    between atoms: C_3  and  N_4
REMARK                            x       y       z     vdW  Elec       q    Type
REMARK                         _______ _______ _______ _____ _____    ______ ____
ROOT
ATOM      1  O   UNL     1       4.650   4.084  16.385  0.00  0.00    +0.000 OA
ATOM      2  C   UNL     1       4.442   5.144  16.987  0.00  0.00    +0.000 C 
ATOM      3  N   UNL     1       3.548   5.279  18.037  0.00  0.00    +0.000 N 
ATOM      4  C   UNL     1       3.263   6.507  18.804  0.00  0.00    +0.000 C 
ATOM      5  C   UNL     1       2.307   6.130  19.942  0.00  0.00    +0.000 C 
ATOM      6  C   UNL     1       1.891   4.751  19.547  0.00  0.00    +0.000 A 
ATOM      7  C   UNL     1       0.921   3.961  20.145  0.00  0.00    +0.000 A 
ATOM      8  C   UNL     1       0.715   2.674  19.645  0.00  0.00    +0.000 A 
ATOM      9  C   UNL     1       1.481   2.197  18.574  0.00  0.00    +0.000 A 
ATOM     10  C   UNL     1       2.459   3.002  17.982  0.00  0.00    +0.000 A 
ATOM     11  C   UNL     1       2.654   4.280  18.476  0.00  0.00    +0.000 A 
ENDROOT
BRANCH   2  12
ATOM     12  C   UNL     1       5.217   6.381  16.570  0.00  0.00    +0.000 C 
BRANCH  12  13
ATOM     13  N   UNL     1       6.399   6.594  17.392  0.00  0.00    +0.000 N 
ATOM     14  C   UNL     1       7.175   7.725  17.385  0.00  0.00    +0.000 A 
ATOM     15  C   UNL     1       8.182   7.553  18.311  0.00  0.00    +0.000 A 
ATOM     16  C   UNL     1       7.989   6.290  18.917  0.00  0.00    +0.000 A 
ATOM     17  C   UNL     1       6.871   5.726  18.342  0.00  0.00    +0.000 A 
ENDBRANCH  12  13
ENDBRANCH   2  12
TORSDOF 2
ENDMDL
MODEL 4
REMARK VINA RESULT:      -6.8      1.142      5.825
REMARK  Name = 
REMARK  2 active torsions:
REMARK  status: ('A' for Active; 'I' for Inactive)
REMARK    1  A    between atoms: C_2  and  C_3
REMARK    2  A    between atoms: C_3  and  N_4
REMARK                            x       y       z     vdW  Elec       q    Type
REMARK                         _______ _______ _______ _____ _____    ______ ____
ROOT
ATOM      1  O   UNL     1       6.040   3.735  19.567  0.00  0.00    +0.000 OA
ATOM      2  C   UNL     1       5.412   4.164  18.593  0.00  0.00    +0.000 C 
ATOM      3  N   UNL     1       4.030   4.252  18.536  0.00  0.00    +0.000 N 
ATOM      4  C   UNL     1       3.222   4.764  17.412  0.00  0.00    +0.000 C 
ATOM      5  C   UNL     1       1.758   4.785  17.868  0.00  0.00    +0.000 C 
ATOM      6  C   UNL     1       1.821   3.996  19.135  0.00  0.00    +0.000 A 
ATOM      7  C   UNL     1       0.757   3.576  19.919  0.00  0.00    +0.000 A 
ATOM      8  C   UNL     1       1.037   2.883  21.098  0.00  0.00    +0.000 A 
ATOM      9  C   UNL     1       2.362   2.632  21.477  0.00  0.00    +0.000 A 
ATOM     10  C   UNL     1       3.426   3.065  20.681  0.00  0.00    +0.000 A 
ATOM     11  C   UNL     1       3.143   3.746  19.508  0.00  0.00    +0.000 A 
ENDROOT
BRANCH   2  12
ATOM     12  C   UNL     1       6.189   4.639  17.378  0.00  0.00    +0.000 C 
BRANCH  12  13
ATOM     13  N   UNL     1       6.885   5.892  17.624  0.00  0.00    +0.000 N 
ATOM     14  C   UNL     1       6.687   7.058  16.930  0.00  0.00    +0.000 A 
ATOM     15  C   UNL     1       7.514   8.020  17.472  0.00  0.00    +0.000 A 
ATOM     16  C   UNL     1       8.212   7.421  18.546  0.00  0.00    +0.000 A 
ATOM     17  C   UNL     1       7.792   6.112  18.628  0.00  0.00    +0.000 A 
ENDBRANCH  12  13
ENDBRANCH   2  12
TORSDOF 2
ENDMDL
MODEL 5
REMARK VINA RESULT:      -6.8      3.198      6.003
REMARK  Name = 
REMARK  2 active torsions:
REMARK  status: ('A' for Active; 'I' for Inactive)
REMARK    1  A    between atoms: C_2  and  C_3
REMARK    2  A    between atoms: C_3  and  N_4
REMARK                            x       y       z     vdW  Elec       q    Type
REMARK                         _______ _______ _______ _____ _____    ______ ____
ROOT
ATOM      1  O   UNL     1       5.381   6.800  15.318  0.00  0.00    +0.000 OA
ATOM      2  C   UNL     1       5.778   5.867  16.024  0.00  0.00    +0.000 C 
ATOM      3  N   UNL     1       5.185   5.489  17.218  0.00  0.00    +0.000 N 
ATOM      4  C   UNL     1       5.600   4.381  18.100  0.00  0.00    +0.000 C 
ATOM      5  C   UNL     1       4.564   4.274  19.226  0.00  0.00    +0.000 C 
ATOM      6  C   UNL     1       3.790   5.539  19.050  0.00  0.00    +0.000 A 
ATOM      7  C   UNL     1       2.802   6.044  19.882  0.00  0.00    +0.000 A 
ATOM      8  C   UNL     1       2.166   7.230  19.510  0.00  0.00    +0.000 A 
ATOM      9  C   UNL     1       2.517   7.881  18.321  0.00  0.00    +0.000 A 
ATOM     10  C   UNL     1       3.512   7.360  17.489  0.00  0.00    +0.000 A 
ATOM     11  C   UNL     1       4.145   6.188  17.865  0.00  0.00    +0.000 A 
ENDROOT
BRANCH   2  12
ATOM     12  C   UNL     1       6.982   5.066  15.562  0.00  0.00    +0.000 C 
BRANCH  12  13
ATOM     13  N   UNL     1       6.830   4.576  14.201  0.00  0.00    +0.000 N 
ATOM     14  C   UNL     1       5.871   3.692  13.778  0.00  0.00    +0.000 A 
ATOM     15  C   UNL     1       6.043   3.494  12.425  0.00  0.00    +0.000 A 
ATOM     16  C   UNL     1       7.123   4.309  12.012  0.00  0.00    +0.000 A 
ATOM     17  C   UNL     1       7.580   4.979  13.125  0.00  0.00    +0.000 A 
ENDBRANCH  12  13
ENDBRANCH   2  12
TORSDOF 2
ENDMDL
MODEL 6
REMARK VINA RESULT:      -6.8      1.789      5.648
REMARK  Name = 
REMARK  2 active torsions:
REMARK  status: ('A' for Active; 'I' for Inactive)
REMARK    1  A    between atoms: C_2  and  C_3
REMARK    2  A    between atoms: C_3  and  N_4
REMARK                            x       y       z     vdW  Elec       q    Type
REMARK                         _______ _______ _______ _____ _____    ______ ____
ROOT
ATOM      1  O   UNL     1       6.127   3.912  18.986  0.00  0.00    +0.000 OA
ATOM      2  C   UNL     1       5.511   4.877  18.522  0.00  0.00    +0.000 C 
ATOM      3  N   UNL     1       4.210   5.208  18.868  0.00  0.00    +0.000 N 
ATOM      4  C   UNL     1       3.423   6.349  18.364  0.00  0.00    +0.000 C 
ATOM      5  C   UNL     1       2.097   6.372  19.133  0.00  0.00    +0.000 C 
ATOM      6  C   UNL     1       2.118   5.046  19.820  0.00  0.00    +0.000 A 
ATOM      7  C   UNL     1       1.099   4.463  20.557  0.00  0.00    +0.000 A 
ATOM      8  C   UNL     1       1.341   3.227  21.159  0.00  0.00    +0.000 A 
ATOM      9  C   UNL     1       2.589   2.604  21.024  0.00  0.00    +0.000 A 
ATOM     10  C   UNL     1       3.609   3.203  20.281  0.00  0.00    +0.000 A 
ATOM     11  C   UNL     1       3.362   4.426  19.680  0.00  0.00    +0.000 A 
ENDROOT
BRANCH   2  12
ATOM     12  C   UNL     1       6.212   5.775  17.519  0.00  0.00    +0.000 C 
BRANCH  12  13
ATOM     13  N   UNL     1       6.227   5.203  16.182  0.00  0.00    +0.000 N 
ATOM     14  C   UNL     1       5.163   4.595  15.567  0.00  0.00    +0.000 A 
ATOM     15  C   UNL     1       5.565   4.206  14.307  0.00  0.00    +0.000 A 
ATOM     16  C   UNL     1       6.909   4.619  14.146  0.00  0.00    +0.000 A 
ATOM     17  C   UNL     1       7.287   5.246  15.312  0.00  0.00    +0.000 A 
ENDBRANCH  12  13
ENDBRANCH   2  12
TORSDOF 2
ENDMDL
MODEL 7
REMARK VINA RESULT:      -6.5      1.356      5.976
REMARK  Name = 
REMARK  2 active torsions:
REMARK  status: ('A' for Active; 'I' for Inactive)
REMARK    1  A    between atoms: C_2  and  C_3
REMARK    2  A    between atoms: C_3  and  N_4
REMARK                            x       y       z     vdW  Elec       q    Type
REMARK                         _______ _______ _______ _____ _____    ______ ____
ROOT
ATOM      1  O   UNL     1       5.468   5.109  20.035  0.00  0.00    +0.000 OA
ATOM      2  C   UNL     1       5.349   4.646  18.896  0.00  0.00    +0.000 C 
ATOM      3  N   UNL     1       4.193   4.052  18.415  0.00  0.00    +0.000 N 
ATOM      4  C   UNL     1       3.981   3.493  17.066  0.00  0.00    +0.000 C 
ATOM      5  C   UNL     1       2.510   3.069  16.967  0.00  0.00    +0.000 C 
ATOM      6  C   UNL     1       2.070   3.157  18.392  0.00  0.00    +0.000 A 
ATOM      7  C   UNL     1       0.854   2.757  18.924  0.00  0.00    +0.000 A 
ATOM      8  C   UNL     1       0.624   2.970  20.285  0.00  0.00    +0.000 A 
ATOM      9  C   UNL     1       1.600   3.582  21.082  0.00  0.00    +0.000 A 
ATOM     10  C   UNL     1       2.821   3.984  20.533  0.00  0.00    +0.000 A 
ATOM     11  C   UNL     1       3.047   3.765  19.185  0.00  0.00    +0.000 A 
ENDROOT
BRANCH   2  12
ATOM     12  C   UNL     1       6.529   4.738  17.946  0.00  0.00    +0.000 C 
BRANCH  12  13
ATOM     13  N   UNL     1       7.136   6.060  17.945  0.00  0.00    +0.000 N 
ATOM     14  C   UNL     1       6.780   7.095  17.118  0.00  0.00    +0.000 A 
ATOM     15  C   UNL     1       7.566   8.182  17.437  0.00  0.00    +0.000 A 
ATOM     16  C   UNL     1       8.403   7.798  18.511  0.00  0.00    +0.000 A 
ATOM     17  C   UNL     1       8.105   6.489  18.815  0.00  0.00    +0.000 A 
ENDBRANCH  12  13
ENDBRANCH   2  12
TORSDOF 2
ENDMDL
MODEL 8
REMARK VINA RESULT:      -6.5      2.100      2.781
REMARK  Name = 
REMARK  2 active torsions:
REMARK  status: ('A' for Active; 'I' for Inactive)
REMARK    1  A    between atoms: C_2  and  C_3
REMARK    2  A    between atoms: C_3  and  N_4
REMARK                            x       y       z     vdW  Elec       q    Type
REMARK                         _______ _______ _______ _____ _____    ______ ____
ROOT
ATOM      1  O   UNL     1       2.426   3.007  16.839  0.00  0.00    +0.000 OA
ATOM      2  C   UNL     1       2.513   4.066  17.470  0.00  0.00    +0.000 C 
ATOM      3  N   UNL     1       3.550   4.974  17.325  0.00  0.00    +0.000 N 
ATOM      4  C   UNL     1       3.707   6.258  18.036  0.00  0.00    +0.000 C 
ATOM      5  C   UNL     1       4.933   6.966  17.446  0.00  0.00    +0.000 C 
ATOM      6  C   UNL     1       5.553   5.876  16.634  0.00  0.00    +0.000 A 
ATOM      7  C   UNL     1       6.774   5.907  15.977  0.00  0.00    +0.000 A 
ATOM      8  C   UNL     1       7.152   4.790  15.230  0.00  0.00    +0.000 A 
ATOM      9  C   UNL     1       6.308   3.675  15.145  0.00  0.00    +0.000 A 
ATOM     10  C   UNL     1       5.079   3.657  15.808  0.00  0.00    +0.000 A 
ATOM     11  C   UNL     1       4.711   4.765  16.553  0.00  0.00    +0.000 A 
ENDROOT
BRANCH   2  12
ATOM     12  C   UNL     1       1.417   4.415  18.461  0.00  0.00    +0.000 C 
BRANCH  12  13
ATOM     13  N   UNL     1       1.663   3.849  19.778  0.00  0.00    +0.000 N 
ATOM     14  C   UNL     1       2.157   4.535  20.857  0.00  0.00    +0.000 A 
ATOM     15  C   UNL     1       2.226   3.662  21.921  0.00  0.00    +0.000 A 
ATOM     16  C   UNL     1       1.729   2.414  21.477  0.00  0.00    +0.000 A 
ATOM     17  C   UNL     1       1.373   2.562  20.155  0.00  0.00    +0.000 A 
ENDBRANCH  12  13
ENDBRANCH   2  12
TORSDOF 2
ENDMDL
MODEL 9
REMARK VINA RESULT:      -6.4      1.568      1.862
REMARK  Name = 
REMARK  2 active torsions:
REMARK  status: ('A' for Active; 'I' for Inactive)
REMARK    1  A    between atoms: C_2  and  C_3
REMARK    2  A    between atoms: C_3  and  N_4
REMARK                            x       y       z     vdW  Elec       q    Type
REMARK                         _______ _______ _______ _____ _____    ______ ____
ROOT
ATOM      1  O   UNL     1       4.136   2.385  17.203  0.00  0.00    +0.000 OA
ATOM      2  C   UNL     1       3.386   3.286  17.593  0.00  0.00    +0.000 C 
ATOM      3  N   UNL     1       3.726   4.630  17.606  0.00  0.00    +0.000 N 
ATOM      4  C   UNL     1       2.876   5.753  18.045  0.00  0.00    +0.000 C 
ATOM      5  C   UNL     1       3.638   7.051  17.751  0.00  0.00    +0.000 C 
ATOM      6  C   UNL     1       5.003   6.538  17.428  0.00  0.00    +0.000 A 
ATOM      7  C   UNL     1       6.153   7.283  17.210  0.00  0.00    +0.000 A 
ATOM      8  C   UNL     1       7.327   6.606  16.876  0.00  0.00    +0.000 A 
ATOM      9  C   UNL     1       7.331   5.210  16.756  0.00  0.00    +0.000 A 
ATOM     10  C   UNL     1       6.166   4.471  16.974  0.00  0.00    +0.000 A 
ATOM     11  C   UNL     1       5.005   5.146  17.313  0.00  0.00    +0.000 A 
ENDROOT
BRANCH   2  12
ATOM     12  C   UNL     1       1.997   2.916  18.081  0.00  0.00    +0.000 C 
BRANCH  12  13
ATOM     13  N   UNL     1       1.925   2.830  19.531  0.00  0.00    +0.000 N 
ATOM     14  C   UNL     1       2.985   2.577  20.363  0.00  0.00    +0.000 A 
ATOM     15  C   UNL     1       2.520   2.596  21.661  0.00  0.00    +0.000 A 
ATOM     16  C   UNL     1       1.139   2.900  21.611  0.00  0.00    +0.000 A 
ATOM     17  C   UNL     1       0.802   3.055  20.284  0.00  0.00    +0.000 A 
ENDBRANCH  12  13
ENDBRANCH   2  12
TORSDOF 2
ENDMDL
