MODEL 1
REMARK VINA RESULT:      -7.5      0.000      0.000
REMARK  Name = 
REMARK  11 active torsions:
REMARK  status: ('A' for Active; 'I' for Inactive)
REMARK    1  A    between atoms: C_1  and  C_2
REMARK    2  A    between atoms: C_2  and  O_3
REMARK    3  A    between atoms: O_3  and  C_4
REMARK    4  A    between atoms: C_4  and  C_6
REMARK    5  A    between atoms: C_11  and  N_12
REMARK    6  A    between atoms: N_15  and  C_16
REMARK    7  A    between atoms: C_16  and  C_17
REMARK    8  A    between atoms: C_16  and  C_18
REMARK    9  A    between atoms: C_19  and  N_20
REMARK   10  A    between atoms: C_26  and  C_27
REMARK   11  A    between atoms: C_28  and  C_29
REMARK                            x       y       z     vdW  Elec       q    Type
REMARK                         _______ _______ _______ _____ _____    ______ ____
ROOT
ATOM      1  N   UNL     1       2.436   7.431  18.839  0.00  0.00    +0.000 N 
ATOM      2  C   UNL     1       2.010   8.591  18.230  0.00  0.00    +0.000 C 
ATOM      3  O   UNL     1       2.250   8.879  17.065  0.00  0.00    +0.000 OA
ATOM      4  N   UNL     1       1.188   9.313  19.067  0.00  0.00    +0.000 N 
ATOM      5  H   UNL     1       1.762   7.068  19.500  0.00  0.00    +0.000 HD
ATOM      6  H   UNL     1       1.351   9.170  20.053  0.00  0.00    +0.000 HD
ENDROOT
BRANCH   1  12
ATOM      7  C   UNL     1       2.958   5.090  18.080  0.00  0.00    +0.000 A 
ATOM      8  C   UNL     1       3.831   4.261  17.345  0.00  0.00    +0.000 A 
ATOM      9  C   UNL     1       4.980   4.771  16.748  0.00  0.00    +0.000 A 
ATOM     10  C   UNL     1       5.271   6.123  16.867  0.00  0.00    +0.000 A 
ATOM     11  C   UNL     1       4.389   6.969  17.545  0.00  0.00    +0.000 A 
ATOM     12  C   UNL     1       3.230   6.468  18.166  0.00  0.00    +0.000 A 
BRANCH   7  13
ATOM     13  C   UNL     1       1.763   4.378  18.601  0.00  0.00    +0.000 C 
ATOM     14  O   UNL     1       1.044   3.692  17.886  0.00  0.00    +0.000 OA
BRANCH  13  15
ATOM     15  O   UNL     1       1.451   4.828  19.840  0.00  0.00    +0.000 OA
BRANCH  15  17
ATOM     16  C   UNL     1       1.442   2.925  21.259  0.00  0.00    +0.000 C 
ATOM     17  C   UNL     1       2.186   4.196  20.896  0.00  0.00    +0.000 C 
ENDBRANCH  15  17
ENDBRANCH  13  15
ENDBRANCH   7  13
ENDBRANCH   1  12
BRANCH   4  18
ATOM     18  C   UNL     1       0.501  10.555  18.717  0.00  0.00    +0.000 C 
ATOM     19  C   UNL     1      -1.024  10.505  18.811  0.00  0.00    +0.000 C 
BRANCH  18  20
ATOM     20  C   UNL     1       1.089  11.793  19.418  0.00  0.00    +0.000 A 
ATOM     21  C   UNL     1       0.778  12.200  20.723  0.00  0.00    +0.000 A 
ATOM     22  S   UNL     1       1.719  13.513  21.260  0.00  0.00    +0.000 S 
ATOM     23  C   UNL     1       2.576  13.612  19.807  0.00  0.00    +0.000 A 
ATOM     24  C   UNL     1       3.656  14.641  19.666  0.00  0.00    +0.000 C 
ATOM     25  C   UNL     1       2.165  12.658  18.887  0.00  0.00    +0.000 A 
ATOM     26  C   UNL     1       2.805  12.547  17.535  0.00  0.00    +0.000 C 
BRANCH  21  27
ATOM     27  N   UNL     1      -0.154  11.689  21.663  0.00  0.00    +0.000 N 
ATOM     28  C   UNL     1      -0.106  10.482  22.343  0.00  0.00    +0.000 A 
ATOM     29  C   UNL     1      -1.123  10.413  23.270  0.00  0.00    +0.000 A 
ATOM     30  C   UNL     1      -1.897  11.572  23.117  0.00  0.00    +0.000 A 
ATOM     31  C   UNL     1      -1.326  12.306  22.103  0.00  0.00    +0.000 A 
ENDBRANCH  21  27
ENDBRANCH  18  20
ENDBRANCH   4  18
TORSDOF 7
ENDMDL
MODEL 2
REMARK VINA RESULT:      -7.4      3.177      8.514
REMARK  Name = 
REMARK  11 active torsions:
REMARK  status: ('A' for Active; 'I' for Inactive)
REMARK    1  A    between atoms: C_1  and  C_2
REMARK    2  A    between atoms: C_2  and  O_3
REMARK    3  A    between atoms: O_3  and  C_4
REMARK    4  A    between atoms: C_4  and  C_6
REMARK    5  A    between atoms: C_11  and  N_12
REMARK    6  A    between atoms: N_15  and  C_16
REMARK    7  A    between atoms: C_16  and  C_17
REMARK    8  A    between atoms: C_16  and  C_18
REMARK    9  A    between atoms: C_19  and  N_20
REMARK   10  A    between atoms: C_26  and  C_27
REMARK   11  A    between atoms: C_28  and  C_29
REMARK                            x       y       z     vdW  Elec       q    Type
REMARK                         _______ _______ _______ _____ _____    ______ ____
ROOT
ATOM      1  N   UNL     1       1.120   9.629  19.284  0.00  0.00    +0.000 N 
ATOM      2  C   UNL     1       1.812   8.935  18.315  0.00  0.00    +0.000 C 
ATOM      3  O   UNL     1       2.111   9.403  17.225  0.00  0.00    +0.000 OA
ATOM      4  N   UNL     1       2.216   7.704  18.784  0.00  0.00    +0.000 N 
ATOM      5  H   UNL     1       1.428   9.400  20.221  0.00  0.00    +0.000 HD
ATOM      6  H   UNL     1       1.636   7.314  19.513  0.00  0.00    +0.000 HD
ENDROOT
BRANCH   1  12
ATOM      7  C   UNL     1      -0.553  11.327  18.482  0.00  0.00    +0.000 A 
ATOM      8  C   UNL     1      -0.885  12.694  18.387  0.00  0.00    +0.000 A 
ATOM      9  C   UNL     1      -0.013  13.683  18.833  0.00  0.00    +0.000 A 
ATOM     10  C   UNL     1       1.203  13.319  19.394  0.00  0.00    +0.000 A 
ATOM     11  C   UNL     1       1.525  11.967  19.547  0.00  0.00    +0.000 A 
ATOM     12  C   UNL     1       0.661  10.956  19.087  0.00  0.00    +0.000 A 
BRANCH   7  13
ATOM     13  C   UNL     1      -1.627  10.421  17.998  0.00  0.00    +0.000 C 
ATOM     14  O   UNL     1      -1.431   9.573  17.138  0.00  0.00    +0.000 OA
BRANCH  13  15
ATOM     15  O   UNL     1      -2.838  10.863  18.416  0.00  0.00    +0.000 OA
BRANCH  15  17
ATOM     16  C   UNL     1      -4.351  11.495  16.701  0.00  0.00    +0.000 C 
ATOM     17  C   UNL     1      -3.940  10.377  17.640  0.00  0.00    +0.000 C 
ENDBRANCH  15  17
ENDBRANCH  13  15
ENDBRANCH   7  13
ENDBRANCH   1  12
BRANCH   4  18
ATOM     18  C   UNL     1       3.032   6.742  18.046  0.00  0.00    +0.000 C 
ATOM     19  C   UNL     1       4.386   7.268  17.568  0.00  0.00    +0.000 C 
BRANCH  18  20
ATOM     20  C   UNL     1       3.149   5.379  18.750  0.00  0.00    +0.000 A 
ATOM     21  C   UNL     1       4.102   4.397  18.444  0.00  0.00    +0.000 A 
ATOM     22  S   UNL     1       4.070   3.072  19.512  0.00  0.00    +0.000 S 
ATOM     23  C   UNL     1       2.804   3.722  20.425  0.00  0.00    +0.000 A 
ATOM     24  C   UNL     1       2.307   2.970  21.622  0.00  0.00    +0.000 C 
ATOM     25  C   UNL     1       2.379   4.949  19.937  0.00  0.00    +0.000 A 
ATOM     26  C   UNL     1       1.279   5.719  20.606  0.00  0.00    +0.000 C 
BRANCH  21  27
ATOM     27  N   UNL     1       5.089   4.340  17.427  0.00  0.00    +0.000 N 
ATOM     28  C   UNL     1       4.910   4.089  16.076  0.00  0.00    +0.000 A 
ATOM     29  C   UNL     1       6.096   4.256  15.395  0.00  0.00    +0.000 A 
ATOM     30  C   UNL     1       7.083   4.534  16.351  0.00  0.00    +0.000 A 
ATOM     31  C   UNL     1       6.464   4.527  17.580  0.00  0.00    +0.000 A 
ENDBRANCH  21  27
ENDBRANCH  18  20
ENDBRANCH   4  18
TORSDOF 7
ENDMDL
MODEL 3
REMARK VINA RESULT:      -7.2      1.301      3.346
REMARK  Name = 
REMARK  11 active torsions:
REMARK  status: ('A' for Active; 'I' for Inactive)
REMARK    1  A    between atoms: C_1  and  C_2
REMARK    2  A    between atoms: C_2  and  O_3
REMARK    3  A    between atoms: O_3  and  C_4
REMARK    4  A    between atoms: C_4  and  C_6
REMARK    5  A    between atoms: C_11  and  N_12
REMARK    6  A    between atoms: N_15  and  C_16
REMARK    7  A    between atoms: C_16  and  C_17
REMARK    8  A    between atoms: C_16  and  C_18
REMARK    9  A    between atoms: C_19  and  N_20
REMARK   10  A    between atoms: C_26  and  C_27
REMARK   11  A    between atoms: C_28  and  C_29
REMARK                            x       y       z     vdW  Elec       q    Type
REMARK                         _______ _______ _______ _____ _____    ______ ____
ROOT
ATOM      1  N   UNL     1       3.021   6.866  18.659  0.00  0.00    +0.000 N 
ATOM      2  C   UNL     1       2.533   8.034  18.117  0.00  0.00    +0.000 C 
ATOM      3  O   UNL     1       2.717   8.377  16.956  0.00  0.00    +0.000 OA
ATOM      4  N   UNL     1       1.722   8.693  19.015  0.00  0.00    +0.000 N 
ATOM      5  H   UNL     1       2.386   6.453  19.330  0.00  0.00    +0.000 HD
ATOM      6  H   UNL     1       1.930   8.515  19.987  0.00  0.00    +0.000 HD
ENDROOT
BRANCH   1  12
ATOM      7  C   UNL     1       3.451   4.652  17.543  0.00  0.00    +0.000 A 
ATOM      8  C   UNL     1       4.345   3.880  16.773  0.00  0.00    +0.000 A 
ATOM      9  C   UNL     1       5.601   4.364  16.421  0.00  0.00    +0.000 A 
ATOM     10  C   UNL     1       5.981   5.638  16.824  0.00  0.00    +0.000 A 
ATOM     11  C   UNL     1       5.086   6.438  17.540  0.00  0.00    +0.000 A 
ATOM     12  C   UNL     1       3.818   5.958  17.916  0.00  0.00    +0.000 A 
BRANCH   7  13
ATOM     13  C   UNL     1       2.143   3.987  17.778  0.00  0.00    +0.000 C 
ATOM     14  O   UNL     1       1.086   4.461  17.383  0.00  0.00    +0.000 OA
BRANCH  13  15
ATOM     15  O   UNL     1       2.277   3.000  18.696  0.00  0.00    +0.000 OA
BRANCH  15  17
ATOM     16  C   UNL     1       1.368   2.945  20.888  0.00  0.00    +0.000 C 
ATOM     17  C   UNL     1       2.506   3.467  20.031  0.00  0.00    +0.000 C 
ENDBRANCH  15  17
ENDBRANCH  13  15
ENDBRANCH   7  13
ENDBRANCH   1  12
BRANCH   4  18
ATOM     18  C   UNL     1       0.982   9.924  18.744  0.00  0.00    +0.000 C 
ATOM     19  C   UNL     1      -0.160   9.789  17.736  0.00  0.00    +0.000 C 
BRANCH  18  20
ATOM     20  C   UNL     1       0.550  10.666  20.021  0.00  0.00    +0.000 A 
ATOM     21  C   UNL     1       0.678  12.047  20.228  0.00  0.00    +0.000 A 
ATOM     22  S   UNL     1      -0.041  12.579  21.676  0.00  0.00    +0.000 S 
ATOM     23  C   UNL     1      -0.551  11.025  22.102  0.00  0.00    +0.000 A 
ATOM     24  C   UNL     1      -1.331  10.833  23.366  0.00  0.00    +0.000 C 
ATOM     25  C   UNL     1      -0.184  10.074  21.160  0.00  0.00    +0.000 A 
ATOM     26  C   UNL     1      -0.551   8.629  21.322  0.00  0.00    +0.000 C 
BRANCH  21  27
ATOM     27  N   UNL     1       1.271  13.060  19.431  0.00  0.00    +0.000 N 
ATOM     28  C   UNL     1       0.745  14.297  19.093  0.00  0.00    +0.000 A 
ATOM     29  C   UNL     1       1.683  15.050  18.421  0.00  0.00    +0.000 A 
ATOM     30  C   UNL     1       2.812  14.237  18.244  0.00  0.00    +0.000 A 
ATOM     31  C   UNL     1       2.522  13.019  18.815  0.00  0.00    +0.000 A 
ENDBRANCH  21  27
ENDBRANCH  18  20
ENDBRANCH   4  18
TORSDOF 7
ENDMDL
MODEL 4
REMARK VINA RESULT:      -7.2      1.907      4.388
REMARK  Name = 
REMARK  11 active torsions:
REMARK  status: ('A' for Active; 'I' for Inactive)
REMARK    1  A    between atoms: C_1  and  C_2
REMARK    2  A    between atoms: C_2  and  O_3
REMARK    3  A    between atoms: O_3  and  C_4
REMARK    4  A    between atoms: C_4  and  C_6
REMARK    5  A    between atoms: C_11  and  N_12
REMARK    6  A    between atoms: N_15  and  C_16
REMARK    7  A    between atoms: C_16  and  C_17
REMARK    8  A    between atoms: C_16  and  C_18
REMARK    9  A    between atoms: C_19  and  N_20
REMARK   10  A    between atoms: C_26  and  C_27
REMARK   11  A    between atoms: C_28  and  C_29
REMARK                            x       y       z     vdW  Elec       q    Type
REMARK                         _______ _______ _______ _____ _____    ______ ____
ROOT
ATOM      1  N   UNL     1       2.600   6.251  19.816  0.00  0.00    +0.000 N 
ATOM      2  C   UNL     1       2.286   7.339  19.031  0.00  0.00    +0.000 C 
ATOM      3  O   UNL     1       2.227   7.305  17.810  0.00  0.00    +0.000 OA
ATOM      4  N   UNL     1       1.936   8.421  19.808  0.00  0.00    +0.000 N 
ATOM      5  H   UNL     1       2.089   6.240  20.689  0.00  0.00    +0.000 HD
ATOM      6  H   UNL     1       2.348   8.436  20.730  0.00  0.00    +0.000 HD
ENDROOT
BRANCH   1  12
ATOM      7  C   UNL     1       4.192   4.570  18.830  0.00  0.00    +0.000 A 
ATOM      8  C   UNL     1       4.357   3.261  18.332  0.00  0.00    +0.000 A 
ATOM      9  C   UNL     1       3.277   2.390  18.215  0.00  0.00    +0.000 A 
ATOM     10  C   UNL     1       2.013   2.812  18.605  0.00  0.00    +0.000 A 
ATOM     11  C   UNL     1       1.841   4.087  19.152  0.00  0.00    +0.000 A 
ATOM     12  C   UNL     1       2.919   4.984  19.265  0.00  0.00    +0.000 A 
BRANCH   7  13
ATOM     13  C   UNL     1       5.463   5.332  18.926  0.00  0.00    +0.000 C 
ATOM     14  O   UNL     1       6.284   5.131  19.812  0.00  0.00    +0.000 OA
BRANCH  13  15
ATOM     15  O   UNL     1       5.425   6.414  18.111  0.00  0.00    +0.000 OA
BRANCH  15  17
ATOM     16  C   UNL     1       7.522   7.350  17.512  0.00  0.00    +0.000 C 
ATOM     17  C   UNL     1       6.418   6.406  17.078  0.00  0.00    +0.000 C 
ENDBRANCH  15  17
ENDBRANCH  13  15
ENDBRANCH   7  13
ENDBRANCH   1  12
BRANCH   4  18
ATOM     18  C   UNL     1       1.475   9.714  19.304  0.00  0.00    +0.000 C 
ATOM     19  C   UNL     1       0.629   9.652  18.032  0.00  0.00    +0.000 C 
BRANCH  18  20
ATOM     20  C   UNL     1       0.836  10.597  20.390  0.00  0.00    +0.000 A 
ATOM     21  C   UNL     1       0.984  11.988  20.483  0.00  0.00    +0.000 A 
ATOM     22  S   UNL     1       0.020  12.687  21.699  0.00  0.00    +0.000 S 
ATOM     23  C   UNL     1      -0.635  11.200  22.163  0.00  0.00    +0.000 A 
ATOM     24  C   UNL     1      -1.657  11.162  23.258  0.00  0.00    +0.000 C 
ATOM     25  C   UNL     1      -0.135  10.146  21.411  0.00  0.00    +0.000 A 
ATOM     26  C   UNL     1      -0.594   8.737  21.635  0.00  0.00    +0.000 C 
BRANCH  21  27
ATOM     27  N   UNL     1       1.769  12.896  19.726  0.00  0.00    +0.000 N 
ATOM     28  C   UNL     1       2.835  13.669  20.159  0.00  0.00    +0.000 A 
ATOM     29  C   UNL     1       3.423  14.315  19.093  0.00  0.00    +0.000 A 
ATOM     30  C   UNL     1       2.655  14.017  17.958  0.00  0.00    +0.000 A 
ATOM     31  C   UNL     1       1.628  13.200  18.372  0.00  0.00    +0.000 A 
ENDBRANCH  21  27
ENDBRANCH  18  20
ENDBRANCH   4  18
TORSDOF 7
ENDMDL
MODEL 5
REMARK VINA RESULT:      -7.1      2.973      8.475
REMARK  Name = 
REMARK  11 active torsions:
REMARK  status: ('A' for Active; 'I' for Inactive)
REMARK    1  A    between atoms: C_1  and  C_2
REMARK    2  A    between atoms: C_2  and  O_3
REMARK    3  A    between atoms: O_3  and  C_4
REMARK    4  A    between atoms: C_4  and  C_6
REMARK    5  A    between atoms: C_11  and  N_12
REMARK    6  A    between atoms: N_15  and  C_16
REMARK    7  A    between atoms: C_16  and  C_17
REMARK    8  A    between atoms: C_16  and  C_18
REMARK    9  A    between atoms: C_19  and  N_20
REMARK   10  A    between atoms: C_26  and  C_27
REMARK   11  A    between atoms: C_28  and  C_29
REMARK                            x       y       z     vdW  Elec       q    Type
REMARK                         _______ _______ _______ _____ _____    ______ ____
ROOT
ATOM      1  N   UNL     1       0.772   9.180  19.300  0.00  0.00    +0.000 N 
ATOM      2  C   UNL     1       1.589   8.593  18.359  0.00  0.00    +0.000 C 
ATOM      3  O   UNL     1       1.807   9.068  17.253  0.00  0.00    +0.000 OA
ATOM      4  N   UNL     1       2.210   7.476  18.874  0.00  0.00    +0.000 N 
ATOM      5  H   UNL     1       1.108   9.046  20.245  0.00  0.00    +0.000 HD
ATOM      6  H   UNL     1       1.706   7.011  19.615  0.00  0.00    +0.000 HD
ENDROOT
BRANCH   1  12
ATOM      7  C   UNL     1       0.201  11.580  19.796  0.00  0.00    +0.000 A 
ATOM      8  C   UNL     1      -0.538  12.715  19.405  0.00  0.00    +0.000 A 
ATOM      9  C   UNL     1      -1.424  12.668  18.333  0.00  0.00    +0.000 A 
ATOM     10  C   UNL     1      -1.577  11.484  17.625  0.00  0.00    +0.000 A 
ATOM     11  C   UNL     1      -0.813  10.364  17.964  0.00  0.00    +0.000 A 
ATOM     12  C   UNL     1       0.077  10.391  19.053  0.00  0.00    +0.000 A 
BRANCH   7  13
ATOM     13  C   UNL     1       1.128  11.836  20.928  0.00  0.00    +0.000 C 
ATOM     14  O   UNL     1       1.991  12.703  20.886  0.00  0.00    +0.000 OA
BRANCH  13  15
ATOM     15  O   UNL     1       1.063  10.825  21.827  0.00  0.00    +0.000 OA
BRANCH  15  17
ATOM     16  C   UNL     1      -0.134   9.471  23.365  0.00  0.00    +0.000 C 
ATOM     17  C   UNL     1      -0.202  10.708  22.489  0.00  0.00    +0.000 C 
ENDBRANCH  15  17
ENDBRANCH  13  15
ENDBRANCH   7  13
ENDBRANCH   1  12
BRANCH   4  18
ATOM     18  C   UNL     1       3.198   6.657  18.174  0.00  0.00    +0.000 C 
ATOM     19  C   UNL     1       4.550   7.329  17.935  0.00  0.00    +0.000 C 
BRANCH  18  20
ATOM     20  C   UNL     1       3.343   5.244  18.765  0.00  0.00    +0.000 A 
ATOM     21  C   UNL     1       4.289   4.294  18.351  0.00  0.00    +0.000 A 
ATOM     22  S   UNL     1       4.297   2.890  19.314  0.00  0.00    +0.000 S 
ATOM     23  C   UNL     1       3.060   3.459  20.316  0.00  0.00    +0.000 A 
ATOM     24  C   UNL     1       2.607   2.613  21.467  0.00  0.00    +0.000 C 
ATOM     25  C   UNL     1       2.615   4.718  19.940  0.00  0.00    +0.000 A 
ATOM     26  C   UNL     1       1.536   5.427  20.703  0.00  0.00    +0.000 C 
BRANCH  21  27
ATOM     27  N   UNL     1       5.241   4.322  17.300  0.00  0.00    +0.000 N 
ATOM     28  C   UNL     1       5.017   4.175  15.941  0.00  0.00    +0.000 A 
ATOM     29  C   UNL     1       6.179   4.402  15.235  0.00  0.00    +0.000 A 
ATOM     30  C   UNL     1       7.196   4.611  16.177  0.00  0.00    +0.000 A 
ATOM     31  C   UNL     1       6.619   4.506  17.422  0.00  0.00    +0.000 A 
ENDBRANCH  21  27
ENDBRANCH  18  20
ENDBRANCH   4  18
TORSDOF 7
ENDMDL
MODEL 6
REMARK VINA RESULT:      -6.9      0.743      1.223
REMARK  Name = 
REMARK  11 active torsions:
REMARK  status: ('A' for Active; 'I' for Inactive)
REMARK    1  A    between atoms: C_1  and  C_2
REMARK    2  A    between atoms: C_2  and  O_3
REMARK    3  A    between atoms: O_3  and  C_4
REMARK    4  A    between atoms: C_4  and  C_6
REMARK    5  A    between atoms: C_11  and  N_12
REMARK    6  A    between atoms: N_15  and  C_16
REMARK    7  A    between atoms: C_16  and  C_17
REMARK    8  A    between atoms: C_16  and  C_18
REMARK    9  A    between atoms: C_19  and  N_20
REMARK   10  A    between atoms: C_26  and  C_27
REMARK   11  A    between atoms: C_28  and  C_29
REMARK                            x       y       z     vdW  Elec       q    Type
REMARK                         _______ _______ _______ _____ _____    ______ ____
ROOT
ATOM      1  N   UNL     1       2.623   7.639  19.020  0.00  0.00    +0.000 N 
ATOM      2  C   UNL     1       2.060   8.711  18.362  0.00  0.00    +0.000 C 
ATOM      3  O   UNL     1       2.080   8.852  17.147  0.00  0.00    +0.000 OA
ATOM      4  N   UNL     1       1.380   9.526  19.240  0.00  0.00    +0.000 N 
ATOM      5  H   UNL     1       2.088   7.356  19.831  0.00  0.00    +0.000 HD
ATOM      6  H   UNL     1       1.721   9.508  20.190  0.00  0.00    +0.000 HD
ENDROOT
BRANCH   1  12
ATOM      7  C   UNL     1       3.270   5.235  18.657  0.00  0.00    +0.000 A 
ATOM      8  C   UNL     1       3.989   4.320  17.860  0.00  0.00    +0.000 A 
ATOM      9  C   UNL     1       4.778   4.751  16.797  0.00  0.00    +0.000 A 
ATOM     10  C   UNL     1       4.851   6.107  16.506  0.00  0.00    +0.000 A 
ATOM     11  C   UNL     1       4.102   7.022  17.251  0.00  0.00    +0.000 A 
ATOM     12  C   UNL     1       3.312   6.605  18.337  0.00  0.00    +0.000 A 
BRANCH   7  13
ATOM     13  C   UNL     1       2.450   4.586  19.712  0.00  0.00    +0.000 C 
ATOM     14  O   UNL     1       1.860   5.226  20.572  0.00  0.00    +0.000 OA
BRANCH  13  15
ATOM     15  O   UNL     1       2.694   3.254  19.743  0.00  0.00    +0.000 OA
BRANCH  15  17
ATOM     16  C   UNL     1       0.731   2.343  18.769  0.00  0.00    +0.000 C 
ATOM     17  C   UNL     1       1.545   2.453  20.044  0.00  0.00    +0.000 C 
ENDBRANCH  15  17
ENDBRANCH  13  15
ENDBRANCH   7  13
ENDBRANCH   1  12
BRANCH   4  18
ATOM     18  C   UNL     1       0.606  10.710  18.871  0.00  0.00    +0.000 C 
ATOM     19  C   UNL     1      -0.911  10.560  18.994  0.00  0.00    +0.000 C 
BRANCH  18  20
ATOM     20  C   UNL     1       1.120  12.001  19.530  0.00  0.00    +0.000 A 
ATOM     21  C   UNL     1       0.785  12.433  20.821  0.00  0.00    +0.000 A 
ATOM     22  S   UNL     1       1.647  13.815  21.314  0.00  0.00    +0.000 S 
ATOM     23  C   UNL     1       2.498  13.916  19.857  0.00  0.00    +0.000 A 
ATOM     24  C   UNL     1       3.517  15.000  19.681  0.00  0.00    +0.000 C 
ATOM     25  C   UNL     1       2.144  12.910  18.969  0.00  0.00    +0.000 A 
ATOM     26  C   UNL     1       2.791  12.792  17.621  0.00  0.00    +0.000 C 
BRANCH  21  27
ATOM     27  N   UNL     1      -0.116  11.900  21.779  0.00  0.00    +0.000 N 
ATOM     28  C   UNL     1      -1.248  12.497  22.310  0.00  0.00    +0.000 A 
ATOM     29  C   UNL     1      -1.934  11.604  23.105  0.00  0.00    +0.000 A 
ATOM     30  C   UNL     1      -1.170  10.429  23.155  0.00  0.00    +0.000 A 
ATOM     31  C   UNL     1      -0.048  10.647  22.389  0.00  0.00    +0.000 A 
ENDBRANCH  21  27
ENDBRANCH  18  20
ENDBRANCH   4  18
TORSDOF 7
ENDMDL
MODEL 7
REMARK VINA RESULT:      -6.8      0.798      1.079
REMARK  Name = 
REMARK  11 active torsions:
REMARK  status: ('A' for Active; 'I' for Inactive)
REMARK    1  A    between atoms: C_1  and  C_2
REMARK    2  A    between atoms: C_2  and  O_3
REMARK    3  A    between atoms: O_3  and  C_4
REMARK    4  A    between atoms: C_4  and  C_6
REMARK    5  A    between atoms: C_11  and  N_12
REMARK    6  A    between atoms: N_15  and  C_16
REMARK    7  A    between atoms: C_16  and  C_17
REMARK    8  A    between atoms: C_16  and  C_18
REMARK    9  A    between atoms: C_19  and  N_20
REMARK   10  A    between atoms: C_26  and  C_27
REMARK   11  A    between atoms: C_28  and  C_29
REMARK                            x       y       z     vdW  Elec       q    Type
REMARK                         _______ _______ _______ _____ _____    ______ ____
ROOT
ATOM      1  N   UNL     1       2.439   7.651  18.785  0.00  0.00    +0.000 N 
ATOM      2  C   UNL     1       1.933   8.803  18.223  0.00  0.00    +0.000 C 
ATOM      3  O   UNL     1       2.099   9.122  17.054  0.00  0.00    +0.000 OA
ATOM      4  N   UNL     1       1.127   9.474  19.117  0.00  0.00    +0.000 N 
ATOM      5  H   UNL     1       1.816   7.247  19.473  0.00  0.00    +0.000 HD
ATOM      6  H   UNL     1       1.348   9.320  20.090  0.00  0.00    +0.000 HD
ENDROOT
BRANCH   1  12
ATOM      7  C   UNL     1       3.089   5.336  18.046  0.00  0.00    +0.000 A 
ATOM      8  C   UNL     1       3.944   4.559  17.238  0.00  0.00    +0.000 A 
ATOM      9  C   UNL     1       4.959   5.143  16.487  0.00  0.00    +0.000 A 
ATOM     10  C   UNL     1       5.131   6.521  16.524  0.00  0.00    +0.000 A 
ATOM     11  C   UNL     1       4.259   7.312  17.277  0.00  0.00    +0.000 A 
ATOM     12  C   UNL     1       3.236   6.736  18.053  0.00  0.00    +0.000 A 
BRANCH   7  13
ATOM     13  C   UNL     1       2.039   4.542  18.734  0.00  0.00    +0.000 C 
ATOM     14  O   UNL     1       1.542   4.892  19.796  0.00  0.00    +0.000 OA
BRANCH  13  15
ATOM     15  O   UNL     1       1.949   3.307  18.185  0.00  0.00    +0.000 OA
BRANCH  15  17
ATOM     16  C   UNL     1       3.359   1.428  18.527  0.00  0.00    +0.000 C 
ATOM     17  C   UNL     1       2.210   2.237  19.101  0.00  0.00    +0.000 C 
ENDBRANCH  15  17
ENDBRANCH  13  15
ENDBRANCH   7  13
ENDBRANCH   1  12
BRANCH   4  18
ATOM     18  C   UNL     1       0.371  10.692  18.828  0.00  0.00    +0.000 C 
ATOM     19  C   UNL     1      -1.143  10.577  19.010  0.00  0.00    +0.000 C 
BRANCH  18  20
ATOM     20  C   UNL     1       0.949  11.942  19.514  0.00  0.00    +0.000 A 
ATOM     21  C   UNL     1       0.583  12.400  20.788  0.00  0.00    +0.000 A 
ATOM     22  S   UNL     1       1.522  13.714  21.326  0.00  0.00    +0.000 S 
ATOM     23  C   UNL     1       2.451  13.746  19.914  0.00  0.00    +0.000 A 
ATOM     24  C   UNL     1       3.557  14.749  19.792  0.00  0.00    +0.000 C 
ATOM     25  C   UNL     1       2.066  12.768  19.008  0.00  0.00    +0.000 A 
ATOM     26  C   UNL     1       2.769  12.599  17.694  0.00  0.00    +0.000 C 
BRANCH  21  27
ATOM     27  N   UNL     1      -0.404  11.939  21.698  0.00  0.00    +0.000 N 
ATOM     28  C   UNL     1      -0.398  10.771  22.444  0.00  0.00    +0.000 A 
ATOM     29  C   UNL     1      -1.468  10.751  23.312  0.00  0.00    +0.000 A 
ATOM     30  C   UNL     1      -2.230  11.899  23.051  0.00  0.00    +0.000 A 
ATOM     31  C   UNL     1      -1.598  12.578  22.034  0.00  0.00    +0.000 A 
ENDBRANCH  21  27
ENDBRANCH  18  20
ENDBRANCH   4  18
TORSDOF 7
ENDMDL
MODEL 8
REMARK VINA RESULT:      -6.8      3.054      8.838
REMARK  Name = 
REMARK  11 active torsions:
REMARK  status: ('A' for Active; 'I' for Inactive)
REMARK    1  A    between atoms: C_1  and  C_2
REMARK    2  A    between atoms: C_2  and  O_3
REMARK    3  A    between atoms: O_3  and  C_4
REMARK    4  A    between atoms: C_4  and  C_6
REMARK    5  A    between atoms: C_11  and  N_12
REMARK    6  A    between atoms: N_15  and  C_16
REMARK    7  A    between atoms: C_16  and  C_17
REMARK    8  A    between atoms: C_16  and  C_18
REMARK    9  A    between atoms: C_19  and  N_20
REMARK   10  A    between atoms: C_26  and  C_27
REMARK   11  A    between atoms: C_28  and  C_29
REMARK                            x       y       z     vdW  Elec       q    Type
REMARK                         _______ _______ _______ _____ _____    ______ ____
ROOT
ATOM      1  N   UNL     1       1.037   9.452  19.360  0.00  0.00    +0.000 N 
ATOM      2  C   UNL     1       1.651   8.713  18.373  0.00  0.00    +0.000 C 
ATOM      3  O   UNL     1       1.590   8.983  17.181  0.00  0.00    +0.000 OA
ATOM      4  N   UNL     1       2.430   7.715  18.917  0.00  0.00    +0.000 N 
ATOM      5  H   UNL     1       1.583   9.495  20.211  0.00  0.00    +0.000 HD
ATOM      6  H   UNL     1       2.131   7.387  19.823  0.00  0.00    +0.000 HD
ENDROOT
BRANCH   1  12
ATOM      7  C   UNL     1       0.593  11.928  19.329  0.00  0.00    +0.000 A 
ATOM      8  C   UNL     1      -0.297  12.956  18.955  0.00  0.00    +0.000 A 
ATOM      9  C   UNL     1      -1.536  12.671  18.387  0.00  0.00    +0.000 A 
ATOM     10  C   UNL     1      -1.901  11.349  18.173  0.00  0.00    +0.000 A 
ATOM     11  C   UNL     1      -1.009  10.319  18.486  0.00  0.00    +0.000 A 
ATOM     12  C   UNL     1       0.241  10.590  19.073  0.00  0.00    +0.000 A 
BRANCH   7  13
ATOM     13  C   UNL     1       1.881  12.428  19.873  0.00  0.00    +0.000 C 
ATOM     14  O   UNL     1       2.061  12.612  21.069  0.00  0.00    +0.000 OA
BRANCH  13  15
ATOM     15  O   UNL     1       2.663  12.899  18.872  0.00  0.00    +0.000 OA
BRANCH  15  17
ATOM     16  C   UNL     1       3.129  15.009  17.890  0.00  0.00    +0.000 C 
ATOM     17  C   UNL     1       3.266  14.169  19.146  0.00  0.00    +0.000 C 
ENDBRANCH  15  17
ENDBRANCH  13  15
ENDBRANCH   7  13
ENDBRANCH   1  12
BRANCH   4  18
ATOM     18  C   UNL     1       3.277   6.794  18.162  0.00  0.00    +0.000 C 
ATOM     19  C   UNL     1       4.661   7.332  17.797  0.00  0.00    +0.000 C 
BRANCH  18  20
ATOM     20  C   UNL     1       3.341   5.385  18.777  0.00  0.00    +0.000 A 
ATOM     21  C   UNL     1       4.237   4.379  18.387  0.00  0.00    +0.000 A 
ATOM     22  S   UNL     1       4.160   2.992  19.371  0.00  0.00    +0.000 S 
ATOM     23  C   UNL     1       2.947   3.643  20.352  0.00  0.00    +0.000 A 
ATOM     24  C   UNL     1       2.438   2.842  21.511  0.00  0.00    +0.000 C 
ATOM     25  C   UNL     1       2.574   4.919  19.952  0.00  0.00    +0.000 A 
ATOM     26  C   UNL     1       1.529   5.697  20.694  0.00  0.00    +0.000 C 
BRANCH  21  27
ATOM     27  N   UNL     1       5.199   4.338  17.345  0.00  0.00    +0.000 N 
ATOM     28  C   UNL     1       4.985   4.122  15.993  0.00  0.00    +0.000 A 
ATOM     29  C   UNL     1       6.156   4.296  15.288  0.00  0.00    +0.000 A 
ATOM     30  C   UNL     1       7.168   4.543  16.227  0.00  0.00    +0.000 A 
ATOM     31  C   UNL     1       6.578   4.512  17.470  0.00  0.00    +0.000 A 
ENDBRANCH  21  27
ENDBRANCH  18  20
ENDBRANCH   4  18
TORSDOF 7
ENDMDL
MODEL 9
REMARK VINA RESULT:      -6.8      2.958      8.823
REMARK  Name = 
REMARK  11 active torsions:
REMARK  status: ('A' for Active; 'I' for Inactive)
REMARK    1  A    between atoms: C_1  and  C_2
REMARK    2  A    between atoms: C_2  and  O_3
REMARK    3  A    between atoms: O_3  and  C_4
REMARK    4  A    between atoms: C_4  and  C_6
REMARK    5  A    between atoms: C_11  and  N_12
REMARK    6  A    between atoms: N_15  and  C_16
REMARK    7  A    between atoms: C_16  and  C_17
REMARK    8  A    between atoms: C_16  and  C_18
REMARK    9  A    between atoms: C_19  and  N_20
REMARK   10  A    between atoms: C_26  and  C_27
REMARK   11  A    between atoms: C_28  and  C_29
REMARK                            x       y       z     vdW  Elec       q    Type
REMARK                         _______ _______ _______ _____ _____    ______ ____
ROOT
ATOM      1  N   UNL     1       1.138   9.529  19.438  0.00  0.00    +0.000 N 
ATOM      2  C   UNL     1       1.611   8.741  18.412  0.00  0.00    +0.000 C 
ATOM      3  O   UNL     1       1.380   8.952  17.229  0.00  0.00    +0.000 OA
ATOM      4  N   UNL     1       2.462   7.769  18.889  0.00  0.00    +0.000 N 
ATOM      5  H   UNL     1       1.799   9.612  20.201  0.00  0.00    +0.000 HD
ATOM      6  H   UNL     1       2.294   7.486  19.843  0.00  0.00    +0.000 HD
ENDROOT
BRANCH   1  12
ATOM      7  C   UNL     1       0.743  11.956  18.907  0.00  0.00    +0.000 A 
ATOM      8  C   UNL     1      -0.213  12.967  18.677  0.00  0.00    +0.000 A 
ATOM      9  C   UNL     1      -1.577  12.713  18.794  0.00  0.00    +0.000 A 
ATOM     10  C   UNL     1      -2.008  11.438  19.134  0.00  0.00    +0.000 A 
ATOM     11  C   UNL     1      -1.077  10.411  19.313  0.00  0.00    +0.000 A 
ATOM     12  C   UNL     1       0.305  10.654  19.212  0.00  0.00    +0.000 A 
BRANCH   7  13
ATOM     13  C   UNL     1       2.143  12.403  18.688  0.00  0.00    +0.000 C 
ATOM     14  O   UNL     1       2.874  11.884  17.856  0.00  0.00    +0.000 OA
BRANCH  13  15
ATOM     15  O   UNL     1       2.540  13.215  19.697  0.00  0.00    +0.000 OA
BRANCH  15  17
ATOM     16  C   UNL     1       2.826  15.554  19.982  0.00  0.00    +0.000 C 
ATOM     17  C   UNL     1       3.353  14.318  19.278  0.00  0.00    +0.000 C 
ENDBRANCH  15  17
ENDBRANCH  13  15
ENDBRANCH   7  13
ENDBRANCH   1  12
BRANCH   4  18
ATOM     18  C   UNL     1       3.198   6.809  18.067  0.00  0.00    +0.000 C 
ATOM     19  C   UNL     1       4.542   7.304  17.534  0.00  0.00    +0.000 C 
BRANCH  18  20
ATOM     20  C   UNL     1       3.301   5.414  18.709  0.00  0.00    +0.000 A 
ATOM     21  C   UNL     1       4.223   4.426  18.336  0.00  0.00    +0.000 A 
ATOM     22  S   UNL     1       4.187   3.056  19.347  0.00  0.00    +0.000 S 
ATOM     23  C   UNL     1       2.959   3.694  20.320  0.00  0.00    +0.000 A 
ATOM     24  C   UNL     1       2.476   2.902  21.496  0.00  0.00    +0.000 C 
ATOM     25  C   UNL     1       2.551   4.950  19.897  0.00  0.00    +0.000 A 
ATOM     26  C   UNL     1       1.487   5.714  20.627  0.00  0.00    +0.000 C 
BRANCH  21  27
ATOM     27  N   UNL     1       5.183   4.390  17.292  0.00  0.00    +0.000 N 
ATOM     28  C   UNL     1       6.549   4.601  17.381  0.00  0.00    +0.000 A 
ATOM     29  C   UNL     1       7.155   4.343  16.171  0.00  0.00    +0.000 A 
ATOM     30  C   UNL     1       6.134   4.045  15.256  0.00  0.00    +0.000 A 
ATOM     31  C   UNL     1       4.944   4.131  15.941  0.00  0.00    +0.000 A 
ENDBRANCH  21  27
ENDBRANCH  18  20
ENDBRANCH   4  18
TORSDOF 7
ENDMDL
