MODEL 1
REMARK VINA RESULT:      -9.5      0.000      0.000
REMARK  Name = 
REMARK  5 active torsions:
REMARK  status: ('A' for Active; 'I' for Inactive)
REMARK    1  A    between atoms: C_2  and  C_4
REMARK    2  A    between atoms: N_11  and  C_12
REMARK    3  A    between atoms: C_15  and  N_16
REMARK    4  A    between atoms: C_17  and  C_19
REMARK    5  A    between atoms: C_23  and  C_24
REMARK                            x       y       z     vdW  Elec       q    Type
REMARK                         _______ _______ _______ _____ _____    ______ ____
ROOT
ATOM      1  C   UNL     1       2.281   7.085  19.587  0.00  0.00    +0.000 A 
ATOM      2  C   UNL     1       1.568   7.017  20.781  0.00  0.00    +0.000 A 
ATOM      3  C   UNL     1       0.810   8.103  21.221  0.00  0.00    +0.000 A 
ATOM      4  C   UNL     1       0.721   9.272  20.466  0.00  0.00    +0.000 A 
ATOM      5  C   UNL     1       1.365   9.313  19.225  0.00  0.00    +0.000 A 
ATOM      6  C   UNL     1       2.145   8.230  18.787  0.00  0.00    +0.000 A 
ENDROOT
BRANCH   1  14
ATOM      7  C   UNL     1       5.732   5.188  16.155  0.00  0.00    +0.000 A 
ATOM      8  C   UNL     1       5.111   6.420  16.019  0.00  0.00    +0.000 A 
ATOM      9  C   UNL     1       4.183   6.813  16.976  0.00  0.00    +0.000 A 
ATOM     10  C   UNL     1       3.965   5.949  18.063  0.00  0.00    +0.000 A 
ATOM     11  C   UNL     1       4.621   4.714  18.096  0.00  0.00    +0.000 A 
ATOM     12  C   UNL     1       4.173   4.010  19.230  0.00  0.00    +0.000 A 
ATOM     13  C   UNL     1       3.257   4.810  19.874  0.00  0.00    +0.000 A 
ATOM     14  N   UNL     1       3.134   6.008  19.189  0.00  0.00    +0.000 N 
ATOM     15  N   UNL     1       5.510   4.299  17.159  0.00  0.00    +0.000 NA
BRANCH   7  17
ATOM     16  N   UNL     1       6.352   3.667  14.366  0.00  0.00    +0.000 N 
ATOM     17  C   UNL     1       6.712   4.764  15.104  0.00  0.00    +0.000 C 
ATOM     18  O   UNL     1       7.765   5.356  14.899  0.00  0.00    +0.000 OA
ATOM     19  H   UNL     1       6.963   3.344  13.631  0.00  0.00    +0.000 HD
ATOM     20  H   UNL     1       5.465   3.213  14.543  0.00  0.00    +0.000 HD
ENDBRANCH   7  17
ENDBRANCH   1  14
BRANCH   4  21
ATOM     21  N   UNL     1      -0.003  10.408  20.902  0.00  0.00    +0.000 N 
ATOM     22  C   UNL     1      -0.192  10.760  22.229  0.00  0.00    +0.000 C 
ATOM     23  O   UNL     1       0.294  10.203  23.206  0.00  0.00    +0.000 OA
ATOM     24  H   UNL     1      -0.270  11.077  20.192  0.00  0.00    +0.000 HD
BRANCH  22  25
ATOM     25  C   UNL     1      -1.017  11.969  22.488  0.00  0.00    +0.000 A 
ATOM     26  C   UNL     1      -0.427  13.218  22.250  0.00  0.00    +0.000 A 
ATOM     27  C   UNL     1      -1.114  14.392  22.544  0.00  0.00    +0.000 A 
ATOM     28  C   UNL     1      -2.389  14.327  23.103  0.00  0.00    +0.000 A 
ATOM     29  C   UNL     1      -2.988  13.085  23.375  0.00  0.00    +0.000 A 
ATOM     30  C   UNL     1      -2.298  11.901  23.047  0.00  0.00    +0.000 A 
BRANCH  29  31
ATOM     31  C   UNL     1      -4.336  13.015  24.052  0.00  0.00    +0.000 C 
ATOM     32  F   UNL     1      -5.300  12.427  23.292  0.00  0.00    +0.000 F 
ATOM     33  F   UNL     1      -4.293  12.310  25.216  0.00  0.00    +0.000 F 
ATOM     34  F   UNL     1      -4.814  14.247  24.377  0.00  0.00    +0.000 F 
ENDBRANCH  29  31
ENDBRANCH  22  25
ENDBRANCH   4  21
TORSDOF 5
ENDMDL
MODEL 2
REMARK VINA RESULT:      -9.4      1.929      2.835
REMARK  Name = 
REMARK  5 active torsions:
REMARK  status: ('A' for Active; 'I' for Inactive)
REMARK    1  A    between atoms: C_2  and  C_4
REMARK    2  A    between atoms: N_11  and  C_12
REMARK    3  A    between atoms: C_15  and  N_16
REMARK    4  A    between atoms: C_17  and  C_19
REMARK    5  A    between atoms: C_23  and  C_24
REMARK                            x       y       z     vdW  Elec       q    Type
REMARK                         _______ _______ _______ _____ _____    ______ ____
ROOT
ATOM      1  C   UNL     1       1.770   8.223  19.313  0.00  0.00    +0.000 A 
ATOM      2  C   UNL     1       1.376   8.076  20.642  0.00  0.00    +0.000 A 
ATOM      3  C   UNL     1       0.569   9.034  21.256  0.00  0.00    +0.000 A 
ATOM      4  C   UNL     1       0.110  10.146  20.553  0.00  0.00    +0.000 A 
ATOM      5  C   UNL     1       0.430  10.255  19.196  0.00  0.00    +0.000 A 
ATOM      6  C   UNL     1       1.259   9.303  18.578  0.00  0.00    +0.000 A 
ENDROOT
BRANCH   1  14
ATOM      7  C   UNL     1       3.702   3.372  19.186  0.00  0.00    +0.000 A 
ATOM      8  C   UNL     1       2.755   3.797  20.104  0.00  0.00    +0.000 A 
ATOM      9  C   UNL     1       2.333   5.122  20.069  0.00  0.00    +0.000 A 
ATOM     10  C   UNL     1       2.862   5.945  19.059  0.00  0.00    +0.000 A 
ATOM     11  C   UNL     1       3.835   5.429  18.197  0.00  0.00    +0.000 A 
ATOM     12  C   UNL     1       4.258   6.465  17.343  0.00  0.00    +0.000 A 
ATOM     13  C   UNL     1       3.550   7.594  17.687  0.00  0.00    +0.000 A 
ATOM     14  N   UNL     1       2.676   7.291  18.718  0.00  0.00    +0.000 N 
ATOM     15  N   UNL     1       4.279   4.147  18.231  0.00  0.00    +0.000 NA
BRANCH   7  17
ATOM     16  N   UNL     1       5.126   1.681  20.190  0.00  0.00    +0.000 N 
ATOM     17  C   UNL     1       4.167   1.949  19.249  0.00  0.00    +0.000 C 
ATOM     18  O   UNL     1       3.720   1.069  18.522  0.00  0.00    +0.000 OA
ATOM     19  H   UNL     1       5.466   0.737  20.294  0.00  0.00    +0.000 HD
ATOM     20  H   UNL     1       5.460   2.423  20.792  0.00  0.00    +0.000 HD
ENDBRANCH   7  17
ENDBRANCH   1  14
BRANCH   4  21
ATOM     21  N   UNL     1      -0.673  11.160  21.157  0.00  0.00    +0.000 N 
ATOM     22  C   UNL     1      -0.859  11.304  22.522  0.00  0.00    +0.000 C 
ATOM     23  O   UNL     1      -0.321  10.644  23.403  0.00  0.00    +0.000 OA
ATOM     24  H   UNL     1      -0.994  11.906  20.553  0.00  0.00    +0.000 HD
BRANCH  22  25
ATOM     25  C   UNL     1      -1.752  12.409  22.961  0.00  0.00    +0.000 A 
ATOM     26  C   UNL     1      -1.149  13.613  23.350  0.00  0.00    +0.000 A 
ATOM     27  C   UNL     1      -1.917  14.661  23.846  0.00  0.00    +0.000 A 
ATOM     28  C   UNL     1      -3.295  14.505  23.982  0.00  0.00    +0.000 A 
ATOM     29  C   UNL     1      -3.917  13.297  23.624  0.00  0.00    +0.000 A 
ATOM     30  C   UNL     1      -3.135  12.250  23.094  0.00  0.00    +0.000 A 
BRANCH  29  31
ATOM     31  C   UNL     1      -5.398  13.100  23.844  0.00  0.00    +0.000 C 
ATOM     32  F   UNL     1      -5.691  12.242  24.859  0.00  0.00    +0.000 F 
ATOM     33  F   UNL     1      -6.035  14.266  24.142  0.00  0.00    +0.000 F 
ATOM     34  F   UNL     1      -6.021  12.603  22.741  0.00  0.00    +0.000 F 
ENDBRANCH  29  31
ENDBRANCH  22  25
ENDBRANCH   4  21
TORSDOF 5
ENDMDL
MODEL 3
REMARK VINA RESULT:      -9.4      2.162      3.106
REMARK  Name = 
REMARK  5 active torsions:
REMARK  status: ('A' for Active; 'I' for Inactive)
REMARK    1  A    between atoms: C_2  and  C_4
REMARK    2  A    between atoms: N_11  and  C_12
REMARK    3  A    between atoms: C_15  and  N_16
REMARK    4  A    between atoms: C_17  and  C_19
REMARK    5  A    between atoms: C_23  and  C_24
REMARK                            x       y       z     vdW  Elec       q    Type
REMARK                         _______ _______ _______ _____ _____    ______ ____
ROOT
ATOM      1  C   UNL     1       1.604   8.579  19.653  0.00  0.00    +0.000 A 
ATOM      2  C   UNL     1       0.954   9.609  18.976  0.00  0.00    +0.000 A 
ATOM      3  C   UNL     1       0.111  10.488  19.657  0.00  0.00    +0.000 A 
ATOM      4  C   UNL     1      -0.081  10.381  21.033  0.00  0.00    +0.000 A 
ATOM      5  C   UNL     1       0.637   9.404  21.732  0.00  0.00    +0.000 A 
ATOM      6  C   UNL     1       1.472   8.504  21.047  0.00  0.00    +0.000 A 
ENDROOT
BRANCH   1  14
ATOM      7  C   UNL     1       3.423   3.695  19.307  0.00  0.00    +0.000 A 
ATOM      8  C   UNL     1       2.643   4.152  20.358  0.00  0.00    +0.000 A 
ATOM      9  C   UNL     1       2.239   5.482  20.366  0.00  0.00    +0.000 A 
ATOM     10  C   UNL     1       2.610   6.279  19.269  0.00  0.00    +0.000 A 
ATOM     11  C   UNL     1       3.422   5.732  18.271  0.00  0.00    +0.000 A 
ATOM     12  C   UNL     1       3.715   6.748  17.340  0.00  0.00    +0.000 A 
ATOM     13  C   UNL     1       3.089   7.894  17.772  0.00  0.00    +0.000 A 
ATOM     14  N   UNL     1       2.389   7.622  18.936  0.00  0.00    +0.000 N 
ATOM     15  N   UNL     1       3.848   4.445  18.256  0.00  0.00    +0.000 NA
BRANCH   7  17
ATOM     16  N   UNL     1       4.917   1.982  20.160  0.00  0.00    +0.000 N 
ATOM     17  C   UNL     1       3.872   2.265  19.322  0.00  0.00    +0.000 C 
ATOM     18  O   UNL     1       3.342   1.394  18.643  0.00  0.00    +0.000 OA
ATOM     19  H   UNL     1       5.253   1.033  20.229  0.00  0.00    +0.000 HD
ATOM     20  H   UNL     1       5.320   2.719  20.727  0.00  0.00    +0.000 HD
ENDBRANCH   7  17
ENDBRANCH   1  14
BRANCH   4  21
ATOM     21  N   UNL     1      -0.962  11.228  21.748  0.00  0.00    +0.000 N 
ATOM     22  C   UNL     1      -0.639  12.494  22.207  0.00  0.00    +0.000 C 
ATOM     23  O   UNL     1       0.406  13.098  22.000  0.00  0.00    +0.000 OA
ATOM     24  H   UNL     1      -1.931  10.939  21.795  0.00  0.00    +0.000 HD
BRANCH  22  25
ATOM     25  C   UNL     1      -1.689  13.214  22.975  0.00  0.00    +0.000 A 
ATOM     26  C   UNL     1      -1.277  14.260  23.812  0.00  0.00    +0.000 A 
ATOM     27  C   UNL     1      -2.196  14.924  24.619  0.00  0.00    +0.000 A 
ATOM     28  C   UNL     1      -3.533  14.530  24.615  0.00  0.00    +0.000 A 
ATOM     29  C   UNL     1      -3.962  13.466  23.804  0.00  0.00    +0.000 A 
ATOM     30  C   UNL     1      -3.031  12.818  22.967  0.00  0.00    +0.000 A 
BRANCH  29  31
ATOM     31  C   UNL     1      -5.394  12.989  23.858  0.00  0.00    +0.000 C 
ATOM     32  F   UNL     1      -5.838  12.457  22.686  0.00  0.00    +0.000 F 
ATOM     33  F   UNL     1      -5.583  12.027  24.802  0.00  0.00    +0.000 F 
ATOM     34  F   UNL     1      -6.260  13.993  24.166  0.00  0.00    +0.000 F 
ENDBRANCH  29  31
ENDBRANCH  22  25
ENDBRANCH   4  21
TORSDOF 5
ENDMDL
MODEL 4
REMARK VINA RESULT:      -9.4      1.074      1.372
REMARK  Name = 
REMARK  5 active torsions:
REMARK  status: ('A' for Active; 'I' for Inactive)
REMARK    1  A    between atoms: C_2  and  C_4
REMARK    2  A    between atoms: N_11  and  C_12
REMARK    3  A    between atoms: C_15  and  N_16
REMARK    4  A    between atoms: C_17  and  C_19
REMARK    5  A    between atoms: C_23  and  C_24
REMARK                            x       y       z     vdW  Elec       q    Type
REMARK                         _______ _______ _______ _____ _____    ______ ____
ROOT
ATOM      1  C   UNL     1       2.178   7.019  19.155  0.00  0.00    +0.000 A 
ATOM      2  C   UNL     1       1.998   8.243  18.514  0.00  0.00    +0.000 A 
ATOM      3  C   UNL     1       1.438   9.326  19.192  0.00  0.00    +0.000 A 
ATOM      4  C   UNL     1       1.070   9.225  20.532  0.00  0.00    +0.000 A 
ATOM      5  C   UNL     1       1.328   8.026  21.205  0.00  0.00    +0.000 A 
ATOM      6  C   UNL     1       1.875   6.926  20.522  0.00  0.00    +0.000 A 
ENDROOT
BRANCH   1  14
ATOM      7  C   UNL     1       5.627   5.062  15.755  0.00  0.00    +0.000 A 
ATOM      8  C   UNL     1       5.578   6.399  16.116  0.00  0.00    +0.000 A 
ATOM      9  C   UNL     1       4.596   6.819  17.006  0.00  0.00    +0.000 A 
ATOM     10  C   UNL     1       3.735   5.840  17.532  0.00  0.00    +0.000 A 
ATOM     11  C   UNL     1       3.847   4.520  17.084  0.00  0.00    +0.000 A 
ATOM     12  C   UNL     1       2.827   3.763  17.692  0.00  0.00    +0.000 A 
ATOM     13  C   UNL     1       2.108   4.616  18.497  0.00  0.00    +0.000 A 
ATOM     14  N   UNL     1       2.661   5.885  18.430  0.00  0.00    +0.000 N 
ATOM     15  N   UNL     1       4.780   4.094  16.196  0.00  0.00    +0.000 NA
BRANCH   7  17
ATOM     16  N   UNL     1       6.354   3.532  14.016  0.00  0.00    +0.000 N 
ATOM     17  C   UNL     1       6.674   4.626  14.776  0.00  0.00    +0.000 C 
ATOM     18  O   UNL     1       7.745   5.205  14.645  0.00  0.00    +0.000 OA
ATOM     19  H   UNL     1       7.011   3.201  13.325  0.00  0.00    +0.000 HD
ATOM     20  H   UNL     1       5.451   3.087  14.131  0.00  0.00    +0.000 HD
ENDBRANCH   7  17
ENDBRANCH   1  14
BRANCH   4  21
ATOM     21  N   UNL     1       0.459  10.290  21.238  0.00  0.00    +0.000 N 
ATOM     22  C   UNL     1      -0.614  11.031  20.770  0.00  0.00    +0.000 C 
ATOM     23  O   UNL     1      -1.239  10.834  19.736  0.00  0.00    +0.000 OA
ATOM     24  H   UNL     1       0.736  10.414  22.203  0.00  0.00    +0.000 HD
BRANCH  22  25
ATOM     25  C   UNL     1      -1.091  12.138  21.641  0.00  0.00    +0.000 A 
ATOM     26  C   UNL     1      -0.214  13.208  21.865  0.00  0.00    +0.000 A 
ATOM     27  C   UNL     1      -0.563  14.239  22.732  0.00  0.00    +0.000 A 
ATOM     28  C   UNL     1      -1.784  14.195  23.404  0.00  0.00    +0.000 A 
ATOM     29  C   UNL     1      -2.665  13.118  23.215  0.00  0.00    +0.000 A 
ATOM     30  C   UNL     1      -2.317  12.092  22.313  0.00  0.00    +0.000 A 
BRANCH  29  31
ATOM     31  C   UNL     1      -3.952  13.031  24.002  0.00  0.00    +0.000 C 
ATOM     32  F   UNL     1      -5.071  13.109  23.231  0.00  0.00    +0.000 F 
ATOM     33  F   UNL     1      -4.054  11.866  24.697  0.00  0.00    +0.000 F 
ATOM     34  F   UNL     1      -4.061  14.028  24.921  0.00  0.00    +0.000 F 
ENDBRANCH  29  31
ENDBRANCH  22  25
ENDBRANCH   4  21
TORSDOF 5
ENDMDL
MODEL 5
REMARK VINA RESULT:      -9.4      1.019      1.410
REMARK  Name = 
REMARK  5 active torsions:
REMARK  status: ('A' for Active; 'I' for Inactive)
REMARK    1  A    between atoms: C_2  and  C_4
REMARK    2  A    between atoms: N_11  and  C_12
REMARK    3  A    between atoms: C_15  and  N_16
REMARK    4  A    between atoms: C_17  and  C_19
REMARK    5  A    between atoms: C_23  and  C_24
REMARK                            x       y       z     vdW  Elec       q    Type
REMARK                         _______ _______ _______ _____ _____    ______ ____
ROOT
ATOM      1  C   UNL     1       2.126   7.210  19.178  0.00  0.00    +0.000 A 
ATOM      2  C   UNL     1       1.863   8.338  18.404  0.00  0.00    +0.000 A 
ATOM      3  C   UNL     1       1.208   9.441  18.952  0.00  0.00    +0.000 A 
ATOM      4  C   UNL     1       0.825   9.459  20.292  0.00  0.00    +0.000 A 
ATOM      5  C   UNL     1       1.164   8.365  21.096  0.00  0.00    +0.000 A 
ATOM      6  C   UNL     1       1.806   7.243  20.543  0.00  0.00    +0.000 A 
ENDROOT
BRANCH   1  14
ATOM      7  C   UNL     1       5.617   5.187  15.861  0.00  0.00    +0.000 A 
ATOM      8  C   UNL     1       5.421   6.548  16.034  0.00  0.00    +0.000 A 
ATOM      9  C   UNL     1       4.441   6.978  16.921  0.00  0.00    +0.000 A 
ATOM     10  C   UNL     1       3.734   5.994  17.634  0.00  0.00    +0.000 A 
ATOM     11  C   UNL     1       3.986   4.644  17.368  0.00  0.00    +0.000 A 
ATOM     12  C   UNL     1       3.099   3.872  18.142  0.00  0.00    +0.000 A 
ATOM     13  C   UNL     1       2.320   4.745  18.867  0.00  0.00    +0.000 A 
ATOM     14  N   UNL     1       2.708   6.045  18.587  0.00  0.00    +0.000 N 
ATOM     15  N   UNL     1       4.919   4.203  16.488  0.00  0.00    +0.000 NA
BRANCH   7  17
ATOM     16  N   UNL     1       6.352   3.610  14.167  0.00  0.00    +0.000 N 
ATOM     17  C   UNL     1       6.660   4.735  14.884  0.00  0.00    +0.000 C 
ATOM     18  O   UNL     1       7.719   5.330  14.719  0.00  0.00    +0.000 OA
ATOM     19  H   UNL     1       7.006   3.266  13.480  0.00  0.00    +0.000 HD
ATOM     20  H   UNL     1       5.459   3.153  14.309  0.00  0.00    +0.000 HD
ENDBRANCH   7  17
ENDBRANCH   1  14
BRANCH   4  21
ATOM     21  N   UNL     1       0.120  10.543  20.870  0.00  0.00    +0.000 N 
ATOM     22  C   UNL     1       0.688  11.760  21.211  0.00  0.00    +0.000 C 
ATOM     23  O   UNL     1       1.842  12.110  20.996  0.00  0.00    +0.000 OA
ATOM     24  H   UNL     1      -0.888  10.465  20.897  0.00  0.00    +0.000 HD
BRANCH  22  25
ATOM     25  C   UNL     1      -0.210  12.760  21.846  0.00  0.00    +0.000 A 
ATOM     26  C   UNL     1       0.253  14.079  21.938  0.00  0.00    +0.000 A 
ATOM     27  C   UNL     1      -0.501  15.050  22.590  0.00  0.00    +0.000 A 
ATOM     28  C   UNL     1      -1.715  14.703  23.179  0.00  0.00    +0.000 A 
ATOM     29  C   UNL     1      -2.186  13.381  23.122  0.00  0.00    +0.000 A 
ATOM     30  C   UNL     1      -1.430  12.409  22.435  0.00  0.00    +0.000 A 
BRANCH  29  31
ATOM     31  C   UNL     1      -3.462  12.989  23.827  0.00  0.00    +0.000 C 
ATOM     32  F   UNL     1      -3.513  11.674  24.176  0.00  0.00    +0.000 F 
ATOM     33  F   UNL     1      -3.654  13.690  24.977  0.00  0.00    +0.000 F 
ATOM     34  F   UNL     1      -4.564  13.215  23.061  0.00  0.00    +0.000 F 
ENDBRANCH  29  31
ENDBRANCH  22  25
ENDBRANCH   4  21
TORSDOF 5
ENDMDL
MODEL 6
REMARK VINA RESULT:      -9.4      0.708      1.294
REMARK  Name = 
REMARK  5 active torsions:
REMARK  status: ('A' for Active; 'I' for Inactive)
REMARK    1  A    between atoms: C_2  and  C_4
REMARK    2  A    between atoms: N_11  and  C_12
REMARK    3  A    between atoms: C_15  and  N_16
REMARK    4  A    between atoms: C_17  and  C_19
REMARK    5  A    between atoms: C_23  and  C_24
REMARK                            x       y       z     vdW  Elec       q    Type
REMARK                         _______ _______ _______ _____ _____    ______ ____
ROOT
ATOM      1  C   UNL     1       2.104   7.270  19.428  0.00  0.00    +0.000 A 
ATOM      2  C   UNL     1       1.902   8.385  18.616  0.00  0.00    +0.000 A 
ATOM      3  C   UNL     1       1.224   9.504  19.099  0.00  0.00    +0.000 A 
ATOM      4  C   UNL     1       0.757   9.553  20.412  0.00  0.00    +0.000 A 
ATOM      5  C   UNL     1       1.033   8.473  21.257  0.00  0.00    +0.000 A 
ATOM      6  C   UNL     1       1.698   7.335  20.769  0.00  0.00    +0.000 A 
ENDROOT
BRANCH   1  14
ATOM      7  C   UNL     1       5.469   5.138  16.050  0.00  0.00    +0.000 A 
ATOM      8  C   UNL     1       5.206   6.497  16.118  0.00  0.00    +0.000 A 
ATOM      9  C   UNL     1       4.266   6.955  17.034  0.00  0.00    +0.000 A 
ATOM     10  C   UNL     1       3.669   6.004  17.881  0.00  0.00    +0.000 A 
ATOM     11  C   UNL     1       3.981   4.651  17.716  0.00  0.00    +0.000 A 
ATOM     12  C   UNL     1       3.196   3.907  18.618  0.00  0.00    +0.000 A 
ATOM     13  C   UNL     1       2.420   4.801  19.319  0.00  0.00    +0.000 A 
ATOM     14  N   UNL     1       2.711   6.089  18.900  0.00  0.00    +0.000 N 
ATOM     15  N   UNL     1       4.875   4.181  16.810  0.00  0.00    +0.000 NA
BRANCH   7  17
ATOM     16  N   UNL     1       7.628   5.376  14.965  0.00  0.00    +0.000 N 
ATOM     17  C   UNL     1       6.466   4.654  15.041  0.00  0.00    +0.000 C 
ATOM     18  O   UNL     1       6.274   3.674  14.332  0.00  0.00    +0.000 OA
ATOM     19  H   UNL     1       8.347   5.089  14.318  0.00  0.00    +0.000 HD
ATOM     20  H   UNL     1       7.768   6.168  15.581  0.00  0.00    +0.000 HD
ENDBRANCH   7  17
ENDBRANCH   1  14
BRANCH   4  21
ATOM     21  N   UNL     1       0.027  10.655  20.921  0.00  0.00    +0.000 N 
ATOM     22  C   UNL     1      -0.274  10.848  22.260  0.00  0.00    +0.000 C 
ATOM     23  O   UNL     1       0.104  10.158  23.198  0.00  0.00    +0.000 OA
ATOM     24  H   UNL     1      -0.155  11.415  20.279  0.00  0.00    +0.000 HD
BRANCH  22  25
ATOM     25  C   UNL     1      -1.087  12.048  22.593  0.00  0.00    +0.000 A 
ATOM     26  C   UNL     1      -0.461  13.299  22.505  0.00  0.00    +0.000 A 
ATOM     27  C   UNL     1      -1.137  14.456  22.878  0.00  0.00    +0.000 A 
ATOM     28  C   UNL     1      -2.440  14.369  23.366  0.00  0.00    +0.000 A 
ATOM     29  C   UNL     1      -3.077  13.123  23.488  0.00  0.00    +0.000 A 
ATOM     30  C   UNL     1      -2.396  11.958  23.081  0.00  0.00    +0.000 A 
BRANCH  29  31
ATOM     31  C   UNL     1      -4.458  13.022  24.091  0.00  0.00    +0.000 C 
ATOM     32  F   UNL     1      -4.511  12.249  25.209  0.00  0.00    +0.000 F 
ATOM     33  F   UNL     1      -4.956  14.237  24.449  0.00  0.00    +0.000 F 
ATOM     34  F   UNL     1      -5.360  12.488  23.223  0.00  0.00    +0.000 F 
ENDBRANCH  29  31
ENDBRANCH  22  25
ENDBRANCH   4  21
TORSDOF 5
ENDMDL
MODEL 7
REMARK VINA RESULT:      -9.3      1.106      1.177
REMARK  Name = 
REMARK  5 active torsions:
REMARK  status: ('A' for Active; 'I' for Inactive)
REMARK    1  A    between atoms: C_2  and  C_4
REMARK    2  A    between atoms: N_11  and  C_12
REMARK    3  A    between atoms: C_15  and  N_16
REMARK    4  A    between atoms: C_17  and  C_19
REMARK    5  A    between atoms: C_23  and  C_24
REMARK                            x       y       z     vdW  Elec       q    Type
REMARK                         _______ _______ _______ _____ _____    ______ ____
ROOT
ATOM      1  C   UNL     1       2.332   6.732  19.156  0.00  0.00    +0.000 A 
ATOM      2  C   UNL     1       1.831   6.611  20.450  0.00  0.00    +0.000 A 
ATOM      3  C   UNL     1       1.276   7.712  21.104  0.00  0.00    +0.000 A 
ATOM      4  C   UNL     1       1.181   8.952  20.474  0.00  0.00    +0.000 A 
ATOM      5  C   UNL     1       1.603   9.057  19.145  0.00  0.00    +0.000 A 
ATOM      6  C   UNL     1       2.180   7.957  18.488  0.00  0.00    +0.000 A 
ENDROOT
BRANCH   1  14
ATOM      7  C   UNL     1       5.724   5.046  15.559  0.00  0.00    +0.000 A 
ATOM      8  C   UNL     1       5.394   6.380  15.738  0.00  0.00    +0.000 A 
ATOM      9  C   UNL     1       4.453   6.715  16.705  0.00  0.00    +0.000 A 
ATOM     10  C   UNL     1       3.925   5.672  17.486  0.00  0.00    +0.000 A 
ATOM     11  C   UNL     1       4.302   4.354  17.210  0.00  0.00    +0.000 A 
ATOM     12  C   UNL     1       3.577   3.503  18.066  0.00  0.00    +0.000 A 
ATOM     13  C   UNL     1       2.772   4.298  18.849  0.00  0.00    +0.000 A 
ATOM     14  N   UNL     1       2.987   5.628  18.526  0.00  0.00    +0.000 N 
ATOM     15  N   UNL     1       5.198   4.003  16.254  0.00  0.00    +0.000 NA
BRANCH   7  17
ATOM     16  N   UNL     1       6.423   3.588  13.748  0.00  0.00    +0.000 N 
ATOM     17  C   UNL     1       6.722   4.695  14.498  0.00  0.00    +0.000 C 
ATOM     18  O   UNL     1       7.737   5.350  14.295  0.00  0.00    +0.000 OA
ATOM     19  H   UNL     1       7.047   3.311  13.005  0.00  0.00    +0.000 HD
ATOM     20  H   UNL     1       5.565   3.079  13.924  0.00  0.00    +0.000 HD
ENDBRANCH   7  17
ENDBRANCH   1  14
BRANCH   4  21
ATOM     21  N   UNL     1       0.665  10.099  21.124  0.00  0.00    +0.000 N 
ATOM     22  C   UNL     1      -0.439  10.819  20.693  0.00  0.00    +0.000 C 
ATOM     23  O   UNL     1      -1.172  10.534  19.755  0.00  0.00    +0.000 OA
ATOM     24  H   UNL     1       1.044  10.313  22.037  0.00  0.00    +0.000 HD
BRANCH  22  25
ATOM     25  C   UNL     1      -0.802  12.021  21.489  0.00  0.00    +0.000 A 
ATOM     26  C   UNL     1       0.126  13.070  21.537  0.00  0.00    +0.000 A 
ATOM     27  C   UNL     1      -0.114  14.192  22.324  0.00  0.00    +0.000 A 
ATOM     28  C   UNL     1      -1.274  14.262  23.093  0.00  0.00    +0.000 A 
ATOM     29  C   UNL     1      -2.205  13.210  23.081  0.00  0.00    +0.000 A 
ATOM     30  C   UNL     1      -1.969  12.090  22.258  0.00  0.00    +0.000 A 
BRANCH  29  31
ATOM     31  C   UNL     1      -3.423  13.252  23.973  0.00  0.00    +0.000 C 
ATOM     32  F   UNL     1      -3.808  12.029  24.430  0.00  0.00    +0.000 F 
ATOM     33  F   UNL     1      -3.228  14.022  25.078  0.00  0.00    +0.000 F 
ATOM     34  F   UNL     1      -4.508  13.773  23.339  0.00  0.00    +0.000 F 
ENDBRANCH  29  31
ENDBRANCH  22  25
ENDBRANCH   4  21
TORSDOF 5
ENDMDL
MODEL 8
REMARK VINA RESULT:      -9.1      2.006      2.948
REMARK  Name = 
REMARK  5 active torsions:
REMARK  status: ('A' for Active; 'I' for Inactive)
REMARK    1  A    between atoms: C_2  and  C_4
REMARK    2  A    between atoms: N_11  and  C_12
REMARK    3  A    between atoms: C_15  and  N_16
REMARK    4  A    between atoms: C_17  and  C_19
REMARK    5  A    between atoms: C_23  and  C_24
REMARK                            x       y       z     vdW  Elec       q    Type
REMARK                         _______ _______ _______ _____ _____    ______ ____
ROOT
ATOM      1  C   UNL     1       2.206   7.969  18.846  0.00  0.00    +0.000 A 
ATOM      2  C   UNL     1       1.688   8.899  17.947  0.00  0.00    +0.000 A 
ATOM      3  C   UNL     1       0.710   9.810  18.350  0.00  0.00    +0.000 A 
ATOM      4  C   UNL     1       0.247   9.835  19.664  0.00  0.00    +0.000 A 
ATOM      5  C   UNL     1       0.826   8.962  20.591  0.00  0.00    +0.000 A 
ATOM      6  C   UNL     1       1.797   8.030  20.186  0.00  0.00    +0.000 A 
ENDROOT
BRANCH   1  14
ATOM      7  C   UNL     1       4.061   3.109  19.312  0.00  0.00    +0.000 A 
ATOM      8  C   UNL     1       3.061   3.629  20.117  0.00  0.00    +0.000 A 
ATOM      9  C   UNL     1       2.665   4.948  19.928  0.00  0.00    +0.000 A 
ATOM     10  C   UNL     1       3.276   5.666  18.884  0.00  0.00    +0.000 A 
ATOM     11  C   UNL     1       4.296   5.060  18.144  0.00  0.00    +0.000 A 
ATOM     12  C   UNL     1       4.794   6.007  17.228  0.00  0.00    +0.000 A 
ATOM     13  C   UNL     1       4.083   7.170  17.413  0.00  0.00    +0.000 A 
ATOM     14  N   UNL     1       3.135   6.975  18.405  0.00  0.00    +0.000 N 
ATOM     15  N   UNL     1       4.715   3.784  18.330  0.00  0.00    +0.000 NA
BRANCH   7  17
ATOM     16  N   UNL     1       4.078   0.786  18.605  0.00  0.00    +0.000 N 
ATOM     17  C   UNL     1       4.497   1.693  19.541  0.00  0.00    +0.000 C 
ATOM     18  O   UNL     1       5.191   1.357  20.493  0.00  0.00    +0.000 OA
ATOM     19  H   UNL     1       4.354  -0.181  18.695  0.00  0.00    +0.000 HD
ATOM     20  H   UNL     1       3.524   1.097  17.817  0.00  0.00    +0.000 HD
ENDBRANCH   7  17
ENDBRANCH   1  14
BRANCH   4  21
ATOM     21  N   UNL     1      -0.775  10.715  20.096  0.00  0.00    +0.000 N 
ATOM     22  C   UNL     1      -0.663  11.587  21.167  0.00  0.00    +0.000 C 
ATOM     23  O   UNL     1       0.340  11.788  21.840  0.00  0.00    +0.000 OA
ATOM     24  H   UNL     1      -1.579  10.810  19.489  0.00  0.00    +0.000 HD
BRANCH  22  25
ATOM     25  C   UNL     1      -1.863  12.403  21.490  0.00  0.00    +0.000 A 
ATOM     26  C   UNL     1      -2.256  13.374  20.559  0.00  0.00    +0.000 A 
ATOM     27  C   UNL     1      -3.322  14.226  20.831  0.00  0.00    +0.000 A 
ATOM     28  C   UNL     1      -3.988  14.131  22.052  0.00  0.00    +0.000 A 
ATOM     29  C   UNL     1      -3.594  13.184  23.011  0.00  0.00    +0.000 A 
ATOM     30  C   UNL     1      -2.532  12.305  22.715  0.00  0.00    +0.000 A 
BRANCH  29  31
ATOM     31  C   UNL     1      -4.265  13.134  24.363  0.00  0.00    +0.000 C 
ATOM     32  F   UNL     1      -5.528  13.642  24.365  0.00  0.00    +0.000 F 
ATOM     33  F   UNL     1      -4.370  11.864  24.841  0.00  0.00    +0.000 F 
ATOM     34  F   UNL     1      -3.578  13.835  25.305  0.00  0.00    +0.000 F 
ENDBRANCH  29  31
ENDBRANCH  22  25
ENDBRANCH   4  21
TORSDOF 5
ENDMDL
MODEL 9
REMARK VINA RESULT:      -9.1      1.425      1.944
REMARK  Name = 
REMARK  5 active torsions:
REMARK  status: ('A' for Active; 'I' for Inactive)
REMARK    1  A    between atoms: C_2  and  C_4
REMARK    2  A    between atoms: N_11  and  C_12
REMARK    3  A    between atoms: C_15  and  N_16
REMARK    4  A    between atoms: C_17  and  C_19
REMARK    5  A    between atoms: C_23  and  C_24
REMARK                            x       y       z     vdW  Elec       q    Type
REMARK                         _______ _______ _______ _____ _____    ______ ____
ROOT
ATOM      1  C   UNL     1       2.480   7.170  19.324  0.00  0.00    +0.000 A 
ATOM      2  C   UNL     1       2.177   8.199  18.435  0.00  0.00    +0.000 A 
ATOM      3  C   UNL     1       1.310   9.228  18.806  0.00  0.00    +0.000 A 
ATOM      4  C   UNL     1       0.748   9.272  20.080  0.00  0.00    +0.000 A 
ATOM      5  C   UNL     1       1.116   8.289  21.005  0.00  0.00    +0.000 A 
ATOM      6  C   UNL     1       1.973   7.240  20.631  0.00  0.00    +0.000 A 
ENDROOT
BRANCH   1  14
ATOM      7  C   UNL     1       5.812   5.178  15.830  0.00  0.00    +0.000 A 
ATOM      8  C   UNL     1       5.231   6.431  15.710  0.00  0.00    +0.000 A 
ATOM      9  C   UNL     1       4.331   6.849  16.683  0.00  0.00    +0.000 A 
ATOM     10  C   UNL     1       4.101   5.986  17.769  0.00  0.00    +0.000 A 
ATOM     11  C   UNL     1       4.715   4.730  17.785  0.00  0.00    +0.000 A 
ATOM     12  C   UNL     1       4.261   4.035  18.922  0.00  0.00    +0.000 A 
ATOM     13  C   UNL     1       3.383   4.861  19.584  0.00  0.00    +0.000 A 
ATOM     14  N   UNL     1       3.289   6.067  18.908  0.00  0.00    +0.000 N 
ATOM     15  N   UNL     1       5.576   4.291  16.833  0.00  0.00    +0.000 NA
BRANCH   7  17
ATOM     16  N   UNL     1       6.374   3.622  14.052  0.00  0.00    +0.000 N 
ATOM     17  C   UNL     1       6.762   4.727  14.762  0.00  0.00    +0.000 C 
ATOM     18  O   UNL     1       7.815   5.306  14.521  0.00  0.00    +0.000 OA
ATOM     19  H   UNL     1       6.962   3.281  13.307  0.00  0.00    +0.000 HD
ATOM     20  H   UNL     1       5.487   3.179  14.258  0.00  0.00    +0.000 HD
ENDBRANCH   7  17
ENDBRANCH   1  14
BRANCH   4  21
ATOM     21  N   UNL     1      -0.169  10.276  20.475  0.00  0.00    +0.000 N 
ATOM     22  C   UNL     1       0.174  11.434  21.154  0.00  0.00    +0.000 C 
ATOM     23  O   UNL     1       1.307  11.801  21.440  0.00  0.00    +0.000 OA
ATOM     24  H   UNL     1      -1.108  10.204  20.106  0.00  0.00    +0.000 HD
BRANCH  22  25
ATOM     25  C   UNL     1      -0.939  12.350  21.517  0.00  0.00    +0.000 A 
ATOM     26  C   UNL     1      -0.759  13.177  22.634  0.00  0.00    +0.000 A 
ATOM     27  C   UNL     1      -1.788  14.002  23.077  0.00  0.00    +0.000 A 
ATOM     28  C   UNL     1      -3.018  13.986  22.422  0.00  0.00    +0.000 A 
ATOM     29  C   UNL     1      -3.230  13.144  21.317  0.00  0.00    +0.000 A 
ATOM     30  C   UNL     1      -2.173  12.334  20.856  0.00  0.00    +0.000 A 
BRANCH  29  31
ATOM     31  C   UNL     1      -4.586  13.069  20.657  0.00  0.00    +0.000 C 
ATOM     32  F   UNL     1      -5.542  12.490  21.434  0.00  0.00    +0.000 F 
ATOM     33  F   UNL     1      -5.067  14.298  20.324  0.00  0.00    +0.000 F 
ATOM     34  F   UNL     1      -4.556  12.351  19.501  0.00  0.00    +0.000 F 
ENDBRANCH  29  31
ENDBRANCH  22  25
ENDBRANCH   4  21
TORSDOF 5
ENDMDL
