MODEL 1
REMARK VINA RESULT:      -8.2      0.000      0.000
REMARK  Name = 
REMARK  5 active torsions:
REMARK  status: ('A' for Active; 'I' for Inactive)
REMARK    1  A    between atoms: C_1  and  O_2
REMARK    2  A    between atoms: O_2  and  C_3
REMARK    3  A    between atoms: N_16  and  C_17
REMARK    4  A    between atoms: C_17  and  C_18
REMARK    5  A    between atoms: C_18  and  C_19
REMARK                            x       y       z     vdW  Elec       q    Type
REMARK                         _______ _______ _______ _____ _____    ______ ____
ROOT
ATOM      1  C   UNL     1       0.859   9.521  20.064  0.00  0.00    +0.000 A 
ATOM      2  C   UNL     1       0.826   8.638  21.145  0.00  0.00    +0.000 A 
ATOM      3  C   UNL     1       1.432   7.389  21.047  0.00  0.00    +0.000 A 
ATOM      4  C   UNL     1       2.072   7.008  19.862  0.00  0.00    +0.000 A 
ATOM      5  C   UNL     1       2.116   7.879  18.765  0.00  0.00    +0.000 A 
ATOM      6  C   UNL     1       1.499   9.136  18.881  0.00  0.00    +0.000 A 
ATOM      7  C   UNL     1       2.748   7.482  17.456  0.00  0.00    +0.000 C 
ATOM      8  C   UNL     1       3.654   6.248  17.574  0.00  0.00    +0.000 C 
ATOM      9  C   UNL     1       3.000   5.091  18.382  0.00  0.00    +0.000 C 
ATOM     10  C   UNL     1       1.663   4.702  17.679  0.00  0.00    +0.000 C 
ATOM     11  C   UNL     1       0.948   3.549  18.361  0.00  0.00    +0.000 C 
ATOM     12  C   UNL     1       1.864   2.350  18.410  0.00  0.00    +0.000 C 
ATOM     13  C   UNL     1       3.209   2.695  19.038  0.00  0.00    +0.000 C 
ATOM     14  N   UNL     1       3.891   3.865  18.432  0.00  0.00    +0.000 NA
ATOM     15  C   UNL     1       2.678   5.654  19.788  0.00  0.00    +0.000 C 
ATOM     16  O   UNL     1       2.836   5.044  20.847  0.00  0.00    +0.000 OA
ENDROOT
BRANCH   1  18
ATOM     17  C   UNL     1       1.064  11.860  20.395  0.00  0.00    +0.000 C 
ATOM     18  O   UNL     1       0.231  10.715  20.285  0.00  0.00    +0.000 OA
ENDBRANCH   1  18
BRANCH  14  19
ATOM     19  C   UNL     1       5.205   4.077  19.104  0.00  0.00    +0.000 C 
BRANCH  19  20
ATOM     20  C   UNL     1       6.388   4.293  18.123  0.00  0.00    +0.000 C 
BRANCH  20  21
ATOM     21  C   UNL     1       7.065   5.650  18.102  0.00  0.00    +0.000 A 
ATOM     22  C   UNL     1       7.934   6.108  19.098  0.00  0.00    +0.000 A 
ATOM     23  C   UNL     1       8.465   7.401  19.038  0.00  0.00    +0.000 A 
ATOM     24  C   UNL     1       8.147   8.245  17.975  0.00  0.00    +0.000 A 
ATOM     25  C   UNL     1       7.320   7.790  16.955  0.00  0.00    +0.000 A 
ATOM     26  C   UNL     1       6.789   6.501  17.016  0.00  0.00    +0.000 A 
ENDBRANCH  20  21
ENDBRANCH  19  20
ENDBRANCH  14  19
TORSDOF 4
ENDMDL
MODEL 2
REMARK VINA RESULT:      -8.1      1.492      2.231
REMARK  Name = 
REMARK  5 active torsions:
REMARK  status: ('A' for Active; 'I' for Inactive)
REMARK    1  A    between atoms: C_1  and  O_2
REMARK    2  A    between atoms: O_2  and  C_3
REMARK    3  A    between atoms: N_16  and  C_17
REMARK    4  A    between atoms: C_17  and  C_18
REMARK    5  A    between atoms: C_18  and  C_19
REMARK                            x       y       z     vdW  Elec       q    Type
REMARK                         _______ _______ _______ _____ _____    ______ ____
ROOT
ATOM      1  C   UNL     1       0.739   9.685  19.895  0.00  0.00    +0.000 A 
ATOM      2  C   UNL     1       0.743   8.798  20.972  0.00  0.00    +0.000 A 
ATOM      3  C   UNL     1       1.443   7.597  20.887  0.00  0.00    +0.000 A 
ATOM      4  C   UNL     1       2.138   7.269  19.718  0.00  0.00    +0.000 A 
ATOM      5  C   UNL     1       2.146   8.145  18.625  0.00  0.00    +0.000 A 
ATOM      6  C   UNL     1       1.436   9.354  18.728  0.00  0.00    +0.000 A 
ATOM      7  C   UNL     1       2.839   7.802  17.332  0.00  0.00    +0.000 C 
ATOM      8  C   UNL     1       3.830   6.638  17.471  0.00  0.00    +0.000 C 
ATOM      9  C   UNL     1       3.242   5.432  18.258  0.00  0.00    +0.000 C 
ATOM     10  C   UNL     1       1.956   4.949  17.520  0.00  0.00    +0.000 C 
ATOM     11  C   UNL     1       1.311   3.743  18.180  0.00  0.00    +0.000 C 
ATOM     12  C   UNL     1       2.311   2.614  18.249  0.00  0.00    +0.000 C 
ATOM     13  C   UNL     1       3.610   3.055  18.913  0.00  0.00    +0.000 C 
ATOM     14  N   UNL     1       4.219   4.274  18.328  0.00  0.00    +0.000 NA
ATOM     15  C   UNL     1       2.844   5.964  19.657  0.00  0.00    +0.000 C 
ATOM     16  O   UNL     1       3.019   5.362  20.718  0.00  0.00    +0.000 OA
ENDROOT
BRANCH   1  18
ATOM     17  C   UNL     1      -1.221  10.932  19.419  0.00  0.00    +0.000 C 
ATOM     18  O   UNL     1       0.019  10.829  20.103  0.00  0.00    +0.000 OA
ENDBRANCH   1  18
BRANCH  14  19
ATOM     19  C   UNL     1       5.497   4.579  19.035  0.00  0.00    +0.000 C 
BRANCH  19  20
ATOM     20  C   UNL     1       6.746   4.570  18.113  0.00  0.00    +0.000 C 
BRANCH  20  21
ATOM     21  C   UNL     1       6.531   4.495  16.614  0.00  0.00    +0.000 A 
ATOM     22  C   UNL     1       5.630   3.623  15.994  0.00  0.00    +0.000 A 
ATOM     23  C   UNL     1       5.539   3.568  14.599  0.00  0.00    +0.000 A 
ATOM     24  C   UNL     1       6.336   4.393  13.808  0.00  0.00    +0.000 A 
ATOM     25  C   UNL     1       7.205   5.297  14.409  0.00  0.00    +0.000 A 
ATOM     26  C   UNL     1       7.296   5.350  15.800  0.00  0.00    +0.000 A 
ENDBRANCH  20  21
ENDBRANCH  19  20
ENDBRANCH  14  19
TORSDOF 4
ENDMDL
MODEL 3
REMARK VINA RESULT:      -8.1      0.459      1.049
REMARK  Name = 
REMARK  5 active torsions:
REMARK  status: ('A' for Active; 'I' for Inactive)
REMARK    1  A    between atoms: C_1  and  O_2
REMARK    2  A    between atoms: O_2  and  C_3
REMARK    3  A    between atoms: N_16  and  C_17
REMARK    4  A    between atoms: C_17  and  C_18
REMARK    5  A    between atoms: C_18  and  C_19
REMARK                            x       y       z     vdW  Elec       q    Type
REMARK                         _______ _______ _______ _____ _____    ______ ____
ROOT
ATOM      1  C   UNL     1       0.826   9.452  20.147  0.00  0.00    +0.000 A 
ATOM      2  C   UNL     1       0.799   8.544  21.206  0.00  0.00    +0.000 A 
ATOM      3  C   UNL     1       1.418   7.304  21.079  0.00  0.00    +0.000 A 
ATOM      4  C   UNL     1       2.063   6.957  19.887  0.00  0.00    +0.000 A 
ATOM      5  C   UNL     1       2.101   7.854  18.811  0.00  0.00    +0.000 A 
ATOM      6  C   UNL     1       1.472   9.103  18.956  0.00  0.00    +0.000 A 
ATOM      7  C   UNL     1       2.739   7.496  17.494  0.00  0.00    +0.000 C 
ATOM      8  C   UNL     1       3.657   6.268  17.585  0.00  0.00    +0.000 C 
ATOM      9  C   UNL     1       3.013   5.085  18.363  0.00  0.00    +0.000 C 
ATOM     10  C   UNL     1       1.681   4.701  17.649  0.00  0.00    +0.000 C 
ATOM     11  C   UNL     1       0.976   3.524  18.301  0.00  0.00    +0.000 C 
ATOM     12  C   UNL     1       1.904   2.333  18.323  0.00  0.00    +0.000 C 
ATOM     13  C   UNL     1       3.244   2.677  18.962  0.00  0.00    +0.000 C 
ATOM     14  N   UNL     1       3.915   3.867  18.386  0.00  0.00    +0.000 NA
ATOM     15  C   UNL     1       2.683   5.612  19.782  0.00  0.00    +0.000 C 
ATOM     16  O   UNL     1       2.845   4.978  20.826  0.00  0.00    +0.000 OA
ENDROOT
BRANCH   1  18
ATOM     17  C   UNL     1      -0.846  11.001  19.490  0.00  0.00    +0.000 C 
ATOM     18  O   UNL     1       0.185  10.635  20.395  0.00  0.00    +0.000 OA
ENDBRANCH   1  18
BRANCH  14  19
ATOM     19  C   UNL     1       5.226   4.076  19.066  0.00  0.00    +0.000 C 
BRANCH  19  20
ATOM     20  C   UNL     1       6.404   4.355  18.094  0.00  0.00    +0.000 C 
BRANCH  20  21
ATOM     21  C   UNL     1       6.998   5.750  18.069  0.00  0.00    +0.000 A 
ATOM     22  C   UNL     1       6.734   6.697  17.073  0.00  0.00    +0.000 A 
ATOM     23  C   UNL     1       7.375   7.940  17.086  0.00  0.00    +0.000 A 
ATOM     24  C   UNL     1       8.275   8.259  18.102  0.00  0.00    +0.000 A 
ATOM     25  C   UNL     1       8.515   7.347  19.124  0.00  0.00    +0.000 A 
ATOM     26  C   UNL     1       7.876   6.106  19.109  0.00  0.00    +0.000 A 
ENDBRANCH  20  21
ENDBRANCH  19  20
ENDBRANCH  14  19
TORSDOF 4
ENDMDL
MODEL 4
REMARK VINA RESULT:      -8.0      2.518      6.161
REMARK  Name = 
REMARK  5 active torsions:
REMARK  status: ('A' for Active; 'I' for Inactive)
REMARK    1  A    between atoms: C_1  and  O_2
REMARK    2  A    between atoms: O_2  and  C_3
REMARK    3  A    between atoms: N_16  and  C_17
REMARK    4  A    between atoms: C_17  and  C_18
REMARK    5  A    between atoms: C_18  and  C_19
REMARK                            x       y       z     vdW  Elec       q    Type
REMARK                         _______ _______ _______ _____ _____    ______ ____
ROOT
ATOM      1  C   UNL     1       7.013   5.109  15.178  0.00  0.00    +0.000 A 
ATOM      2  C   UNL     1       5.853   4.600  14.591  0.00  0.00    +0.000 A 
ATOM      3  C   UNL     1       4.732   4.336  15.372  0.00  0.00    +0.000 A 
ATOM      4  C   UNL     1       4.763   4.571  16.750  0.00  0.00    +0.000 A 
ATOM      5  C   UNL     1       5.917   5.081  17.360  0.00  0.00    +0.000 A 
ATOM      6  C   UNL     1       7.040   5.343  16.557  0.00  0.00    +0.000 A 
ATOM      7  C   UNL     1       6.006   5.296  18.849  0.00  0.00    +0.000 C 
ATOM      8  C   UNL     1       4.635   5.289  19.540  0.00  0.00    +0.000 C 
ATOM      9  C   UNL     1       3.731   4.107  19.085  0.00  0.00    +0.000 C 
ATOM     10  C   UNL     1       4.484   2.775  19.386  0.00  0.00    +0.000 C 
ATOM     11  C   UNL     1       3.679   1.542  19.016  0.00  0.00    +0.000 C 
ATOM     12  C   UNL     1       2.363   1.562  19.757  0.00  0.00    +0.000 C 
ATOM     13  C   UNL     1       1.615   2.871  19.539  0.00  0.00    +0.000 C 
ATOM     14  N   UNL     1       2.409   4.091  19.826  0.00  0.00    +0.000 NA
ATOM     15  C   UNL     1       3.556   4.245  17.552  0.00  0.00    +0.000 C 
ATOM     16  O   UNL     1       2.503   4.051  16.941  0.00  0.00    +0.000 OA
ENDROOT
BRANCH   1  18
ATOM     17  C   UNL     1       7.752   5.164  12.925  0.00  0.00    +0.000 C 
ATOM     18  O   UNL     1       8.043   5.329  14.305  0.00  0.00    +0.000 OA
ENDBRANCH   1  18
BRANCH  14  19
ATOM     19  C   UNL     1       1.560   5.298  19.613  0.00  0.00    +0.000 C 
BRANCH  19  20
ATOM     20  C   UNL     1       2.030   6.548  20.404  0.00  0.00    +0.000 C 
BRANCH  20  21
ATOM     21  C   UNL     1       1.760   7.917  19.809  0.00  0.00    +0.000 A 
ATOM     22  C   UNL     1       1.064   8.935  20.469  0.00  0.00    +0.000 A 
ATOM     23  C   UNL     1       0.798  10.148  19.824  0.00  0.00    +0.000 A 
ATOM     24  C   UNL     1       1.238  10.364  18.519  0.00  0.00    +0.000 A 
ATOM     25  C   UNL     1       1.970   9.379  17.865  0.00  0.00    +0.000 A 
ATOM     26  C   UNL     1       2.233   8.169  18.508  0.00  0.00    +0.000 A 
ENDBRANCH  20  21
ENDBRANCH  19  20
ENDBRANCH  14  19
TORSDOF 4
ENDMDL
MODEL 5
REMARK VINA RESULT:      -7.9      1.366      2.084
REMARK  Name = 
REMARK  5 active torsions:
REMARK  status: ('A' for Active; 'I' for Inactive)
REMARK    1  A    between atoms: C_1  and  O_2
REMARK    2  A    between atoms: O_2  and  C_3
REMARK    3  A    between atoms: N_16  and  C_17
REMARK    4  A    between atoms: C_17  and  C_18
REMARK    5  A    between atoms: C_18  and  C_19
REMARK                            x       y       z     vdW  Elec       q    Type
REMARK                         _______ _______ _______ _____ _____    ______ ____
ROOT
ATOM      1  C   UNL     1       0.393   9.719  20.280  0.00  0.00    +0.000 A 
ATOM      2  C   UNL     1       0.415   8.768  21.300  0.00  0.00    +0.000 A 
ATOM      3  C   UNL     1       1.160   7.600  21.153  0.00  0.00    +0.000 A 
ATOM      4  C   UNL     1       1.883   7.371  19.978  0.00  0.00    +0.000 A 
ATOM      5  C   UNL     1       1.873   8.312  18.941  0.00  0.00    +0.000 A 
ATOM      6  C   UNL     1       1.117   9.486  19.106  0.00  0.00    +0.000 A 
ATOM      7  C   UNL     1       2.596   8.075  17.640  0.00  0.00    +0.000 C 
ATOM      8  C   UNL     1       3.628   6.941  17.723  0.00  0.00    +0.000 C 
ATOM      9  C   UNL     1       3.074   5.668  18.426  0.00  0.00    +0.000 C 
ATOM     10  C   UNL     1       1.817   5.185  17.639  0.00  0.00    +0.000 C 
ATOM     11  C   UNL     1       1.208   3.919  18.214  0.00  0.00    +0.000 C 
ATOM     12  C   UNL     1       2.249   2.825  18.231  0.00  0.00    +0.000 C 
ATOM     13  C   UNL     1       3.521   3.270  18.940  0.00  0.00    +0.000 C 
ATOM     14  N   UNL     1       4.093   4.545  18.441  0.00  0.00    +0.000 NA
ATOM     15  C   UNL     1       2.638   6.098  19.848  0.00  0.00    +0.000 C 
ATOM     16  O   UNL     1       2.821   5.439  20.873  0.00  0.00    +0.000 OA
ENDROOT
BRANCH   1  18
ATOM     17  C   UNL     1      -0.403  11.261  21.895  0.00  0.00    +0.000 C 
ATOM     18  O   UNL     1      -0.372  10.821  20.545  0.00  0.00    +0.000 OA
ENDBRANCH   1  18
BRANCH  14  19
ATOM     19  C   UNL     1       5.348   4.852  19.185  0.00  0.00    +0.000 C 
BRANCH  19  20
ATOM     20  C   UNL     1       6.645   4.528  18.396  0.00  0.00    +0.000 C 
BRANCH  20  21
ATOM     21  C   UNL     1       6.602   4.606  16.882  0.00  0.00    +0.000 A 
ATOM     22  C   UNL     1       7.117   5.671  16.136  0.00  0.00    +0.000 A 
ATOM     23  C   UNL     1       6.977   5.698  14.745  0.00  0.00    +0.000 A 
ATOM     24  C   UNL     1       6.336   4.654  14.080  0.00  0.00    +0.000 A 
ATOM     25  C   UNL     1       5.858   3.566  14.801  0.00  0.00    +0.000 A 
ATOM     26  C   UNL     1       5.996   3.540  16.190  0.00  0.00    +0.000 A 
ENDBRANCH  20  21
ENDBRANCH  19  20
ENDBRANCH  14  19
TORSDOF 4
ENDMDL
MODEL 6
REMARK VINA RESULT:      -7.8      3.471      6.434
REMARK  Name = 
REMARK  5 active torsions:
REMARK  status: ('A' for Active; 'I' for Inactive)
REMARK    1  A    between atoms: C_1  and  O_2
REMARK    2  A    between atoms: O_2  and  C_3
REMARK    3  A    between atoms: N_16  and  C_17
REMARK    4  A    between atoms: C_17  and  C_18
REMARK    5  A    between atoms: C_18  and  C_19
REMARK                            x       y       z     vdW  Elec       q    Type
REMARK                         _______ _______ _______ _____ _____    ______ ____
ROOT
ATOM      1  C   UNL     1       8.592   8.988  18.694  0.00  0.00    +0.000 A 
ATOM      2  C   UNL     1       7.711   9.480  17.730  0.00  0.00    +0.000 A 
ATOM      3  C   UNL     1       6.849   8.614  17.062  0.00  0.00    +0.000 A 
ATOM      4  C   UNL     1       6.869   7.244  17.347  0.00  0.00    +0.000 A 
ATOM      5  C   UNL     1       7.747   6.730  18.310  0.00  0.00    +0.000 A 
ATOM      6  C   UNL     1       8.609   7.618  18.976  0.00  0.00    +0.000 A 
ATOM      7  C   UNL     1       7.833   5.254  18.605  0.00  0.00    +0.000 C 
ATOM      8  C   UNL     1       6.633   4.462  18.067  0.00  0.00    +0.000 C 
ATOM      9  C   UNL     1       6.270   4.833  16.600  0.00  0.00    +0.000 C 
ATOM     10  C   UNL     1       7.523   4.573  15.708  0.00  0.00    +0.000 C 
ATOM     11  C   UNL     1       7.275   4.866  14.238  0.00  0.00    +0.000 C 
ATOM     12  C   UNL     1       6.118   4.029  13.748  0.00  0.00    +0.000 C 
ATOM     13  C   UNL     1       4.884   4.206  14.625  0.00  0.00    +0.000 C 
ATOM     14  N   UNL     1       5.122   3.994  16.074  0.00  0.00    +0.000 NA
ATOM     15  C   UNL     1       5.957   6.350  16.589  0.00  0.00    +0.000 C 
ATOM     16  O   UNL     1       5.041   6.878  15.955  0.00  0.00    +0.000 OA
ENDROOT
BRANCH   1  18
ATOM     17  C   UNL     1       9.550  11.154  18.564  0.00  0.00    +0.000 C 
ATOM     18  O   UNL     1       9.383   9.938  19.279  0.00  0.00    +0.000 OA
ENDBRANCH   1  18
BRANCH  14  19
ATOM     19  C   UNL     1       3.839   4.158  16.817  0.00  0.00    +0.000 C 
BRANCH  19  20
ATOM     20  C   UNL     1       3.397   2.893  17.599  0.00  0.00    +0.000 C 
BRANCH  20  21
ATOM     21  C   UNL     1       2.655   3.081  18.908  0.00  0.00    +0.000 A 
ATOM     22  C   UNL     1       1.461   3.797  19.037  0.00  0.00    +0.000 A 
ATOM     23  C   UNL     1       0.874   3.982  20.293  0.00  0.00    +0.000 A 
ATOM     24  C   UNL     1       1.464   3.439  21.434  0.00  0.00    +0.000 A 
ATOM     25  C   UNL     1       2.627   2.686  21.318  0.00  0.00    +0.000 A 
ATOM     26  C   UNL     1       3.213   2.504  20.065  0.00  0.00    +0.000 A 
ENDBRANCH  20  21
ENDBRANCH  19  20
ENDBRANCH  14  19
TORSDOF 4
ENDMDL
MODEL 7
REMARK VINA RESULT:      -7.7      2.555      6.508
REMARK  Name = 
REMARK  5 active torsions:
REMARK  status: ('A' for Active; 'I' for Inactive)
REMARK    1  A    between atoms: C_1  and  O_2
REMARK    2  A    between atoms: O_2  and  C_3
REMARK    3  A    between atoms: N_16  and  C_17
REMARK    4  A    between atoms: C_17  and  C_18
REMARK    5  A    between atoms: C_18  and  C_19
REMARK                            x       y       z     vdW  Elec       q    Type
REMARK                         _______ _______ _______ _____ _____    ______ ____
ROOT
ATOM      1  C   UNL     1       7.082   5.054  15.023  0.00  0.00    +0.000 A 
ATOM      2  C   UNL     1       5.872   4.599  14.499  0.00  0.00    +0.000 A 
ATOM      3  C   UNL     1       4.767   4.433  15.330  0.00  0.00    +0.000 A 
ATOM      4  C   UNL     1       4.867   4.714  16.697  0.00  0.00    +0.000 A 
ATOM      5  C   UNL     1       6.073   5.171  17.244  0.00  0.00    +0.000 A 
ATOM      6  C   UNL     1       7.178   5.334  16.391  0.00  0.00    +0.000 A 
ATOM      7  C   UNL     1       6.233   5.432  18.719  0.00  0.00    +0.000 C 
ATOM      8  C   UNL     1       4.892   5.536  19.460  0.00  0.00    +0.000 C 
ATOM      9  C   UNL     1       3.900   4.398  19.083  0.00  0.00    +0.000 C 
ATOM     10  C   UNL     1       4.581   3.032  19.406  0.00  0.00    +0.000 C 
ATOM     11  C   UNL     1       3.688   1.840  19.112  0.00  0.00    +0.000 C 
ATOM     12  C   UNL     1       2.406   1.968  19.899  0.00  0.00    +0.000 C 
ATOM     13  C   UNL     1       1.731   3.313  19.660  0.00  0.00    +0.000 C 
ATOM     14  N   UNL     1       2.609   4.490  19.873  0.00  0.00    +0.000 NA
ATOM     15  C   UNL     1       3.674   4.492  17.553  0.00  0.00    +0.000 C 
ATOM     16  O   UNL     1       2.589   4.344  16.989  0.00  0.00    +0.000 OA
ENDROOT
BRANCH   1  18
ATOM     17  C   UNL     1       7.709   5.143  12.738  0.00  0.00    +0.000 C 
ATOM     18  O   UNL     1       8.089   5.178  14.106  0.00  0.00    +0.000 OA
ENDBRANCH   1  18
BRANCH  14  19
ATOM     19  C   UNL     1       1.828   5.740  19.646  0.00  0.00    +0.000 C 
BRANCH  19  20
ATOM     20  C   UNL     1       1.808   6.701  20.864  0.00  0.00    +0.000 C 
BRANCH  20  21
ATOM     21  C   UNL     1       1.343   8.128  20.645  0.00  0.00    +0.000 A 
ATOM     22  C   UNL     1       1.414   8.796  19.418  0.00  0.00    +0.000 A 
ATOM     23  C   UNL     1       1.026  10.136  19.315  0.00  0.00    +0.000 A 
ATOM     24  C   UNL     1       0.547  10.820  20.431  0.00  0.00    +0.000 A 
ATOM     25  C   UNL     1       0.427  10.157  21.648  0.00  0.00    +0.000 A 
ATOM     26  C   UNL     1       0.817   8.821  21.751  0.00  0.00    +0.000 A 
ENDBRANCH  20  21
ENDBRANCH  19  20
ENDBRANCH  14  19
TORSDOF 4
ENDMDL
MODEL 8
REMARK VINA RESULT:      -7.6      3.109      5.114
REMARK  Name = 
REMARK  5 active torsions:
REMARK  status: ('A' for Active; 'I' for Inactive)
REMARK    1  A    between atoms: C_1  and  O_2
REMARK    2  A    between atoms: O_2  and  C_3
REMARK    3  A    between atoms: N_16  and  C_17
REMARK    4  A    between atoms: C_17  and  C_18
REMARK    5  A    between atoms: C_18  and  C_19
REMARK                            x       y       z     vdW  Elec       q    Type
REMARK                         _______ _______ _______ _____ _____    ______ ____
ROOT
ATOM      1  C   UNL     1       2.368   3.125  20.034  0.00  0.00    +0.000 A 
ATOM      2  C   UNL     1       3.616   2.505  20.107  0.00  0.00    +0.000 A 
ATOM      3  C   UNL     1       4.716   3.070  19.467  0.00  0.00    +0.000 A 
ATOM      4  C   UNL     1       4.575   4.257  18.741  0.00  0.00    +0.000 A 
ATOM      5  C   UNL     1       3.331   4.895  18.655  0.00  0.00    +0.000 A 
ATOM      6  C   UNL     1       2.231   4.313  19.307  0.00  0.00    +0.000 A 
ATOM      7  C   UNL     1       3.129   6.146  17.838  0.00  0.00    +0.000 C 
ATOM      8  C   UNL     1       4.447   6.841  17.467  0.00  0.00    +0.000 C 
ATOM      9  C   UNL     1       5.523   5.854  16.930  0.00  0.00    +0.000 C 
ATOM     10  C   UNL     1       4.936   5.127  15.681  0.00  0.00    +0.000 C 
ATOM     11  C   UNL     1       5.917   4.159  15.043  0.00  0.00    +0.000 C 
ATOM     12  C   UNL     1       7.174   4.901  14.656  0.00  0.00    +0.000 C 
ATOM     13  C   UNL     1       7.754   5.676  15.833  0.00  0.00    +0.000 C 
ATOM     14  N   UNL     1       6.791   6.574  16.515  0.00  0.00    +0.000 NA
ATOM     15  C   UNL     1       5.766   4.809  18.047  0.00  0.00    +0.000 C 
ATOM     16  O   UNL     1       6.869   4.360  18.366  0.00  0.00    +0.000 OA
ENDROOT
BRANCH   1  18
ATOM     17  C   UNL     1       1.325   2.662  22.113  0.00  0.00    +0.000 C 
ATOM     18  O   UNL     1       1.370   2.475  20.706  0.00  0.00    +0.000 OA
ENDBRANCH   1  18
BRANCH  14  19
ATOM     19  C   UNL     1       7.485   7.300  17.618  0.00  0.00    +0.000 C 
BRANCH  19  20
ATOM     20  C   UNL     1       7.415   8.846  17.498  0.00  0.00    +0.000 C 
BRANCH  20  21
ATOM     21  C   UNL     1       8.498   9.667  18.170  0.00  0.00    +0.000 A 
ATOM     22  C   UNL     1       8.877   9.521  19.508  0.00  0.00    +0.000 A 
ATOM     23  C   UNL     1       9.840  10.365  20.071  0.00  0.00    +0.000 A 
ATOM     24  C   UNL     1      10.448  11.355  19.299  0.00  0.00    +0.000 A 
ATOM     25  C   UNL     1      10.115  11.485  17.956  0.00  0.00    +0.000 A 
ATOM     26  C   UNL     1       9.153  10.644  17.395  0.00  0.00    +0.000 A 
ENDBRANCH  20  21
ENDBRANCH  19  20
ENDBRANCH  14  19
TORSDOF 4
ENDMDL
MODEL 9
REMARK VINA RESULT:      -7.4      3.182      5.192
REMARK  Name = 
REMARK  5 active torsions:
REMARK  status: ('A' for Active; 'I' for Inactive)
REMARK    1  A    between atoms: C_1  and  O_2
REMARK    2  A    between atoms: O_2  and  C_3
REMARK    3  A    between atoms: N_16  and  C_17
REMARK    4  A    between atoms: C_17  and  C_18
REMARK    5  A    between atoms: C_18  and  C_19
REMARK                            x       y       z     vdW  Elec       q    Type
REMARK                         _______ _______ _______ _____ _____    ______ ____
ROOT
ATOM      1  C   UNL     1       2.350   2.832  20.238  0.00  0.00    +0.000 A 
ATOM      2  C   UNL     1       3.687   2.492  20.448  0.00  0.00    +0.000 A 
ATOM      3  C   UNL     1       4.699   3.225  19.834  0.00  0.00    +0.000 A 
ATOM      4  C   UNL     1       4.382   4.300  18.998  0.00  0.00    +0.000 A 
ATOM      5  C   UNL     1       3.046   4.657  18.773  0.00  0.00    +0.000 A 
ATOM      6  C   UNL     1       2.036   3.908  19.401  0.00  0.00    +0.000 A 
ATOM      7  C   UNL     1       2.664   5.775  17.837  0.00  0.00    +0.000 C 
ATOM      8  C   UNL     1       3.841   6.700  17.493  0.00  0.00    +0.000 C 
ATOM      9  C   UNL     1       5.135   5.922  17.118  0.00  0.00    +0.000 C 
ATOM     10  C   UNL     1       4.812   4.999  15.903  0.00  0.00    +0.000 C 
ATOM     11  C   UNL     1       6.018   4.211  15.420  0.00  0.00    +0.000 C 
ATOM     12  C   UNL     1       7.127   5.168  15.052  0.00  0.00    +0.000 C 
ATOM     13  C   UNL     1       7.439   6.131  16.191  0.00  0.00    +0.000 C 
ATOM     14  N   UNL     1       6.261   6.857  16.726  0.00  0.00    +0.000 NA
ATOM     15  C   UNL     1       5.491   5.035  18.337  0.00  0.00    +0.000 C 
ATOM     16  O   UNL     1       6.631   4.850  18.767  0.00  0.00    +0.000 OA
ENDROOT
BRANCH   1  18
ATOM     17  C   UNL     1       1.136   2.411  22.231  0.00  0.00    +0.000 C 
ATOM     18  O   UNL     1       1.451   2.039  20.897  0.00  0.00    +0.000 OA
ENDBRANCH   1  18
BRANCH  14  19
ATOM     19  C   UNL     1       6.700   7.791  17.803  0.00  0.00    +0.000 C 
BRANCH  19  20
ATOM     20  C   UNL     1       8.182   8.237  17.687  0.00  0.00    +0.000 C 
BRANCH  20  21
ATOM     21  C   UNL     1       8.557   9.617  18.191  0.00  0.00    +0.000 A 
ATOM     22  C   UNL     1       8.234  10.808  17.532  0.00  0.00    +0.000 A 
ATOM     23  C   UNL     1       8.676  12.038  18.030  0.00  0.00    +0.000 A 
ATOM     24  C   UNL     1       9.433  12.095  19.200  0.00  0.00    +0.000 A 
ATOM     25  C   UNL     1       9.725  10.925  19.891  0.00  0.00    +0.000 A 
ATOM     26  C   UNL     1       9.285   9.698  19.394  0.00  0.00    +0.000 A 
ENDBRANCH  20  21
ENDBRANCH  19  20
ENDBRANCH  14  19
TORSDOF 4
ENDMDL
