MODEL 1
REMARK VINA RESULT:      -7.3      0.000      0.000
REMARK  Name = 
REMARK  5 active torsions:
REMARK  status: ('A' for Active; 'I' for Inactive)
REMARK    1  A    between atoms: C_1  and  C_2
REMARK    2  A    between atoms: C_2  and  C_3
REMARK    3  A    between atoms: C_3  and  C_4
REMARK    4  A    between atoms: C_4  and  C_5
REMARK    5  A    between atoms: C_5  and  C_6
REMARK                            x       y       z     vdW  Elec       q    Type
REMARK                         _______ _______ _______ _____ _____    ______ ____
ROOT
ATOM      1  C   UNL     1       0.289  10.098  20.200  0.00  0.00    +0.000 C 
ATOM      2  O   UNL     1      -0.476  10.104  21.169  0.00  0.00    +0.000 OA
ATOM      3  N   UNL     1       1.149   9.039  19.954  0.00  0.00    +0.000 N 
ATOM      4  C   UNL     1       1.076   7.840  20.791  0.00  0.00    +0.000 C 
ATOM      5  C   UNL     1       0.920   6.601  19.901  0.00  0.00    +0.000 C 
ATOM      6  C   UNL     1       2.102   6.493  18.937  0.00  0.00    +0.000 C 
ATOM      7  C   UNL     1       2.953   5.419  18.868  0.00  0.00    +0.000 C 
ATOM      8  C   UNL     1       4.006   5.376  17.820  0.00  0.00    +0.000 A 
ATOM      9  C   UNL     1       5.136   6.204  17.868  0.00  0.00    +0.000 A 
ATOM     10  C   UNL     1       6.138   6.092  16.898  0.00  0.00    +0.000 A 
ATOM     11  C   UNL     1       6.027   5.131  15.894  0.00  0.00    +0.000 A 
ATOM     12 CL   UNL     1       7.267   4.977  14.711  0.00  0.00    +0.000 Cl
ATOM     13  C   UNL     1       4.923   4.284  15.847  0.00  0.00    +0.000 A 
ATOM     14  C   UNL     1       3.902   4.410  16.800  0.00  0.00    +0.000 A 
ATOM     15  C   UNL     1       2.733   3.461  16.789  0.00  0.00    +0.000 C 
ATOM     16  C   UNL     1       2.870   2.431  17.906  0.00  0.00    +0.000 C 
ATOM     17  C   UNL     1       2.729   2.910  19.333  0.00  0.00    +0.000 A 
ATOM     18  C   UNL     1       2.561   1.905  20.305  0.00  0.00    +0.000 A 
ATOM     19  C   UNL     1       2.424   2.231  21.644  0.00  0.00    +0.000 A 
ATOM     20  C   UNL     1       2.494   3.562  21.991  0.00  0.00    +0.000 A 
ATOM     21  N   UNL     1       2.692   4.559  21.101  0.00  0.00    +0.000 NA
ATOM     22  C   UNL     1       2.776   4.243  19.780  0.00  0.00    +0.000 A 
ATOM     23  C   UNL     1       2.165   7.759  18.076  0.00  0.00    +0.000 C 
ATOM     24  C   UNL     1       2.226   9.019  18.960  0.00  0.00    +0.000 C 
ENDROOT
BRANCH   1  25
ATOM     25  C   UNL     1       0.274  11.221  19.170  0.00  0.00    +0.000 C 
BRANCH  25  26
ATOM     26  C   UNL     1      -1.077  11.337  18.460  0.00  0.00    +0.000 C 
BRANCH  26  27
ATOM     27  C   UNL     1      -1.375  10.116  17.587  0.00  0.00    +0.000 C 
BRANCH  27  29
ATOM     28  C   UNL     1      -2.891   9.850  15.589  0.00  0.00    +0.000 C 
ATOM     29  C   UNL     1      -2.821  10.131  17.082  0.00  0.00    +0.000 C 
ENDBRANCH  27  29
ENDBRANCH  26  27
ENDBRANCH  25  26
ENDBRANCH   1  25
TORSDOF 4
ENDMDL
MODEL 2
REMARK VINA RESULT:      -6.7      1.364      2.212
REMARK  Name = 
REMARK  5 active torsions:
REMARK  status: ('A' for Active; 'I' for Inactive)
REMARK    1  A    between atoms: C_1  and  C_2
REMARK    2  A    between atoms: C_2  and  C_3
REMARK    3  A    between atoms: C_3  and  C_4
REMARK    4  A    between atoms: C_4  and  C_5
REMARK    5  A    between atoms: C_5  and  C_6
REMARK                            x       y       z     vdW  Elec       q    Type
REMARK                         _______ _______ _______ _____ _____    ______ ____
ROOT
ATOM      1  C   UNL     1       0.515  10.473  19.763  0.00  0.00    +0.000 C 
ATOM      2  O   UNL     1      -0.269  10.549  20.714  0.00  0.00    +0.000 OA
ATOM      3  N   UNL     1       1.338   9.373  19.579  0.00  0.00    +0.000 N 
ATOM      4  C   UNL     1       1.203   8.214  20.464  0.00  0.00    +0.000 C 
ATOM      5  C   UNL     1       1.018   6.945  19.623  0.00  0.00    +0.000 C 
ATOM      6  C   UNL     1       2.214   6.752  18.690  0.00  0.00    +0.000 C 
ATOM      7  C   UNL     1       3.025   5.645  18.684  0.00  0.00    +0.000 C 
ATOM      8  C   UNL     1       4.095   5.519  17.661  0.00  0.00    +0.000 A 
ATOM      9  C   UNL     1       5.255   6.306  17.699  0.00  0.00    +0.000 A 
ATOM     10  C   UNL     1       6.271   6.115  16.756  0.00  0.00    +0.000 A 
ATOM     11  C   UNL     1       6.143   5.118  15.791  0.00  0.00    +0.000 A 
ATOM     12 CL   UNL     1       7.400   4.868  14.642  0.00  0.00    +0.000 Cl
ATOM     13  C   UNL     1       5.009   4.311  15.755  0.00  0.00    +0.000 A 
ATOM     14  C   UNL     1       3.975   4.516  16.681  0.00  0.00    +0.000 A 
ATOM     15  C   UNL     1       2.772   3.610  16.684  0.00  0.00    +0.000 C 
ATOM     16  C   UNL     1       2.847   2.625  17.846  0.00  0.00    +0.000 C 
ATOM     17  C   UNL     1       2.696   3.168  19.248  0.00  0.00    +0.000 A 
ATOM     18  C   UNL     1       2.471   2.213  20.258  0.00  0.00    +0.000 A 
ATOM     19  C   UNL     1       2.319   2.600  21.578  0.00  0.00    +0.000 A 
ATOM     20  C   UNL     1       2.434   3.941  21.871  0.00  0.00    +0.000 A 
ATOM     21  N   UNL     1       2.687   4.891  20.945  0.00  0.00    +0.000 NA
ATOM     22  C   UNL     1       2.785   4.517  19.641  0.00  0.00    +0.000 A 
ATOM     23  C   UNL     1       2.342   7.977  17.779  0.00  0.00    +0.000 C 
ATOM     24  C   UNL     1       2.433   9.271  18.610  0.00  0.00    +0.000 C 
ENDROOT
BRANCH   1  25
ATOM     25  C   UNL     1       0.563  11.551  18.687  0.00  0.00    +0.000 C 
BRANCH  25  26
ATOM     26  C   UNL     1       0.229  12.938  19.242  0.00  0.00    +0.000 C 
BRANCH  26  27
ATOM     27  C   UNL     1       1.212  14.005  18.756  0.00  0.00    +0.000 C 
BRANCH  27  29
ATOM     28  C   UNL     1       3.683  14.284  18.334  0.00  0.00    +0.000 C 
ATOM     29  C   UNL     1       2.477  13.372  18.168  0.00  0.00    +0.000 C 
ENDBRANCH  27  29
ENDBRANCH  26  27
ENDBRANCH  25  26
ENDBRANCH   1  25
TORSDOF 4
ENDMDL
MODEL 3
REMARK VINA RESULT:      -6.5      1.410      2.024
REMARK  Name = 
REMARK  5 active torsions:
REMARK  status: ('A' for Active; 'I' for Inactive)
REMARK    1  A    between atoms: C_1  and  C_2
REMARK    2  A    between atoms: C_2  and  C_3
REMARK    3  A    between atoms: C_3  and  C_4
REMARK    4  A    between atoms: C_4  and  C_5
REMARK    5  A    between atoms: C_5  and  C_6
REMARK                            x       y       z     vdW  Elec       q    Type
REMARK                         _______ _______ _______ _____ _____    ______ ____
ROOT
ATOM      1  C   UNL     1       0.589  10.508  19.839  0.00  0.00    +0.000 C 
ATOM      2  O   UNL     1      -0.199  10.589  20.786  0.00  0.00    +0.000 OA
ATOM      3  N   UNL     1       1.391   9.394  19.648  0.00  0.00    +0.000 N 
ATOM      4  C   UNL     1       1.226   8.228  20.517  0.00  0.00    +0.000 C 
ATOM      5  C   UNL     1       1.021   6.973  19.660  0.00  0.00    +0.000 C 
ATOM      6  C   UNL     1       2.219   6.767  18.733  0.00  0.00    +0.000 C 
ATOM      7  C   UNL     1       3.007   5.644  18.719  0.00  0.00    +0.000 C 
ATOM      8  C   UNL     1       4.081   5.507  17.702  0.00  0.00    +0.000 A 
ATOM      9  C   UNL     1       5.257   6.270  17.757  0.00  0.00    +0.000 A 
ATOM     10  C   UNL     1       6.276   6.069  16.819  0.00  0.00    +0.000 A 
ATOM     11  C   UNL     1       6.134   5.086  15.841  0.00  0.00    +0.000 A 
ATOM     12 CL   UNL     1       7.393   4.824  14.697  0.00  0.00    +0.000 Cl
ATOM     13  C   UNL     1       4.984   4.304  15.788  0.00  0.00    +0.000 A 
ATOM     14  C   UNL     1       3.948   4.518  16.709  0.00  0.00    +0.000 A 
ATOM     15  C   UNL     1       2.726   3.638  16.694  0.00  0.00    +0.000 C 
ATOM     16  C   UNL     1       2.773   2.637  17.845  0.00  0.00    +0.000 C 
ATOM     17  C   UNL     1       2.623   3.167  19.252  0.00  0.00    +0.000 A 
ATOM     18  C   UNL     1       2.372   2.205  20.248  0.00  0.00    +0.000 A 
ATOM     19  C   UNL     1       2.219   2.580  21.573  0.00  0.00    +0.000 A 
ATOM     20  C   UNL     1       2.359   3.915  21.882  0.00  0.00    +0.000 A 
ATOM     21  N   UNL     1       2.638   4.870  20.969  0.00  0.00    +0.000 NA
ATOM     22  C   UNL     1       2.737   4.509  19.661  0.00  0.00    +0.000 A 
ATOM     23  C   UNL     1       2.378   7.999  17.838  0.00  0.00    +0.000 C 
ATOM     24  C   UNL     1       2.490   9.281  18.685  0.00  0.00    +0.000 C 
ENDROOT
BRANCH   1  25
ATOM     25  C   UNL     1       0.667  11.598  18.776  0.00  0.00    +0.000 C 
BRANCH  25  26
ATOM     26  C   UNL     1       1.715  12.661  19.113  0.00  0.00    +0.000 C 
BRANCH  26  27
ATOM     27  C   UNL     1       1.345  14.034  18.546  0.00  0.00    +0.000 C 
BRANCH  27  29
ATOM     28  C   UNL     1      -0.353  15.878  18.827  0.00  0.00    +0.000 C 
ATOM     29  C   UNL     1      -0.122  14.374  18.820  0.00  0.00    +0.000 C 
ENDBRANCH  27  29
ENDBRANCH  26  27
ENDBRANCH  25  26
ENDBRANCH   1  25
TORSDOF 4
ENDMDL
MODEL 4
REMARK VINA RESULT:      -6.5      1.203      1.641
REMARK  Name = 
REMARK  5 active torsions:
REMARK  status: ('A' for Active; 'I' for Inactive)
REMARK    1  A    between atoms: C_1  and  C_2
REMARK    2  A    between atoms: C_2  and  C_3
REMARK    3  A    between atoms: C_3  and  C_4
REMARK    4  A    between atoms: C_4  and  C_5
REMARK    5  A    between atoms: C_5  and  C_6
REMARK                            x       y       z     vdW  Elec       q    Type
REMARK                         _______ _______ _______ _____ _____    ______ ____
ROOT
ATOM      1  C   UNL     1       0.429  10.361  19.902  0.00  0.00    +0.000 C 
ATOM      2  O   UNL     1      -0.351  10.411  20.858  0.00  0.00    +0.000 OA
ATOM      3  N   UNL     1       1.266   9.275  19.696  0.00  0.00    +0.000 N 
ATOM      4  C   UNL     1       1.150   8.100  20.562  0.00  0.00    +0.000 C 
ATOM      5  C   UNL     1       0.977   6.843  19.702  0.00  0.00    +0.000 C 
ATOM      6  C   UNL     1       2.171   6.681  18.760  0.00  0.00    +0.000 C 
ATOM      7  C   UNL     1       2.996   5.585  18.731  0.00  0.00    +0.000 C 
ATOM      8  C   UNL     1       4.062   5.489  17.701  0.00  0.00    +0.000 A 
ATOM      9  C   UNL     1       5.212   6.290  17.747  0.00  0.00    +0.000 A 
ATOM     10  C   UNL     1       6.226   6.128  16.796  0.00  0.00    +0.000 A 
ATOM     11  C   UNL     1       6.106   5.145  15.815  0.00  0.00    +0.000 A 
ATOM     12 CL   UNL     1       7.360   4.931  14.656  0.00  0.00    +0.000 Cl
ATOM     13  C   UNL     1       4.982   4.325  15.772  0.00  0.00    +0.000 A 
ATOM     14  C   UNL     1       3.950   4.500  16.705  0.00  0.00    +0.000 A 
ATOM     15  C   UNL     1       2.759   3.580  16.699  0.00  0.00    +0.000 C 
ATOM     16  C   UNL     1       2.852   2.576  17.845  0.00  0.00    +0.000 C 
ATOM     17  C   UNL     1       2.701   3.095  19.256  0.00  0.00    +0.000 A 
ATOM     18  C   UNL     1       2.494   2.120  20.251  0.00  0.00    +0.000 A 
ATOM     19  C   UNL     1       2.344   2.483  21.578  0.00  0.00    +0.000 A 
ATOM     20  C   UNL     1       2.443   3.821  21.892  0.00  0.00    +0.000 A 
ATOM     21  N   UNL     1       2.679   4.789  20.981  0.00  0.00    +0.000 NA
ATOM     22  C   UNL     1       2.775   4.437  19.670  0.00  0.00    +0.000 A 
ATOM     23  C   UNL     1       2.278   7.922  17.868  0.00  0.00    +0.000 C 
ATOM     24  C   UNL     1       2.357   9.203  18.721  0.00  0.00    +0.000 C 
ENDROOT
BRANCH   1  25
ATOM     25  C   UNL     1       0.458  11.457  18.844  0.00  0.00    +0.000 C 
BRANCH  25  26
ATOM     26  C   UNL     1      -0.826  12.290  18.838  0.00  0.00    +0.000 C 
BRANCH  26  27
ATOM     27  C   UNL     1      -0.659  13.613  19.589  0.00  0.00    +0.000 C 
BRANCH  27  29
ATOM     28  C   UNL     1      -2.903  12.795  20.399  0.00  0.00    +0.000 C 
ATOM     29  C   UNL     1      -1.892  13.932  20.438  0.00  0.00    +0.000 C 
ENDBRANCH  27  29
ENDBRANCH  26  27
ENDBRANCH  25  26
ENDBRANCH   1  25
TORSDOF 4
ENDMDL
MODEL 5
REMARK VINA RESULT:      -6.4      5.763      9.244
REMARK  Name = 
REMARK  5 active torsions:
REMARK  status: ('A' for Active; 'I' for Inactive)
REMARK    1  A    between atoms: C_1  and  C_2
REMARK    2  A    between atoms: C_2  and  C_3
REMARK    3  A    between atoms: C_3  and  C_4
REMARK    4  A    between atoms: C_4  and  C_5
REMARK    5  A    between atoms: C_5  and  C_6
REMARK                            x       y       z     vdW  Elec       q    Type
REMARK                         _______ _______ _______ _____ _____    ______ ____
ROOT
ATOM      1  C   UNL     1       2.965  15.518  17.917  0.00  0.00    +0.000 C 
ATOM      2  O   UNL     1       4.098  15.142  17.602  0.00  0.00    +0.000 OA
ATOM      3  N   UNL     1       2.006  14.637  18.391  0.00  0.00    +0.000 N 
ATOM      4  C   UNL     1       2.369  13.240  18.639  0.00  0.00    +0.000 C 
ATOM      5  C   UNL     1       1.974  12.853  20.069  0.00  0.00    +0.000 C 
ATOM      6  C   UNL     1       0.471  13.045  20.271  0.00  0.00    +0.000 C 
ATOM      7  C   UNL     1      -0.397  12.050  20.643  0.00  0.00    +0.000 C 
ATOM      8  C   UNL     1      -1.822  12.374  20.913  0.00  0.00    +0.000 A 
ATOM      9  C   UNL     1      -2.716  12.700  19.884  0.00  0.00    +0.000 A 
ATOM     10  C   UNL     1      -4.066  12.937  20.167  0.00  0.00    +0.000 A 
ATOM     11  C   UNL     1      -4.530  12.820  21.476  0.00  0.00    +0.000 A 
ATOM     12 CL   UNL     1      -6.193  13.092  21.826  0.00  0.00    +0.000 Cl
ATOM     13  C   UNL     1      -3.660  12.473  22.506  0.00  0.00    +0.000 A 
ATOM     14  C   UNL     1      -2.301  12.260  22.232  0.00  0.00    +0.000 A 
ATOM     15  C   UNL     1      -1.365  11.829  23.330  0.00  0.00    +0.000 C 
ATOM     16  C   UNL     1      -1.037  10.344  23.200  0.00  0.00    +0.000 C 
ATOM     17  C   UNL     1      -0.190   9.905  22.028  0.00  0.00    +0.000 A 
ATOM     18  C   UNL     1       0.336   8.601  22.104  0.00  0.00    +0.000 A 
ATOM     19  C   UNL     1       1.125   8.095  21.084  0.00  0.00    +0.000 A 
ATOM     20  C   UNL     1       1.341   8.895  19.984  0.00  0.00    +0.000 A 
ATOM     21  N   UNL     1       0.827  10.136  19.847  0.00  0.00    +0.000 NA
ATOM     22  C   UNL     1       0.096  10.652  20.871  0.00  0.00    +0.000 A 
ATOM     23  C   UNL     1       0.112  14.510  20.001  0.00  0.00    +0.000 C 
ATOM     24  C   UNL     1       0.588  14.940  18.600  0.00  0.00    +0.000 C 
ENDROOT
BRANCH   1  25
ATOM     25  C   UNL     1       2.580  16.993  17.880  0.00  0.00    +0.000 C 
BRANCH  25  26
ATOM     26  C   UNL     1       2.259  17.542  19.272  0.00  0.00    +0.000 C 
BRANCH  26  27
ATOM     27  C   UNL     1       3.420  17.348  20.250  0.00  0.00    +0.000 C 
BRANCH  27  29
ATOM     28  C   UNL     1       3.265  15.543  22.004  0.00  0.00    +0.000 C 
ATOM     29  C   UNL     1       2.916  16.980  21.648  0.00  0.00    +0.000 C 
ENDBRANCH  27  29
ENDBRANCH  26  27
ENDBRANCH  25  26
ENDBRANCH   1  25
TORSDOF 4
ENDMDL
MODEL 6
REMARK VINA RESULT:      -6.2      3.567      8.111
REMARK  Name = 
REMARK  5 active torsions:
REMARK  status: ('A' for Active; 'I' for Inactive)
REMARK    1  A    between atoms: C_1  and  C_2
REMARK    2  A    between atoms: C_2  and  C_3
REMARK    3  A    between atoms: C_3  and  C_4
REMARK    4  A    between atoms: C_4  and  C_5
REMARK    5  A    between atoms: C_5  and  C_6
REMARK                            x       y       z     vdW  Elec       q    Type
REMARK                         _______ _______ _______ _____ _____    ______ ____
ROOT
ATOM      1  C   UNL     1       3.903   6.007  18.490  0.00  0.00    +0.000 C 
ATOM      2  O   UNL     1       4.552   5.576  19.447  0.00  0.00    +0.000 OA
ATOM      3  N   UNL     1       2.752   6.759  18.664  0.00  0.00    +0.000 N 
ATOM      4  C   UNL     1       2.348   7.158  20.014  0.00  0.00    +0.000 C 
ATOM      5  C   UNL     1       2.133   8.676  20.058  0.00  0.00    +0.000 C 
ATOM      6  C   UNL     1       1.059   9.085  19.050  0.00  0.00    +0.000 C 
ATOM      7  C   UNL     1      -0.102   9.741  19.374  0.00  0.00    +0.000 C 
ATOM      8  C   UNL     1      -1.027  10.183  18.298  0.00  0.00    +0.000 A 
ATOM      9  C   UNL     1      -1.804   9.273  17.567  0.00  0.00    +0.000 A 
ATOM     10  C   UNL     1      -2.711   9.730  16.605  0.00  0.00    +0.000 A 
ATOM     11  C   UNL     1      -2.864  11.099  16.391  0.00  0.00    +0.000 A 
ATOM     12 CL   UNL     1      -3.993  11.665  15.222  0.00  0.00    +0.000 Cl
ATOM     13  C   UNL     1      -2.118  12.016  17.126  0.00  0.00    +0.000 A 
ATOM     14  C   UNL     1      -1.188  11.563  18.073  0.00  0.00    +0.000 A 
ATOM     15  C   UNL     1      -0.418  12.550  18.911  0.00  0.00    +0.000 C 
ATOM     16  C   UNL     1      -0.980  12.600  20.329  0.00  0.00    +0.000 C 
ATOM     17  C   UNL     1      -0.787  11.389  21.212  0.00  0.00    +0.000 A 
ATOM     18  C   UNL     1      -1.045  11.580  22.583  0.00  0.00    +0.000 A 
ATOM     19  C   UNL     1      -0.900  10.537  23.482  0.00  0.00    +0.000 A 
ATOM     20  C   UNL     1      -0.535   9.306  22.984  0.00  0.00    +0.000 A 
ATOM     21  N   UNL     1      -0.314   9.064  21.674  0.00  0.00    +0.000 NA
ATOM     22  C   UNL     1      -0.405  10.100  20.798  0.00  0.00    +0.000 A 
ATOM     23  C   UNL     1       1.497   8.653  17.647  0.00  0.00    +0.000 C 
ATOM     24  C   UNL     1       1.808   7.144  17.611  0.00  0.00    +0.000 C 
ENDROOT
BRANCH   1  25
ATOM     25  C   UNL     1       4.377   5.805  17.055  0.00  0.00    +0.000 C 
BRANCH  25  26
ATOM     26  C   UNL     1       5.490   6.782  16.670  0.00  0.00    +0.000 C 
BRANCH  26  27
ATOM     27  C   UNL     1       6.882   6.189  16.897  0.00  0.00    +0.000 C 
BRANCH  27  29
ATOM     28  C   UNL     1       8.008   5.909  19.136  0.00  0.00    +0.000 C 
ATOM     29  C   UNL     1       7.607   6.893  18.048  0.00  0.00    +0.000 C 
ENDBRANCH  27  29
ENDBRANCH  26  27
ENDBRANCH  25  26
ENDBRANCH   1  25
TORSDOF 4
ENDMDL
MODEL 7
REMARK VINA RESULT:      -6.1      4.066      9.273
REMARK  Name = 
REMARK  5 active torsions:
REMARK  status: ('A' for Active; 'I' for Inactive)
REMARK    1  A    between atoms: C_1  and  C_2
REMARK    2  A    between atoms: C_2  and  C_3
REMARK    3  A    between atoms: C_3  and  C_4
REMARK    4  A    between atoms: C_4  and  C_5
REMARK    5  A    between atoms: C_5  and  C_6
REMARK                            x       y       z     vdW  Elec       q    Type
REMARK                         _______ _______ _______ _____ _____    ______ ____
ROOT
ATOM      1  C   UNL     1       2.624   6.713  18.388  0.00  0.00    +0.000 C 
ATOM      2  O   UNL     1       3.559   6.704  17.582  0.00  0.00    +0.000 OA
ATOM      3  N   UNL     1       2.180   7.885  18.981  0.00  0.00    +0.000 N 
ATOM      4  C   UNL     1       2.750   9.167  18.561  0.00  0.00    +0.000 C 
ATOM      5  C   UNL     1       1.620  10.128  18.173  0.00  0.00    +0.000 C 
ATOM      6  C   UNL     1       0.677  10.339  19.357  0.00  0.00    +0.000 C 
ATOM      7  C   UNL     1       0.403  11.558  19.925  0.00  0.00    +0.000 C 
ATOM      8  C   UNL     1      -0.611  11.659  21.006  0.00  0.00    +0.000 A 
ATOM      9  C   UNL     1      -0.372  11.167  22.297  0.00  0.00    +0.000 A 
ATOM     10  C   UNL     1      -1.325  11.336  23.307  0.00  0.00    +0.000 A 
ATOM     11  C   UNL     1      -2.508  12.022  23.036  0.00  0.00    +0.000 A 
ATOM     12 CL   UNL     1      -3.674  12.248  24.282  0.00  0.00    +0.000 Cl
ATOM     13  C   UNL     1      -2.750  12.538  21.767  0.00  0.00    +0.000 A 
ATOM     14  C   UNL     1      -1.810  12.348  20.743  0.00  0.00    +0.000 A 
ATOM     15  C   UNL     1      -2.039  12.953  19.383  0.00  0.00    +0.000 C 
ATOM     16  C   UNL     1      -1.156  14.181  19.188  0.00  0.00    +0.000 C 
ATOM     17  C   UNL     1       0.336  13.971  19.068  0.00  0.00    +0.000 A 
ATOM     18  C   UNL     1       1.077  15.071  18.595  0.00  0.00    +0.000 A 
ATOM     19  C   UNL     1       2.451  14.989  18.447  0.00  0.00    +0.000 A 
ATOM     20  C   UNL     1       3.066  13.813  18.814  0.00  0.00    +0.000 A 
ATOM     21  N   UNL     1       2.405  12.744  19.309  0.00  0.00    +0.000 NA
ATOM     22  C   UNL     1       1.050  12.806  19.405  0.00  0.00    +0.000 A 
ATOM     23  C   UNL     1       0.098   8.987  19.784  0.00  0.00    +0.000 C 
ATOM     24  C   UNL     1       1.224   7.980  20.087  0.00  0.00    +0.000 C 
ENDROOT
BRANCH   1  25
ATOM     25  C   UNL     1       1.848   5.443  18.718  0.00  0.00    +0.000 C 
BRANCH  25  26
ATOM     26  C   UNL     1       2.585   4.180  18.264  0.00  0.00    +0.000 C 
BRANCH  26  27
ATOM     27  C   UNL     1       1.837   2.904  18.657  0.00  0.00    +0.000 C 
BRANCH  27  29
ATOM     28  C   UNL     1       1.416   2.703  21.136  0.00  0.00    +0.000 C 
ATOM     29  C   UNL     1       0.852   3.165  19.800  0.00  0.00    +0.000 C 
ENDBRANCH  27  29
ENDBRANCH  26  27
ENDBRANCH  25  26
ENDBRANCH   1  25
TORSDOF 4
ENDMDL
MODEL 8
REMARK VINA RESULT:      -6.1      3.499      8.073
REMARK  Name = 
REMARK  5 active torsions:
REMARK  status: ('A' for Active; 'I' for Inactive)
REMARK    1  A    between atoms: C_1  and  C_2
REMARK    2  A    between atoms: C_2  and  C_3
REMARK    3  A    between atoms: C_3  and  C_4
REMARK    4  A    between atoms: C_4  and  C_5
REMARK    5  A    between atoms: C_5  and  C_6
REMARK                            x       y       z     vdW  Elec       q    Type
REMARK                         _______ _______ _______ _____ _____    ______ ____
ROOT
ATOM      1  C   UNL     1       3.983   5.962  18.439  0.00  0.00    +0.000 C 
ATOM      2  O   UNL     1       4.622   5.509  19.394  0.00  0.00    +0.000 OA
ATOM      3  N   UNL     1       2.831   6.712  18.619  0.00  0.00    +0.000 N 
ATOM      4  C   UNL     1       2.414   7.081  19.974  0.00  0.00    +0.000 C 
ATOM      5  C   UNL     1       2.200   8.597  20.050  0.00  0.00    +0.000 C 
ATOM      6  C   UNL     1       1.136   9.030  19.041  0.00  0.00    +0.000 C 
ATOM      7  C   UNL     1      -0.027   9.680  19.368  0.00  0.00    +0.000 C 
ATOM      8  C   UNL     1      -0.940  10.148  18.294  0.00  0.00    +0.000 A 
ATOM      9  C   UNL     1      -1.711   9.256  17.534  0.00  0.00    +0.000 A 
ATOM     10  C   UNL     1      -2.608   9.735  16.574  0.00  0.00    +0.000 A 
ATOM     11  C   UNL     1      -2.758  11.109  16.390  0.00  0.00    +0.000 A 
ATOM     12 CL   UNL     1      -3.874  11.703  15.222  0.00  0.00    +0.000 Cl
ATOM     13  C   UNL     1      -2.018  12.008  17.152  0.00  0.00    +0.000 A 
ATOM     14  C   UNL     1      -1.098  11.533  18.098  0.00  0.00    +0.000 A 
ATOM     15  C   UNL     1      -0.336  12.499  18.966  0.00  0.00    +0.000 C 
ATOM     16  C   UNL     1      -0.913  12.518  20.379  0.00  0.00    +0.000 C 
ATOM     17  C   UNL     1      -0.729  11.287  21.236  0.00  0.00    +0.000 A 
ATOM     18  C   UNL     1      -1.001  11.446  22.608  0.00  0.00    +0.000 A 
ATOM     19  C   UNL     1      -0.866  10.383  23.485  0.00  0.00    +0.000 A 
ATOM     20  C   UNL     1      -0.497   9.164  22.963  0.00  0.00    +0.000 A 
ATOM     21  N   UNL     1      -0.263   8.951  21.650  0.00  0.00    +0.000 NA
ATOM     22  C   UNL     1      -0.345  10.007  20.797  0.00  0.00    +0.000 A 
ATOM     23  C   UNL     1       1.588   8.630  17.633  0.00  0.00    +0.000 C 
ATOM     24  C   UNL     1       1.898   7.122  17.566  0.00  0.00    +0.000 C 
ENDROOT
BRANCH   1  25
ATOM     25  C   UNL     1       4.471   5.792  17.005  0.00  0.00    +0.000 C 
BRANCH  25  26
ATOM     26  C   UNL     1       4.826   4.338  16.684  0.00  0.00    +0.000 C 
BRANCH  26  27
ATOM     27  C   UNL     1       6.282   4.185  16.240  0.00  0.00    +0.000 C 
BRANCH  27  29
ATOM     28  C   UNL     1       6.146   3.881  13.740  0.00  0.00    +0.000 C 
ATOM     29  C   UNL     1       6.519   4.828  14.871  0.00  0.00    +0.000 C 
ENDBRANCH  27  29
ENDBRANCH  26  27
ENDBRANCH  25  26
ENDBRANCH   1  25
TORSDOF 4
ENDMDL
MODEL 9
REMARK VINA RESULT:      -6.1      4.222      9.369
REMARK  Name = 
REMARK  5 active torsions:
REMARK  status: ('A' for Active; 'I' for Inactive)
REMARK    1  A    between atoms: C_1  and  C_2
REMARK    2  A    between atoms: C_2  and  C_3
REMARK    3  A    between atoms: C_3  and  C_4
REMARK    4  A    between atoms: C_4  and  C_5
REMARK    5  A    between atoms: C_5  and  C_6
REMARK                            x       y       z     vdW  Elec       q    Type
REMARK                         _______ _______ _______ _____ _____    ______ ____
ROOT
ATOM      1  C   UNL     1       2.125   6.247  20.038  0.00  0.00    +0.000 C 
ATOM      2  O   UNL     1       3.102   6.072  19.305  0.00  0.00    +0.000 OA
ATOM      3  N   UNL     1       1.672   7.516  20.364  0.00  0.00    +0.000 N 
ATOM      4  C   UNL     1       2.290   8.686  19.736  0.00  0.00    +0.000 C 
ATOM      5  C   UNL     1       1.203   9.563  19.102  0.00  0.00    +0.000 C 
ATOM      6  C   UNL     1       0.200  10.010  20.166  0.00  0.00    +0.000 C 
ATOM      7  C   UNL     1      -0.080  11.319  20.468  0.00  0.00    +0.000 C 
ATOM      8  C   UNL     1      -1.151  11.639  21.447  0.00  0.00    +0.000 A 
ATOM      9  C   UNL     1      -0.993  11.407  22.821  0.00  0.00    +0.000 A 
ATOM     10  C   UNL     1      -1.996  11.780  23.722  0.00  0.00    +0.000 A 
ATOM     11  C   UNL     1      -3.149  12.410  23.254  0.00  0.00    +0.000 A 
ATOM     12 CL   UNL     1      -4.377  12.886  24.361  0.00  0.00    +0.000 Cl
ATOM     13  C   UNL     1      -3.310  12.669  21.896  0.00  0.00    +0.000 A 
ATOM     14  C   UNL     1      -2.319  12.274  20.985  0.00  0.00    +0.000 A 
ATOM     15  C   UNL     1      -2.461  12.602  19.522  0.00  0.00    +0.000 C 
ATOM     16  C   UNL     1      -1.543  13.761  19.143  0.00  0.00    +0.000 C 
ATOM     17  C   UNL     1      -0.052  13.517  19.153  0.00  0.00    +0.000 A 
ATOM     18  C   UNL     1       0.736  14.497  18.518  0.00  0.00    +0.000 A 
ATOM     19  C   UNL     1       2.114  14.375  18.469  0.00  0.00    +0.000 A 
ATOM     20  C   UNL     1       2.685  13.289  19.094  0.00  0.00    +0.000 A 
ATOM     21  N   UNL     1       1.976  12.344  19.749  0.00  0.00    +0.000 NA
ATOM     22  C   UNL     1       0.619  12.435  19.752  0.00  0.00    +0.000 A 
ATOM     23  C   UNL     1      -0.429   8.773  20.814  0.00  0.00    +0.000 C 
ATOM     24  C   UNL     1       0.659   7.836  21.373  0.00  0.00    +0.000 C 
ENDROOT
BRANCH   1  25
ATOM     25  C   UNL     1       1.306   5.074  20.564  0.00  0.00    +0.000 C 
BRANCH  25  26
ATOM     26  C   UNL     1       2.174   4.042  21.288  0.00  0.00    +0.000 C 
BRANCH  26  27
ATOM     27  C   UNL     1       2.075   2.655  20.649  0.00  0.00    +0.000 C 
BRANCH  27  29
ATOM     28  C   UNL     1       1.986   2.317  18.151  0.00  0.00    +0.000 C 
ATOM     29  C   UNL     1       1.193   2.680  19.397  0.00  0.00    +0.000 C 
ENDBRANCH  27  29
ENDBRANCH  26  27
ENDBRANCH  25  26
ENDBRANCH   1  25
TORSDOF 4
ENDMDL
