MODEL 1
REMARK VINA RESULT:      -7.1      0.000      0.000
REMARK  Name = 
REMARK  8 active torsions:
REMARK  status: ('A' for Active; 'I' for Inactive)
REMARK    1  A    between atoms: C_1  and  N_2
REMARK    2  A    between atoms: C_6  and  C_7
REMARK    3  A    between atoms: C_7  and  N_8
REMARK    4  A    between atoms: C_9  and  C_11
REMARK    5  A    between atoms: C_11  and  C_12
REMARK    6  A    between atoms: C_12  and  C_13
REMARK    7  A    between atoms: C_13  and  O_14
REMARK    8  A    between atoms: O_14  and  C_15
REMARK                            x       y       z     vdW  Elec       q    Type
REMARK                         _______ _______ _______ _____ _____    ______ ____
ROOT
ATOM      1  N   UNL     1       6.091   4.736  17.310  0.00  0.00    +0.000 N 
ATOM      2  C   UNL     1       6.176   6.102  17.186  0.00  0.00    +0.000 C 
ATOM      3  O   UNL     1       5.295   6.785  16.675  0.00  0.00    +0.000 OA
ATOM      4  H   UNL     1       6.928   4.200  17.506  0.00  0.00    +0.000 HD
ENDROOT
BRANCH   1   5
ATOM      5  C   UNL     1       4.927   3.997  16.843  0.00  0.00    +0.000 C 
BRANCH   5  11
ATOM      6  C   UNL     1       2.904   2.757  20.676  0.00  0.00    +0.000 C 
ATOM      7  N   UNL     1       2.630   2.178  19.361  0.00  0.00    +0.000 NA
ATOM      8  C   UNL     1       1.382   2.707  18.777  0.00  0.00    +0.000 C 
ATOM      9  C   UNL     1       1.497   4.148  18.250  0.00  0.00    +0.000 C 
ATOM     10  O   UNL     1       2.573   4.282  17.308  0.00  0.00    +0.000 OA
ATOM     11  C   UNL     1       3.827   3.886  17.908  0.00  0.00    +0.000 C 
ATOM     12  C   UNL     1       3.739   2.427  18.414  0.00  0.00    +0.000 C 
ENDBRANCH   5  11
ENDBRANCH   1   5
BRANCH   2  13
ATOM     13  C   UNL     1       7.465   6.685  17.736  0.00  0.00    +0.000 C 
BRANCH  13  14
ATOM     14  C   UNL     1       7.560   8.194  17.513  0.00  0.00    +0.000 C 
BRANCH  14  15
ATOM     15  C   UNL     1       8.586   8.840  18.446  0.00  0.00    +0.000 C 
BRANCH  15  16
ATOM     16  O   UNL     1       8.586  10.252  18.234  0.00  0.00    +0.000 OA
BRANCH  16  17
ATOM     17  C   UNL     1       9.663  10.942  18.734  0.00  0.00    +0.000 A 
ATOM     18  C   UNL     1      10.545  11.421  17.762  0.00  0.00    +0.000 A 
ATOM     19  C   UNL     1      11.694  12.134  18.126  0.00  0.00    +0.000 A 
ATOM     20  C   UNL     1      11.970  12.374  19.470  0.00  0.00    +0.000 A 
ATOM     21  C   UNL     1      11.096  11.903  20.449  0.00  0.00    +0.000 A 
ATOM     22  C   UNL     1       9.952  11.193  20.080  0.00  0.00    +0.000 A 
ATOM     23  F   UNL     1       9.158  10.762  21.069  0.00  0.00    +0.000 F 
ENDBRANCH  16  17
ENDBRANCH  15  16
ENDBRANCH  14  15
ENDBRANCH  13  14
ENDBRANCH   2  13
TORSDOF 7
ENDMDL
MODEL 2
REMARK VINA RESULT:      -7.0      3.247      9.639
REMARK  Name = 
REMARK  8 active torsions:
REMARK  status: ('A' for Active; 'I' for Inactive)
REMARK    1  A    between atoms: C_1  and  N_2
REMARK    2  A    between atoms: C_6  and  C_7
REMARK    3  A    between atoms: C_7  and  N_8
REMARK    4  A    between atoms: C_9  and  C_11
REMARK    5  A    between atoms: C_11  and  C_12
REMARK    6  A    between atoms: C_12  and  C_13
REMARK    7  A    between atoms: C_13  and  O_14
REMARK    8  A    between atoms: O_14  and  C_15
REMARK                            x       y       z     vdW  Elec       q    Type
REMARK                         _______ _______ _______ _____ _____    ______ ____
ROOT
ATOM      1  N   UNL     1       8.551   8.937  18.443  0.00  0.00    +0.000 N 
ATOM      2  C   UNL     1       7.886   7.857  17.911  0.00  0.00    +0.000 C 
ATOM      3  O   UNL     1       7.196   7.928  16.900  0.00  0.00    +0.000 OA
ATOM      4  H   UNL     1       8.897   8.889  19.394  0.00  0.00    +0.000 HD
ENDROOT
BRANCH   1   5
ATOM      5  C   UNL     1       8.485  10.254  17.829  0.00  0.00    +0.000 C 
BRANCH   5  11
ATOM      6  C   UNL     1      11.138  13.841  18.470  0.00  0.00    +0.000 C 
ATOM      7  N   UNL     1      11.581  12.450  18.549  0.00  0.00    +0.000 NA
ATOM      8  C   UNL     1      11.718  11.996  19.947  0.00  0.00    +0.000 C 
ATOM      9  C   UNL     1      10.378  11.734  20.657  0.00  0.00    +0.000 C 
ATOM     10  O   UNL     1       9.562  10.811  19.920  0.00  0.00    +0.000 OA
ATOM     11  C   UNL     1       9.313  11.304  18.584  0.00  0.00    +0.000 C 
ATOM     12  C   UNL     1      10.651  11.541  17.846  0.00  0.00    +0.000 C 
ENDBRANCH   5  11
ENDBRANCH   1   5
BRANCH   2  13
ATOM     13  C   UNL     1       8.084   6.573  18.695  0.00  0.00    +0.000 C 
BRANCH  13  14
ATOM     14  C   UNL     1       7.065   5.499  18.314  0.00  0.00    +0.000 C 
BRANCH  14  15
ATOM     15  C   UNL     1       6.025   5.291  19.416  0.00  0.00    +0.000 C 
BRANCH  15  16
ATOM     16  O   UNL     1       5.426   4.004  19.255  0.00  0.00    +0.000 OA
BRANCH  16  17
ATOM     17  C   UNL     1       4.111   3.991  18.860  0.00  0.00    +0.000 A 
ATOM     18  C   UNL     1       3.895   3.456  17.588  0.00  0.00    +0.000 A 
ATOM     19  C   UNL     1       2.604   3.388  17.049  0.00  0.00    +0.000 A 
ATOM     20  C   UNL     1       1.517   3.856  17.782  0.00  0.00    +0.000 A 
ATOM     21  C   UNL     1       1.719   4.389  19.054  0.00  0.00    +0.000 A 
ATOM     22  C   UNL     1       3.008   4.454  19.586  0.00  0.00    +0.000 A 
ATOM     23  F   UNL     1       3.135   4.985  20.810  0.00  0.00    +0.000 F 
ENDBRANCH  16  17
ENDBRANCH  15  16
ENDBRANCH  14  15
ENDBRANCH  13  14
ENDBRANCH   2  13
TORSDOF 7
ENDMDL
MODEL 3
REMARK VINA RESULT:      -6.9      1.712      2.079
REMARK  Name = 
REMARK  8 active torsions:
REMARK  status: ('A' for Active; 'I' for Inactive)
REMARK    1  A    between atoms: C_1  and  N_2
REMARK    2  A    between atoms: C_6  and  C_7
REMARK    3  A    between atoms: C_7  and  N_8
REMARK    4  A    between atoms: C_9  and  C_11
REMARK    5  A    between atoms: C_11  and  C_12
REMARK    6  A    between atoms: C_12  and  C_13
REMARK    7  A    between atoms: C_13  and  O_14
REMARK    8  A    between atoms: O_14  and  C_15
REMARK                            x       y       z     vdW  Elec       q    Type
REMARK                         _______ _______ _______ _____ _____    ______ ____
ROOT
ATOM      1  N   UNL     1       5.630   6.240  17.529  0.00  0.00    +0.000 N 
ATOM      2  C   UNL     1       6.925   6.414  17.102  0.00  0.00    +0.000 C 
ATOM      3  O   UNL     1       7.367   5.905  16.077  0.00  0.00    +0.000 OA
ATOM      4  H   UNL     1       5.387   6.467  18.486  0.00  0.00    +0.000 HD
ENDROOT
BRANCH   1   5
ATOM      5  C   UNL     1       4.679   5.433  16.779  0.00  0.00    +0.000 C 
BRANCH   5  11
ATOM      6  C   UNL     1       1.221   3.108  18.497  0.00  0.00    +0.000 C 
ATOM      7  N   UNL     1       1.900   4.215  19.169  0.00  0.00    +0.000 NA
ATOM      8  C   UNL     1       2.841   3.736  20.201  0.00  0.00    +0.000 C 
ATOM      9  C   UNL     1       4.136   3.128  19.635  0.00  0.00    +0.000 C 
ATOM     10  O   UNL     1       4.804   4.039  18.749  0.00  0.00    +0.000 OA
ATOM     11  C   UNL     1       3.934   4.420  17.660  0.00  0.00    +0.000 C 
ATOM     12  C   UNL     1       2.640   5.064  18.211  0.00  0.00    +0.000 C 
ENDBRANCH   5  11
ENDBRANCH   1   5
BRANCH   2  13
ATOM     13  C   UNL     1       7.758   7.290  18.020  0.00  0.00    +0.000 C 
BRANCH  13  14
ATOM     14  C   UNL     1       7.832   8.736  17.531  0.00  0.00    +0.000 C 
BRANCH  14  15
ATOM     15  C   UNL     1       8.689   9.602  18.455  0.00  0.00    +0.000 C 
BRANCH  15  16
ATOM     16  O   UNL     1       8.750  10.928  17.930  0.00  0.00    +0.000 OA
BRANCH  16  17
ATOM     17  C   UNL     1       9.523  11.824  18.627  0.00  0.00    +0.000 A 
ATOM     18  C   UNL     1      10.645  11.263  19.242  0.00  0.00    +0.000 A 
ATOM     19  C   UNL     1      11.519  12.056  19.996  0.00  0.00    +0.000 A 
ATOM     20  C   UNL     1      11.276  13.419  20.141  0.00  0.00    +0.000 A 
ATOM     21  C   UNL     1      10.161  13.991  19.529  0.00  0.00    +0.000 A 
ATOM     22  C   UNL     1       9.294  13.195  18.778  0.00  0.00    +0.000 A 
ATOM     23  F   UNL     1       8.237  13.805  18.223  0.00  0.00    +0.000 F 
ENDBRANCH  16  17
ENDBRANCH  15  16
ENDBRANCH  14  15
ENDBRANCH  13  14
ENDBRANCH   2  13
TORSDOF 7
ENDMDL
MODEL 4
REMARK VINA RESULT:      -6.9      4.668      6.546
REMARK  Name = 
REMARK  8 active torsions:
REMARK  status: ('A' for Active; 'I' for Inactive)
REMARK    1  A    between atoms: C_1  and  N_2
REMARK    2  A    between atoms: C_6  and  C_7
REMARK    3  A    between atoms: C_7  and  N_8
REMARK    4  A    between atoms: C_9  and  C_11
REMARK    5  A    between atoms: C_11  and  C_12
REMARK    6  A    between atoms: C_12  and  C_13
REMARK    7  A    between atoms: C_13  and  O_14
REMARK    8  A    between atoms: O_14  and  C_15
REMARK                            x       y       z     vdW  Elec       q    Type
REMARK                         _______ _______ _______ _____ _____    ______ ____
ROOT
ATOM      1  N   UNL     1       3.162   6.693  18.044  0.00  0.00    +0.000 N 
ATOM      2  C   UNL     1       4.501   6.460  18.256  0.00  0.00    +0.000 C 
ATOM      3  O   UNL     1       4.929   5.859  19.236  0.00  0.00    +0.000 OA
ATOM      4  H   UNL     1       2.880   7.392  17.368  0.00  0.00    +0.000 HD
ENDROOT
BRANCH   1   5
ATOM      5  C   UNL     1       2.148   6.228  18.978  0.00  0.00    +0.000 C 
BRANCH   5  11
ATOM      6  C   UNL     1       3.041   1.906  18.058  0.00  0.00    +0.000 C 
ATOM      7  N   UNL     1       1.755   2.562  17.823  0.00  0.00    +0.000 NA
ATOM      8  C   UNL     1       0.766   2.221  18.865  0.00  0.00    +0.000 C 
ATOM      9  C   UNL     1       1.011   2.920  20.214  0.00  0.00    +0.000 C 
ATOM     10  O   UNL     1       1.092   4.345  20.065  0.00  0.00    +0.000 OA
ATOM     11  C   UNL     1       2.144   4.701  19.140  0.00  0.00    +0.000 C 
ATOM     12  C   UNL     1       1.895   4.034  17.767  0.00  0.00    +0.000 C 
ENDBRANCH   5  11
ENDBRANCH   1   5
BRANCH   2  13
ATOM     13  C   UNL     1       5.398   7.020  17.168  0.00  0.00    +0.000 C 
BRANCH  13  14
ATOM     14  C   UNL     1       6.837   6.519  17.288  0.00  0.00    +0.000 C 
BRANCH  14  15
ATOM     15  C   UNL     1       7.042   5.206  16.532  0.00  0.00    +0.000 C 
BRANCH  15  16
ATOM     16  O   UNL     1       7.696   5.478  15.292  0.00  0.00    +0.000 OA
BRANCH  16  17
ATOM     17  C   UNL     1       7.183   4.852  14.183  0.00  0.00    +0.000 A 
ATOM     18  C   UNL     1       6.083   4.030  14.440  0.00  0.00    +0.000 A 
ATOM     19  C   UNL     1       5.462   3.320  13.405  0.00  0.00    +0.000 A 
ATOM     20  C   UNL     1       5.939   3.427  12.102  0.00  0.00    +0.000 A 
ATOM     21  C   UNL     1       7.033   4.246  11.832  0.00  0.00    +0.000 A 
ATOM     22  C   UNL     1       7.648   4.952  12.868  0.00  0.00    +0.000 A 
ATOM     23  F   UNL     1       8.701   5.715  12.543  0.00  0.00    +0.000 F 
ENDBRANCH  16  17
ENDBRANCH  15  16
ENDBRANCH  14  15
ENDBRANCH  13  14
ENDBRANCH   2  13
TORSDOF 7
ENDMDL
MODEL 5
REMARK VINA RESULT:      -6.9      2.032      2.334
REMARK  Name = 
REMARK  8 active torsions:
REMARK  status: ('A' for Active; 'I' for Inactive)
REMARK    1  A    between atoms: C_1  and  N_2
REMARK    2  A    between atoms: C_6  and  C_7
REMARK    3  A    between atoms: C_7  and  N_8
REMARK    4  A    between atoms: C_9  and  C_11
REMARK    5  A    between atoms: C_11  and  C_12
REMARK    6  A    between atoms: C_12  and  C_13
REMARK    7  A    between atoms: C_13  and  O_14
REMARK    8  A    between atoms: O_14  and  C_15
REMARK                            x       y       z     vdW  Elec       q    Type
REMARK                         _______ _______ _______ _____ _____    ______ ____
ROOT
ATOM      1  N   UNL     1       5.791   6.203  17.581  0.00  0.00    +0.000 N 
ATOM      2  C   UNL     1       7.057   6.511  17.140  0.00  0.00    +0.000 C 
ATOM      3  O   UNL     1       7.496   6.142  16.056  0.00  0.00    +0.000 OA
ATOM      4  H   UNL     1       5.565   6.313  18.562  0.00  0.00    +0.000 HD
ENDROOT
BRANCH   1   5
ATOM      5  C   UNL     1       4.871   5.414  16.775  0.00  0.00    +0.000 C 
BRANCH   5  11
ATOM      6  C   UNL     1       1.871   4.540  20.024  0.00  0.00    +0.000 C 
ATOM      7  N   UNL     1       3.270   4.117  20.043  0.00  0.00    +0.000 NA
ATOM      8  C   UNL     1       3.420   2.693  19.684  0.00  0.00    +0.000 C 
ATOM      9  C   UNL     1       3.229   2.401  18.185  0.00  0.00    +0.000 C 
ATOM     10  O   UNL     1       4.101   3.203  17.375  0.00  0.00    +0.000 OA
ATOM     11  C   UNL     1       3.877   4.610  17.625  0.00  0.00    +0.000 C 
ATOM     12  C   UNL     1       4.098   4.927  19.122  0.00  0.00    +0.000 C 
ENDBRANCH   5  11
ENDBRANCH   1   5
BRANCH   2  13
ATOM     13  C   UNL     1       7.859   7.344  18.123  0.00  0.00    +0.000 C 
BRANCH  13  14
ATOM     14  C   UNL     1       7.940   8.812  17.707  0.00  0.00    +0.000 C 
BRANCH  14  15
ATOM     15  C   UNL     1       8.793   9.628  18.679  0.00  0.00    +0.000 C 
BRANCH  15  16
ATOM     16  O   UNL     1       9.572  10.569  17.940  0.00  0.00    +0.000 OA
BRANCH  16  17
ATOM     17  C   UNL     1       9.412  11.891  18.277  0.00  0.00    +0.000 A 
ATOM     18  C   UNL     1      10.275  12.340  19.279  0.00  0.00    +0.000 A 
ATOM     19  C   UNL     1      10.218  13.664  19.733  0.00  0.00    +0.000 A 
ATOM     20  C   UNL     1       9.294  14.550  19.186  0.00  0.00    +0.000 A 
ATOM     21  C   UNL     1       8.429  14.114  18.183  0.00  0.00    +0.000 A 
ATOM     22  C   UNL     1       8.491  12.793  17.735  0.00  0.00    +0.000 A 
ATOM     23  F   UNL     1       7.626  12.436  16.775  0.00  0.00    +0.000 F 
ENDBRANCH  16  17
ENDBRANCH  15  16
ENDBRANCH  14  15
ENDBRANCH  13  14
ENDBRANCH   2  13
TORSDOF 7
ENDMDL
MODEL 6
REMARK VINA RESULT:      -6.9      1.583      2.162
REMARK  Name = 
REMARK  8 active torsions:
REMARK  status: ('A' for Active; 'I' for Inactive)
REMARK    1  A    between atoms: C_1  and  N_2
REMARK    2  A    between atoms: C_6  and  C_7
REMARK    3  A    between atoms: C_7  and  N_8
REMARK    4  A    between atoms: C_9  and  C_11
REMARK    5  A    between atoms: C_11  and  C_12
REMARK    6  A    between atoms: C_12  and  C_13
REMARK    7  A    between atoms: C_13  and  O_14
REMARK    8  A    between atoms: O_14  and  C_15
REMARK                            x       y       z     vdW  Elec       q    Type
REMARK                         _______ _______ _______ _____ _____    ______ ____
ROOT
ATOM      1  N   UNL     1       5.201   5.663  16.719  0.00  0.00    +0.000 N 
ATOM      2  C   UNL     1       6.502   6.046  16.948  0.00  0.00    +0.000 C 
ATOM      3  O   UNL     1       7.448   5.268  16.895  0.00  0.00    +0.000 OA
ATOM      4  H   UNL     1       4.445   6.270  17.012  0.00  0.00    +0.000 HD
ENDROOT
BRANCH   1   5
ATOM      5  C   UNL     1       4.856   4.290  16.385  0.00  0.00    +0.000 C 
BRANCH   5  11
ATOM      6  C   UNL     1       1.221   2.722  18.542  0.00  0.00    +0.000 C 
ATOM      7  N   UNL     1       1.953   3.933  18.909  0.00  0.00    +0.000 NA
ATOM      8  C   UNL     1       2.839   3.709  20.069  0.00  0.00    +0.000 C 
ATOM      9  C   UNL     1       4.106   2.900  19.743  0.00  0.00    +0.000 C 
ATOM     10  O   UNL     1       4.849   3.492  18.667  0.00  0.00    +0.000 OA
ATOM     11  C   UNL     1       4.029   3.602  17.481  0.00  0.00    +0.000 C 
ATOM     12  C   UNL     1       2.766   4.442  17.784  0.00  0.00    +0.000 C 
ENDBRANCH   5  11
ENDBRANCH   1   5
BRANCH   2  13
ATOM     13  C   UNL     1       6.655   7.520  17.278  0.00  0.00    +0.000 C 
BRANCH  13  14
ATOM     14  C   UNL     1       8.090   7.882  17.658  0.00  0.00    +0.000 C 
BRANCH  14  15
ATOM     15  C   UNL     1       8.202   9.336  18.120  0.00  0.00    +0.000 C 
BRANCH  15  16
ATOM     16  O   UNL     1       9.158   9.418  19.177  0.00  0.00    +0.000 OA
BRANCH  16  17
ATOM     17  C   UNL     1       9.649  10.669  19.457  0.00  0.00    +0.000 A 
ATOM     18  C   UNL     1       9.376  11.122  20.750  0.00  0.00    +0.000 A 
ATOM     19  C   UNL     1       9.807  12.386  21.172  0.00  0.00    +0.000 A 
ATOM     20  C   UNL     1      10.517  13.208  20.302  0.00  0.00    +0.000 A 
ATOM     21  C   UNL     1      10.799  12.766  19.010  0.00  0.00    +0.000 A 
ATOM     22  C   UNL     1      10.367  11.505  18.595  0.00  0.00    +0.000 A 
ATOM     23  F   UNL     1      10.664  11.144  17.339  0.00  0.00    +0.000 F 
ENDBRANCH  16  17
ENDBRANCH  15  16
ENDBRANCH  14  15
ENDBRANCH  13  14
ENDBRANCH   2  13
TORSDOF 7
ENDMDL
MODEL 7
REMARK VINA RESULT:      -6.9      4.591      7.159
REMARK  Name = 
REMARK  8 active torsions:
REMARK  status: ('A' for Active; 'I' for Inactive)
REMARK    1  A    between atoms: C_1  and  N_2
REMARK    2  A    between atoms: C_6  and  C_7
REMARK    3  A    between atoms: C_7  and  N_8
REMARK    4  A    between atoms: C_9  and  C_11
REMARK    5  A    between atoms: C_11  and  C_12
REMARK    6  A    between atoms: C_12  and  C_13
REMARK    7  A    between atoms: C_13  and  O_14
REMARK    8  A    between atoms: O_14  and  C_15
REMARK                            x       y       z     vdW  Elec       q    Type
REMARK                         _______ _______ _______ _____ _____    ______ ____
ROOT
ATOM      1  N   UNL     1       3.020   3.771  18.625  0.00  0.00    +0.000 N 
ATOM      2  C   UNL     1       3.186   3.025  19.768  0.00  0.00    +0.000 C 
ATOM      3  O   UNL     1       3.994   2.106  19.856  0.00  0.00    +0.000 OA
ATOM      4  H   UNL     1       2.188   4.340  18.519  0.00  0.00    +0.000 HD
ENDROOT
BRANCH   1   5
ATOM      5  C   UNL     1       3.809   3.523  17.428  0.00  0.00    +0.000 C 
BRANCH   5  11
ATOM      6  C   UNL     1       7.365   5.660  19.190  0.00  0.00    +0.000 C 
ATOM      7  N   UNL     1       6.514   6.191  18.126  0.00  0.00    +0.000 NA
ATOM      8  C   UNL     1       7.147   6.060  16.799  0.00  0.00    +0.000 C 
ATOM      9  C   UNL     1       7.148   4.624  16.244  0.00  0.00    +0.000 C 
ATOM     10  O   UNL     1       5.825   4.069  16.212  0.00  0.00    +0.000 OA
ATOM     11  C   UNL     1       5.238   4.075  17.533  0.00  0.00    +0.000 C 
ATOM     12  C   UNL     1       5.198   5.516  18.092  0.00  0.00    +0.000 C 
ENDBRANCH   5  11
ENDBRANCH   1   5
BRANCH   2  13
ATOM     13  C   UNL     1       2.273   3.440  20.907  0.00  0.00    +0.000 C 
BRANCH  13  14
ATOM     14  C   UNL     1       1.237   4.476  20.470  0.00  0.00    +0.000 C 
BRANCH  14  15
ATOM     15  C   UNL     1       1.631   5.887  20.908  0.00  0.00    +0.000 C 
BRANCH  15  16
ATOM     16  O   UNL     1       2.414   6.494  19.879  0.00  0.00    +0.000 OA
BRANCH  16  17
ATOM     17  C   UNL     1       2.020   7.744  19.471  0.00  0.00    +0.000 A 
ATOM     18  C   UNL     1       1.281   8.455  20.419  0.00  0.00    +0.000 A 
ATOM     19  C   UNL     1       0.803   9.741  20.137  0.00  0.00    +0.000 A 
ATOM     20  C   UNL     1       1.061  10.326  18.900  0.00  0.00    +0.000 A 
ATOM     21  C   UNL     1       1.800   9.627  17.947  0.00  0.00    +0.000 A 
ATOM     22  C   UNL     1       2.274   8.345  18.234  0.00  0.00    +0.000 A 
ATOM     23  F   UNL     1       2.970   7.725  17.271  0.00  0.00    +0.000 F 
ENDBRANCH  16  17
ENDBRANCH  15  16
ENDBRANCH  14  15
ENDBRANCH  13  14
ENDBRANCH   2  13
TORSDOF 7
ENDMDL
MODEL 8
REMARK VINA RESULT:      -6.9      1.425      1.884
REMARK  Name = 
REMARK  8 active torsions:
REMARK  status: ('A' for Active; 'I' for Inactive)
REMARK    1  A    between atoms: C_1  and  N_2
REMARK    2  A    between atoms: C_6  and  C_7
REMARK    3  A    between atoms: C_7  and  N_8
REMARK    4  A    between atoms: C_9  and  C_11
REMARK    5  A    between atoms: C_11  and  C_12
REMARK    6  A    between atoms: C_12  and  C_13
REMARK    7  A    between atoms: C_13  and  O_14
REMARK    8  A    between atoms: O_14  and  C_15
REMARK                            x       y       z     vdW  Elec       q    Type
REMARK                         _______ _______ _______ _____ _____    ______ ____
ROOT
ATOM      1  N   UNL     1       6.145   5.813  18.062  0.00  0.00    +0.000 N 
ATOM      2  C   UNL     1       6.929   6.601  17.252  0.00  0.00    +0.000 C 
ATOM      3  O   UNL     1       7.544   6.165  16.285  0.00  0.00    +0.000 OA
ATOM      4  H   UNL     1       5.865   6.159  18.972  0.00  0.00    +0.000 HD
ENDROOT
BRANCH   1   5
ATOM      5  C   UNL     1       5.984   4.388  17.817  0.00  0.00    +0.000 C 
BRANCH   5  11
ATOM      6  C   UNL     1       1.530   3.913  18.322  0.00  0.00    +0.000 C 
ATOM      7  N   UNL     1       2.409   4.603  19.264  0.00  0.00    +0.000 NA
ATOM      8  C   UNL     1       2.714   3.768  20.443  0.00  0.00    +0.000 C 
ATOM      9  C   UNL     1       3.711   2.629  20.163  0.00  0.00    +0.000 C 
ATOM     10  O   UNL     1       4.929   3.123  19.585  0.00  0.00    +0.000 OA
ATOM     11  C   UNL     1       4.657   3.838  18.359  0.00  0.00    +0.000 C 
ATOM     12  C   UNL     1       3.682   5.008  18.629  0.00  0.00    +0.000 C 
ENDBRANCH   5  11
ENDBRANCH   1   5
BRANCH   2  13
ATOM     13  C   UNL     1       6.966   8.060  17.672  0.00  0.00    +0.000 C 
BRANCH  13  14
ATOM     14  C   UNL     1       8.393   8.571  17.866  0.00  0.00    +0.000 C 
BRANCH  14  15
ATOM     15  C   UNL     1       8.412  10.018  18.360  0.00  0.00    +0.000 C 
BRANCH  15  16
ATOM     16  O   UNL     1       9.458  10.171  19.320  0.00  0.00    +0.000 OA
BRANCH  16  17
ATOM     17  C   UNL     1      10.296  11.243  19.140  0.00  0.00    +0.000 A 
ATOM     18  C   UNL     1      10.671  11.469  17.813  0.00  0.00    +0.000 A 
ATOM     19  C   UNL     1      11.531  12.523  17.482  0.00  0.00    +0.000 A 
ATOM     20  C   UNL     1      12.025  13.361  18.478  0.00  0.00    +0.000 A 
ATOM     21  C   UNL     1      11.656  13.148  19.805  0.00  0.00    +0.000 A 
ATOM     22  C   UNL     1      10.797  12.096  20.130  0.00  0.00    +0.000 A 
ATOM     23  F   UNL     1      10.489  11.940  21.425  0.00  0.00    +0.000 F 
ENDBRANCH  16  17
ENDBRANCH  15  16
ENDBRANCH  14  15
ENDBRANCH  13  14
ENDBRANCH   2  13
TORSDOF 7
ENDMDL
MODEL 9
REMARK VINA RESULT:      -6.9      4.412      6.379
REMARK  Name = 
REMARK  8 active torsions:
REMARK  status: ('A' for Active; 'I' for Inactive)
REMARK    1  A    between atoms: C_1  and  N_2
REMARK    2  A    between atoms: C_6  and  C_7
REMARK    3  A    between atoms: C_7  and  N_8
REMARK    4  A    between atoms: C_9  and  C_11
REMARK    5  A    between atoms: C_11  and  C_12
REMARK    6  A    between atoms: C_12  and  C_13
REMARK    7  A    between atoms: C_13  and  O_14
REMARK    8  A    between atoms: O_14  and  C_15
REMARK                            x       y       z     vdW  Elec       q    Type
REMARK                         _______ _______ _______ _____ _____    ______ ____
ROOT
ATOM      1  N   UNL     1       4.712   6.125  18.956  0.00  0.00    +0.000 N 
ATOM      2  C   UNL     1       5.493   6.487  17.885  0.00  0.00    +0.000 C 
ATOM      3  O   UNL     1       5.030   6.894  16.824  0.00  0.00    +0.000 OA
ATOM      4  H   UNL     1       5.116   5.572  19.703  0.00  0.00    +0.000 HD
ENDROOT
BRANCH   1   5
ATOM      5  C   UNL     1       3.260   6.208  18.906  0.00  0.00    +0.000 C 
BRANCH   5  11
ATOM      6  C   UNL     1       2.095   2.640  21.404  0.00  0.00    +0.000 C 
ATOM      7  N   UNL     1       3.065   2.613  20.310  0.00  0.00    +0.000 NA
ATOM      8  C   UNL     1       2.488   2.042  19.077  0.00  0.00    +0.000 C 
ATOM      9  C   UNL     1       1.512   2.983  18.347  0.00  0.00    +0.000 C 
ATOM     10  O   UNL     1       2.117   4.253  18.061  0.00  0.00    +0.000 OA
ATOM     11  C   UNL     1       2.576   4.884  19.278  0.00  0.00    +0.000 C 
ATOM     12  C   UNL     1       3.584   3.965  20.007  0.00  0.00    +0.000 C 
ENDBRANCH   5  11
ENDBRANCH   1   5
BRANCH   2  13
ATOM     13  C   UNL     1       6.982   6.331  18.135  0.00  0.00    +0.000 C 
BRANCH  13  14
ATOM     14  C   UNL     1       7.477   4.918  17.829  0.00  0.00    +0.000 C 
BRANCH  14  15
ATOM     15  C   UNL     1       6.920   4.400  16.502  0.00  0.00    +0.000 C 
BRANCH  15  16
ATOM     16  O   UNL     1       7.453   5.185  15.434  0.00  0.00    +0.000 OA
BRANCH  16  17
ATOM     17  C   UNL     1       7.152   4.766  14.162  0.00  0.00    +0.000 A 
ATOM     18  C   UNL     1       6.058   3.899  14.082  0.00  0.00    +0.000 A 
ATOM     19  C   UNL     1       5.642   3.383  12.849  0.00  0.00    +0.000 A 
ATOM     20  C   UNL     1       6.319   3.730  11.683  0.00  0.00    +0.000 A 
ATOM     21  C   UNL     1       7.409   4.596  11.749  0.00  0.00    +0.000 A 
ATOM     22  C   UNL     1       7.819   5.108  12.981  0.00  0.00    +0.000 A 
ATOM     23  F   UNL     1       8.879   5.929  12.977  0.00  0.00    +0.000 F 
ENDBRANCH  16  17
ENDBRANCH  15  16
ENDBRANCH  14  15
ENDBRANCH  13  14
ENDBRANCH   2  13
TORSDOF 7
ENDMDL
