MODEL 1
REMARK VINA RESULT:      -8.7      0.000      0.000
REMARK  Name = 
REMARK  4 active torsions:
REMARK  status: ('A' for Active; 'I' for Inactive)
REMARK    1  A    between atoms: C_4  and  C_5
REMARK    2  A    between atoms: C_5  and  C_6
REMARK    3  A    between atoms: C_11  and  C_12
REMARK    4  A    between atoms: N_23  and  C_24
REMARK                            x       y       z     vdW  Elec       q    Type
REMARK                         _______ _______ _______ _____ _____    ______ ____
ROOT
ATOM      1  O   UNL     1       6.471   5.059  20.207  0.00  0.00    +0.000 OA
ATOM      2  C   UNL     1       5.907   5.158  19.124  0.00  0.00    +0.000 A 
ATOM      3  N   UNL     1       4.554   5.477  19.012  0.00  0.00    +0.000 N 
ATOM      4  C   UNL     1       3.861   5.600  17.809  0.00  0.00    +0.000 A 
ATOM      5  C   UNL     1       4.470   5.401  16.621  0.00  0.00    +0.000 A 
ATOM      6  C   UNL     1       5.834   5.069  16.687  0.00  0.00    +0.000 A 
ATOM      7  C   UNL     1       6.557   4.954  17.852  0.00  0.00    +0.000 A 
ATOM      8  C   UNL     1       7.855   4.634  17.442  0.00  0.00    +0.000 A 
ATOM      9  N   UNL     1       7.951   4.539  16.107  0.00  0.00    +0.000 NA
ATOM     10  N   UNL     1       6.698   4.806  15.657  0.00  0.00    +0.000 N 
ATOM     11  H   UNL     1       4.074   5.621  19.889  0.00  0.00    +0.000 HD
ENDROOT
BRANCH  10  12
ATOM     12  C   UNL     1       6.442   4.725  14.222  0.00  0.00    +0.000 C 
ATOM     13  C   UNL     1       5.797   3.397  13.805  0.00  0.00    +0.000 C 
ATOM     14  C   UNL     1       5.706   3.285  12.293  0.00  0.00    +0.000 C 
ATOM     15  O   UNL     1       6.982   3.515  11.699  0.00  0.00    +0.000 OA
ATOM     16  C   UNL     1       7.442   4.846  11.922  0.00  0.00    +0.000 C 
ATOM     17  C   UNL     1       7.693   5.068  13.403  0.00  0.00    +0.000 C 
ENDBRANCH  10  12
BRANCH   4  18
ATOM     18  C   UNL     1       2.400   5.997  17.880  0.00  0.00    +0.000 C 
BRANCH  18  19
ATOM     19  C   UNL     1       1.989   6.947  18.998  0.00  0.00    +0.000 A 
ATOM     20  C   UNL     1       1.906   8.336  18.729  0.00  0.00    +0.000 A 
ATOM     21  C   UNL     1       1.484   9.246  19.692  0.00  0.00    +0.000 A 
ATOM     22  C   UNL     1       1.169   8.798  20.962  0.00  0.00    +0.000 A 
ATOM     23  C   UNL     1       1.283   7.440  21.266  0.00  0.00    +0.000 A 
ATOM     24  C   UNL     1       1.673   6.473  20.305  0.00  0.00    +0.000 A 
BRANCH  24  25
ATOM     25  C   UNL     1       1.646   5.038  20.699  0.00  0.00    +0.000 A 
ATOM     26  C   UNL     1       0.812   4.114  20.078  0.00  0.00    +0.000 A 
ATOM     27  N   UNL     1       0.787   2.783  20.326  0.00  0.00    +0.000 NA
ATOM     28  C   UNL     1       1.650   2.353  21.252  0.00  0.00    +0.000 A 
ATOM     29  N   UNL     1       2.471   3.128  21.968  0.00  0.00    +0.000 NA
ATOM     30  C   UNL     1       2.422   4.453  21.687  0.00  0.00    +0.000 A 
ENDBRANCH  24  25
ENDBRANCH  18  19
ENDBRANCH   4  18
TORSDOF 4
ENDMDL
MODEL 2
REMARK VINA RESULT:      -8.4      3.282      8.102
REMARK  Name = 
REMARK  4 active torsions:
REMARK  status: ('A' for Active; 'I' for Inactive)
REMARK    1  A    between atoms: C_4  and  C_5
REMARK    2  A    between atoms: C_5  and  C_6
REMARK    3  A    between atoms: C_11  and  C_12
REMARK    4  A    between atoms: N_23  and  C_24
REMARK                            x       y       z     vdW  Elec       q    Type
REMARK                         _______ _______ _______ _____ _____    ______ ____
ROOT
ATOM      1  O   UNL     1       3.559   8.119  16.571  0.00  0.00    +0.000 OA
ATOM      2  C   UNL     1       2.996   7.978  17.649  0.00  0.00    +0.000 A 
ATOM      3  N   UNL     1       3.134   6.823  18.420  0.00  0.00    +0.000 N 
ATOM      4  C   UNL     1       2.515   6.607  19.650  0.00  0.00    +0.000 A 
ATOM      5  C   UNL     1       1.698   7.530  20.200  0.00  0.00    +0.000 A 
ATOM      6  C   UNL     1       1.523   8.707  19.452  0.00  0.00    +0.000 A 
ATOM      7  C   UNL     1       2.127   8.966  18.244  0.00  0.00    +0.000 A 
ATOM      8  C   UNL     1       1.687  10.243  17.885  0.00  0.00    +0.000 A 
ATOM      9  N   UNL     1       0.848  10.760  18.796  0.00  0.00    +0.000 NA
ATOM     10  N   UNL     1       0.755   9.801  19.753  0.00  0.00    +0.000 N 
ATOM     11  H   UNL     1       3.734   6.114  18.024  0.00  0.00    +0.000 HD
ENDROOT
BRANCH  10  12
ATOM     12  C   UNL     1      -0.145  10.028  20.881  0.00  0.00    +0.000 C 
ATOM     13  C   UNL     1      -0.681  11.465  20.934  0.00  0.00    +0.000 C 
ATOM     14  C   UNL     1      -1.470  11.705  22.210  0.00  0.00    +0.000 C 
ATOM     15  O   UNL     1      -0.698  11.338  23.350  0.00  0.00    +0.000 OA
ATOM     16  C   UNL     1      -0.414   9.941  23.375  0.00  0.00    +0.000 C 
ATOM     17  C   UNL     1       0.480   9.571  22.205  0.00  0.00    +0.000 C 
ENDBRANCH  10  12
BRANCH   4  18
ATOM     18  C   UNL     1       2.818   5.306  20.366  0.00  0.00    +0.000 C 
BRANCH  18  19
ATOM     19  C   UNL     1       2.337   4.019  19.708  0.00  0.00    +0.000 A 
ATOM     20  C   UNL     1       1.045   3.526  20.014  0.00  0.00    +0.000 A 
ATOM     21  C   UNL     1       0.529   2.387  19.406  0.00  0.00    +0.000 A 
ATOM     22  C   UNL     1       1.306   1.688  18.501  0.00  0.00    +0.000 A 
ATOM     23  C   UNL     1       2.600   2.127  18.212  0.00  0.00    +0.000 A 
ATOM     24  C   UNL     1       3.151   3.303  18.781  0.00  0.00    +0.000 A 
BRANCH  24  25
ATOM     25  C   UNL     1       4.492   3.749  18.315  0.00  0.00    +0.000 A 
ATOM     26  C   UNL     1       4.804   3.879  16.966  0.00  0.00    +0.000 A 
ATOM     27  N   UNL     1       5.971   4.352  16.469  0.00  0.00    +0.000 NA
ATOM     28  C   UNL     1       6.880   4.716  17.378  0.00  0.00    +0.000 A 
ATOM     29  N   UNL     1       6.743   4.598  18.703  0.00  0.00    +0.000 NA
ATOM     30  C   UNL     1       5.561   4.091  19.129  0.00  0.00    +0.000 A 
ENDBRANCH  24  25
ENDBRANCH  18  19
ENDBRANCH   4  18
TORSDOF 4
ENDMDL
MODEL 3
REMARK VINA RESULT:      -8.4      3.683      7.515
REMARK  Name = 
REMARK  4 active torsions:
REMARK  status: ('A' for Active; 'I' for Inactive)
REMARK    1  A    between atoms: C_4  and  C_5
REMARK    2  A    between atoms: C_5  and  C_6
REMARK    3  A    between atoms: C_11  and  C_12
REMARK    4  A    between atoms: N_23  and  C_24
REMARK                            x       y       z     vdW  Elec       q    Type
REMARK                         _______ _______ _______ _____ _____    ______ ____
ROOT
ATOM      1  O   UNL     1       1.675   6.017  21.279  0.00  0.00    +0.000 OA
ATOM      2  C   UNL     1       1.841   6.820  20.369  0.00  0.00    +0.000 A 
ATOM      3  N   UNL     1       2.643   6.541  19.262  0.00  0.00    +0.000 N 
ATOM      4  C   UNL     1       2.870   7.416  18.201  0.00  0.00    +0.000 A 
ATOM      5  C   UNL     1       2.319   8.648  18.172  0.00  0.00    +0.000 A 
ATOM      6  C   UNL     1       1.509   8.975  19.274  0.00  0.00    +0.000 A 
ATOM      7  C   UNL     1       1.247   8.135  20.332  0.00  0.00    +0.000 A 
ATOM      8  C   UNL     1       0.393   8.861  21.167  0.00  0.00    +0.000 A 
ATOM      9  N   UNL     1       0.137  10.086  20.683  0.00  0.00    +0.000 NA
ATOM     10  N   UNL     1       0.835  10.142  19.518  0.00  0.00    +0.000 N 
ATOM     11  H   UNL     1       3.074   5.627  19.266  0.00  0.00    +0.000 HD
ENDROOT
BRANCH  10  12
ATOM     12  C   UNL     1       0.818  11.387  18.756  0.00  0.00    +0.000 C 
ATOM     13  C   UNL     1       2.085  12.229  18.961  0.00  0.00    +0.000 C 
ATOM     14  C   UNL     1       1.953  13.586  18.291  0.00  0.00    +0.000 C 
ATOM     15  O   UNL     1       0.757  14.236  18.715  0.00  0.00    +0.000 OA
ATOM     16  C   UNL     1      -0.410  13.530  18.302  0.00  0.00    +0.000 C 
ATOM     17  C   UNL     1      -0.474  12.180  18.995  0.00  0.00    +0.000 C 
ENDBRANCH  10  12
BRANCH   4  18
ATOM     18  C   UNL     1       3.737   6.922  17.061  0.00  0.00    +0.000 C 
BRANCH  18  19
ATOM     19  C   UNL     1       5.127   6.409  17.413  0.00  0.00    +0.000 A 
ATOM     20  C   UNL     1       6.228   7.301  17.363  0.00  0.00    +0.000 A 
ATOM     21  C   UNL     1       7.511   6.906  17.725  0.00  0.00    +0.000 A 
ATOM     22  C   UNL     1       7.737   5.597  18.110  0.00  0.00    +0.000 A 
ATOM     23  C   UNL     1       6.679   4.686  18.128  0.00  0.00    +0.000 A 
ATOM     24  C   UNL     1       5.350   5.055  17.802  0.00  0.00    +0.000 A 
BRANCH  24  25
ATOM     25  C   UNL     1       4.276   4.038  17.969  0.00  0.00    +0.000 A 
ATOM     26  C   UNL     1       4.109   3.320  19.148  0.00  0.00    +0.000 A 
ATOM     27  N   UNL     1       3.113   2.440  19.401  0.00  0.00    +0.000 NA
ATOM     28  C   UNL     1       2.230   2.267  18.412  0.00  0.00    +0.000 A 
ATOM     29  N   UNL     1       2.292   2.845  17.208  0.00  0.00    +0.000 NA
ATOM     30  C   UNL     1       3.331   3.692  17.014  0.00  0.00    +0.000 A 
ENDBRANCH  24  25
ENDBRANCH  18  19
ENDBRANCH   4  18
TORSDOF 4
ENDMDL
MODEL 4
REMARK VINA RESULT:      -8.3      2.997      5.001
REMARK  Name = 
REMARK  4 active torsions:
REMARK  status: ('A' for Active; 'I' for Inactive)
REMARK    1  A    between atoms: C_4  and  C_5
REMARK    2  A    between atoms: C_5  and  C_6
REMARK    3  A    between atoms: C_11  and  C_12
REMARK    4  A    between atoms: N_23  and  C_24
REMARK                            x       y       z     vdW  Elec       q    Type
REMARK                         _______ _______ _______ _____ _____    ______ ____
ROOT
ATOM      1  O   UNL     1       1.752   2.381  22.018  0.00  0.00    +0.000 OA
ATOM      2  C   UNL     1       2.180   3.303  21.335  0.00  0.00    +0.000 A 
ATOM      3  N   UNL     1       1.597   4.571  21.342  0.00  0.00    +0.000 N 
ATOM      4  C   UNL     1       2.039   5.655  20.585  0.00  0.00    +0.000 A 
ATOM      5  C   UNL     1       3.095   5.550  19.752  0.00  0.00    +0.000 A 
ATOM      6  C   UNL     1       3.708   4.285  19.707  0.00  0.00    +0.000 A 
ATOM      7  C   UNL     1       3.314   3.196  20.449  0.00  0.00    +0.000 A 
ATOM      8  C   UNL     1       4.208   2.179  20.103  0.00  0.00    +0.000 A 
ATOM      9  N   UNL     1       5.104   2.587  19.192  0.00  0.00    +0.000 NA
ATOM     10  N   UNL     1       4.781   3.886  18.956  0.00  0.00    +0.000 N 
ATOM     11  H   UNL     1       0.798   4.672  21.952  0.00  0.00    +0.000 HD
ENDROOT
BRANCH  10  12
ATOM     12  C   UNL     1       5.542   4.620  17.950  0.00  0.00    +0.000 C 
ATOM     13  C   UNL     1       6.492   5.659  18.562  0.00  0.00    +0.000 C 
ATOM     14  C   UNL     1       7.133   6.515  17.483  0.00  0.00    +0.000 C 
ATOM     15  O   UNL     1       6.135   7.078  16.635  0.00  0.00    +0.000 OA
ATOM     16  C   UNL     1       5.425   6.078  15.909  0.00  0.00    +0.000 C 
ATOM     17  C   UNL     1       4.630   5.207  16.865  0.00  0.00    +0.000 C 
ENDBRANCH  10  12
BRANCH   4  18
ATOM     18  C   UNL     1       1.307   6.971  20.755  0.00  0.00    +0.000 C 
BRANCH  18  19
ATOM     19  C   UNL     1       1.582   8.060  19.726  0.00  0.00    +0.000 A 
ATOM     20  C   UNL     1       2.222   7.717  18.509  0.00  0.00    +0.000 A 
ATOM     21  C   UNL     1       2.452   8.655  17.509  0.00  0.00    +0.000 A 
ATOM     22  C   UNL     1       2.081   9.971  17.712  0.00  0.00    +0.000 A 
ATOM     23  C   UNL     1       1.486  10.347  18.919  0.00  0.00    +0.000 A 
ATOM     24  C   UNL     1       1.201   9.417  19.950  0.00  0.00    +0.000 A 
BRANCH  24  25
ATOM     25  C   UNL     1       0.457   9.897  21.145  0.00  0.00    +0.000 A 
ATOM     26  C   UNL     1      -0.571  10.830  21.055  0.00  0.00    +0.000 A 
ATOM     27  N   UNL     1      -1.342  11.255  22.083  0.00  0.00    +0.000 NA
ATOM     28  C   UNL     1      -1.068  10.713  23.273  0.00  0.00    +0.000 A 
ATOM     29  N   UNL     1      -0.079   9.848  23.522  0.00  0.00    +0.000 NA
ATOM     30  C   UNL     1       0.671   9.488  22.453  0.00  0.00    +0.000 A 
ENDBRANCH  24  25
ENDBRANCH  18  19
ENDBRANCH   4  18
TORSDOF 4
ENDMDL
MODEL 5
REMARK VINA RESULT:      -8.2      3.030      4.825
REMARK  Name = 
REMARK  4 active torsions:
REMARK  status: ('A' for Active; 'I' for Inactive)
REMARK    1  A    between atoms: C_4  and  C_5
REMARK    2  A    between atoms: C_5  and  C_6
REMARK    3  A    between atoms: C_11  and  C_12
REMARK    4  A    between atoms: N_23  and  C_24
REMARK                            x       y       z     vdW  Elec       q    Type
REMARK                         _______ _______ _______ _____ _____    ______ ____
ROOT
ATOM      1  O   UNL     1       1.765   2.515  21.973  0.00  0.00    +0.000 OA
ATOM      2  C   UNL     1       2.159   3.437  21.270  0.00  0.00    +0.000 A 
ATOM      3  N   UNL     1       1.579   4.706  21.306  0.00  0.00    +0.000 N 
ATOM      4  C   UNL     1       1.984   5.789  20.527  0.00  0.00    +0.000 A 
ATOM      5  C   UNL     1       2.996   5.682  19.641  0.00  0.00    +0.000 A 
ATOM      6  C   UNL     1       3.604   4.416  19.566  0.00  0.00    +0.000 A 
ATOM      7  C   UNL     1       3.246   3.328  20.326  0.00  0.00    +0.000 A 
ATOM      8  C   UNL     1       4.120   2.310  19.936  0.00  0.00    +0.000 A 
ATOM      9  N   UNL     1       4.970   2.716  18.980  0.00  0.00    +0.000 NA
ATOM     10  N   UNL     1       4.637   4.015  18.761  0.00  0.00    +0.000 N 
ATOM     11  H   UNL     1       0.813   4.808  21.955  0.00  0.00    +0.000 HD
ENDROOT
BRANCH  10  12
ATOM     12  C   UNL     1       5.347   4.748  17.717  0.00  0.00    +0.000 C 
ATOM     13  C   UNL     1       5.541   3.925  16.437  0.00  0.00    +0.000 C 
ATOM     14  C   UNL     1       6.429   4.658  15.446  0.00  0.00    +0.000 C 
ATOM     15  O   UNL     1       7.651   5.050  16.066  0.00  0.00    +0.000 OA
ATOM     16  C   UNL     1       7.439   5.998  17.110  0.00  0.00    +0.000 C 
ATOM     17  C   UNL     1       6.653   5.358  18.242  0.00  0.00    +0.000 C 
ENDBRANCH  10  12
BRANCH   4  18
ATOM     18  C   UNL     1       1.264   7.106  20.733  0.00  0.00    +0.000 C 
BRANCH  18  19
ATOM     19  C   UNL     1       1.527   8.212  19.719  0.00  0.00    +0.000 A 
ATOM     20  C   UNL     1       2.174   7.892  18.499  0.00  0.00    +0.000 A 
ATOM     21  C   UNL     1       2.394   8.845  17.512  0.00  0.00    +0.000 A 
ATOM     22  C   UNL     1       2.005  10.155  17.731  0.00  0.00    +0.000 A 
ATOM     23  C   UNL     1       1.403  10.507  18.941  0.00  0.00    +0.000 A 
ATOM     24  C   UNL     1       1.127   9.560  19.959  0.00  0.00    +0.000 A 
BRANCH  24  25
ATOM     25  C   UNL     1       0.375  10.015  21.160  0.00  0.00    +0.000 A 
ATOM     26  C   UNL     1      -0.704  10.889  21.072  0.00  0.00    +0.000 A 
ATOM     27  N   UNL     1      -1.484  11.285  22.105  0.00  0.00    +0.000 NA
ATOM     28  C   UNL     1      -1.163  10.776  23.299  0.00  0.00    +0.000 A 
ATOM     29  N   UNL     1      -0.123   9.971  23.544  0.00  0.00    +0.000 NA
ATOM     30  C   UNL     1       0.630   9.638  22.469  0.00  0.00    +0.000 A 
ENDBRANCH  24  25
ENDBRANCH  18  19
ENDBRANCH   4  18
TORSDOF 4
ENDMDL
MODEL 6
REMARK VINA RESULT:      -8.0      6.050     10.529
REMARK  Name = 
REMARK  4 active torsions:
REMARK  status: ('A' for Active; 'I' for Inactive)
REMARK    1  A    between atoms: C_4  and  C_5
REMARK    2  A    between atoms: C_5  and  C_6
REMARK    3  A    between atoms: C_11  and  C_12
REMARK    4  A    between atoms: N_23  and  C_24
REMARK                            x       y       z     vdW  Elec       q    Type
REMARK                         _______ _______ _______ _____ _____    ______ ____
ROOT
ATOM      1  O   UNL     1      -2.717   9.641  16.386  0.00  0.00    +0.000 OA
ATOM      2  C   UNL     1      -2.140  10.201  17.309  0.00  0.00    +0.000 A 
ATOM      3  N   UNL     1      -0.777  10.028  17.555  0.00  0.00    +0.000 N 
ATOM      4  C   UNL     1      -0.070  10.637  18.590  0.00  0.00    +0.000 A 
ATOM      5  C   UNL     1      -0.678  11.461  19.470  0.00  0.00    +0.000 A 
ATOM      6  C   UNL     1      -2.055  11.657  19.265  0.00  0.00    +0.000 A 
ATOM      7  C   UNL     1      -2.785  11.089  18.247  0.00  0.00    +0.000 A 
ATOM      8  C   UNL     1      -4.084  11.573  18.420  0.00  0.00    +0.000 A 
ATOM      9  N   UNL     1      -4.181  12.384  19.484  0.00  0.00    +0.000 NA
ATOM     10  N   UNL     1      -2.923  12.424  19.996  0.00  0.00    +0.000 N 
ATOM     11  H   UNL     1      -0.302   9.408  16.914  0.00  0.00    +0.000 HD
ENDROOT
BRANCH  10  12
ATOM     12  C   UNL     1      -2.693  13.188  21.218  0.00  0.00    +0.000 C 
ATOM     13  C   UNL     1      -3.166  12.453  22.479  0.00  0.00    +0.000 C 
ATOM     14  C   UNL     1      -3.066  13.349  23.702  0.00  0.00    +0.000 C 
ATOM     15  O   UNL     1      -3.740  14.584  23.471  0.00  0.00    +0.000 OA
ATOM     16  C   UNL     1      -3.122  15.342  22.434  0.00  0.00    +0.000 C 
ATOM     17  C   UNL     1      -3.251  14.613  21.109  0.00  0.00    +0.000 C 
ENDBRANCH  10  12
BRANCH   4  18
ATOM     18  C   UNL     1       1.418  10.365  18.676  0.00  0.00    +0.000 C 
BRANCH  18  19
ATOM     19  C   UNL     1       1.859   8.908  18.732  0.00  0.00    +0.000 A 
ATOM     20  C   UNL     1       2.554   8.352  17.629  0.00  0.00    +0.000 A 
ATOM     21  C   UNL     1       3.029   7.046  17.642  0.00  0.00    +0.000 A 
ATOM     22  C   UNL     1       2.791   6.246  18.744  0.00  0.00    +0.000 A 
ATOM     23  C   UNL     1       2.073   6.754  19.829  0.00  0.00    +0.000 A 
ATOM     24  C   UNL     1       1.602   8.091  19.872  0.00  0.00    +0.000 A 
BRANCH  24  25
ATOM     25  C   UNL     1       0.952   8.568  21.123  0.00  0.00    +0.000 A 
ATOM     26  C   UNL     1       1.678   9.131  22.168  0.00  0.00    +0.000 A 
ATOM     27  N   UNL     1       1.152   9.657  23.299  0.00  0.00    +0.000 NA
ATOM     28  C   UNL     1      -0.181   9.618  23.389  0.00  0.00    +0.000 A 
ATOM     29  N   UNL     1      -1.002   9.061  22.492  0.00  0.00    +0.000 NA
ATOM     30  C   UNL     1      -0.406   8.529  21.399  0.00  0.00    +0.000 A 
ENDBRANCH  24  25
ENDBRANCH  18  19
ENDBRANCH   4  18
TORSDOF 4
ENDMDL
MODEL 7
REMARK VINA RESULT:      -8.0      4.240      8.274
REMARK  Name = 
REMARK  4 active torsions:
REMARK  status: ('A' for Active; 'I' for Inactive)
REMARK    1  A    between atoms: C_4  and  C_5
REMARK    2  A    between atoms: C_5  and  C_6
REMARK    3  A    between atoms: C_11  and  C_12
REMARK    4  A    between atoms: N_23  and  C_24
REMARK                            x       y       z     vdW  Elec       q    Type
REMARK                         _______ _______ _______ _____ _____    ______ ____
ROOT
ATOM      1  O   UNL     1       1.550   9.466  23.243  0.00  0.00    +0.000 OA
ATOM      2  C   UNL     1       1.261   9.353  22.059  0.00  0.00    +0.000 A 
ATOM      3  N   UNL     1       1.945   8.490  21.202  0.00  0.00    +0.000 N 
ATOM      4  C   UNL     1       1.662   8.323  19.847  0.00  0.00    +0.000 A 
ATOM      5  C   UNL     1       0.675   9.017  19.242  0.00  0.00    +0.000 A 
ATOM      6  C   UNL     1      -0.036   9.905  20.068  0.00  0.00    +0.000 A 
ATOM      7  C   UNL     1       0.201  10.088  21.410  0.00  0.00    +0.000 A 
ATOM      8  C   UNL     1      -0.742  11.034  21.819  0.00  0.00    +0.000 A 
ATOM      9  N   UNL     1      -1.521  11.438  20.804  0.00  0.00    +0.000 NA
ATOM     10  N   UNL     1      -1.071  10.736  19.731  0.00  0.00    +0.000 N 
ATOM     11  H   UNL     1       2.695   7.966  21.630  0.00  0.00    +0.000 HD
ENDROOT
BRANCH  10  12
ATOM     12  C   UNL     1      -1.680  10.990  18.429  0.00  0.00    +0.000 C 
ATOM     13  C   UNL     1      -3.109  11.538  18.536  0.00  0.00    +0.000 C 
ATOM     14  C   UNL     1      -3.764  11.626  17.168  0.00  0.00    +0.000 C 
ATOM     15  O   UNL     1      -3.678  10.372  16.494  0.00  0.00    +0.000 OA
ATOM     16  C   UNL     1      -2.329  10.009  16.211  0.00  0.00    +0.000 C 
ATOM     17  C   UNL     1      -1.573   9.770  17.506  0.00  0.00    +0.000 C 
ENDBRANCH  10  12
BRANCH   4  18
ATOM     18  C   UNL     1       2.484   7.306  19.081  0.00  0.00    +0.000 C 
BRANCH  18  19
ATOM     19  C   UNL     1       2.479   5.873  19.596  0.00  0.00    +0.000 A 
ATOM     20  C   UNL     1       1.348   5.397  20.307  0.00  0.00    +0.000 A 
ATOM     21  C   UNL     1       1.261   4.084  20.755  0.00  0.00    +0.000 A 
ATOM     22  C   UNL     1       2.317   3.219  20.538  0.00  0.00    +0.000 A 
ATOM     23  C   UNL     1       3.461   3.672  19.877  0.00  0.00    +0.000 A 
ATOM     24  C   UNL     1       3.577   4.991  19.371  0.00  0.00    +0.000 A 
BRANCH  24  25
ATOM     25  C   UNL     1       4.788   5.338  18.578  0.00  0.00    +0.000 A 
ATOM     26  C   UNL     1       6.044   5.468  19.159  0.00  0.00    +0.000 A 
ATOM     27  N   UNL     1       7.200   5.703  18.495  0.00  0.00    +0.000 NA
ATOM     28  C   UNL     1       7.090   5.814  17.167  0.00  0.00    +0.000 A 
ATOM     29  N   UNL     1       5.946   5.766  16.477  0.00  0.00    +0.000 NA
ATOM     30  C   UNL     1       4.825   5.557  17.209  0.00  0.00    +0.000 A 
ENDBRANCH  24  25
ENDBRANCH  18  19
ENDBRANCH   4  18
TORSDOF 4
ENDMDL
MODEL 8
REMARK VINA RESULT:      -7.9      3.710      6.061
REMARK  Name = 
REMARK  4 active torsions:
REMARK  status: ('A' for Active; 'I' for Inactive)
REMARK    1  A    between atoms: C_4  and  C_5
REMARK    2  A    between atoms: C_5  and  C_6
REMARK    3  A    between atoms: C_11  and  C_12
REMARK    4  A    between atoms: N_23  and  C_24
REMARK                            x       y       z     vdW  Elec       q    Type
REMARK                         _______ _______ _______ _____ _____    ______ ____
ROOT
ATOM      1  O   UNL     1       1.092   6.939  21.449  0.00  0.00    +0.000 OA
ATOM      2  C   UNL     1       1.659   7.195  20.393  0.00  0.00    +0.000 A 
ATOM      3  N   UNL     1       1.447   8.389  19.702  0.00  0.00    +0.000 N 
ATOM      4  C   UNL     1       2.060   8.731  18.498  0.00  0.00    +0.000 A 
ATOM      5  C   UNL     1       2.928   7.898  17.886  0.00  0.00    +0.000 A 
ATOM      6  C   UNL     1       3.164   6.679  18.545  0.00  0.00    +0.000 A 
ATOM      7  C   UNL     1       2.593   6.310  19.740  0.00  0.00    +0.000 A 
ATOM      8  C   UNL     1       3.125   5.049  20.022  0.00  0.00    +0.000 A 
ATOM      9  N   UNL     1       3.969   4.634  19.065  0.00  0.00    +0.000 NA
ATOM     10  N   UNL     1       3.980   5.648  18.160  0.00  0.00    +0.000 N 
ATOM     11  H   UNL     1       0.793   9.025  20.136  0.00  0.00    +0.000 HD
ENDROOT
BRANCH  10  12
ATOM     12  C   UNL     1       4.770   5.486  16.943  0.00  0.00    +0.000 C 
ATOM     13  C   UNL     1       4.738   4.052  16.398  0.00  0.00    +0.000 C 
ATOM     14  C   UNL     1       5.704   3.887  15.238  0.00  0.00    +0.000 C 
ATOM     15  O   UNL     1       7.007   4.331  15.608  0.00  0.00    +0.000 OA
ATOM     16  C   UNL     1       7.035   5.729  15.888  0.00  0.00    +0.000 C 
ATOM     17  C   UNL     1       6.194   6.030  17.116  0.00  0.00    +0.000 C 
ENDBRANCH  10  12
BRANCH   4  18
ATOM     18  C   UNL     1       1.740  10.092  17.912  0.00  0.00    +0.000 C 
BRANCH  18  19
ATOM     19  C   UNL     1       0.336  10.637  18.140  0.00  0.00    +0.000 A 
ATOM     20  C   UNL     1      -0.780   9.869  17.725  0.00  0.00    +0.000 A 
ATOM     21  C   UNL     1      -2.086  10.288  17.952  0.00  0.00    +0.000 A 
ATOM     22  C   UNL     1      -2.313  11.504  18.569  0.00  0.00    +0.000 A 
ATOM     23  C   UNL     1      -1.232  12.302  18.951  0.00  0.00    +0.000 A 
ATOM     24  C   UNL     1       0.115  11.897  18.771  0.00  0.00    +0.000 A 
BRANCH  24  25
ATOM     25  C   UNL     1       1.191  12.766  19.321  0.00  0.00    +0.000 A 
ATOM     26  C   UNL     1       1.592  12.698  20.652  0.00  0.00    +0.000 A 
ATOM     27  N   UNL     1       2.611  13.396  21.204  0.00  0.00    +0.000 NA
ATOM     28  C   UNL     1       3.268  14.212  20.374  0.00  0.00    +0.000 A 
ATOM     29  N   UNL     1       2.963  14.421  19.089  0.00  0.00    +0.000 NA
ATOM     30  C   UNL     1       1.914  13.711  18.610  0.00  0.00    +0.000 A 
ENDBRANCH  24  25
ENDBRANCH  18  19
ENDBRANCH   4  18
TORSDOF 4
ENDMDL
MODEL 9
REMARK VINA RESULT:      -7.9      5.643     10.060
REMARK  Name = 
REMARK  4 active torsions:
REMARK  status: ('A' for Active; 'I' for Inactive)
REMARK    1  A    between atoms: C_4  and  C_5
REMARK    2  A    between atoms: C_5  and  C_6
REMARK    3  A    between atoms: C_11  and  C_12
REMARK    4  A    between atoms: N_23  and  C_24
REMARK                            x       y       z     vdW  Elec       q    Type
REMARK                         _______ _______ _______ _____ _____    ______ ____
ROOT
ATOM      1  O   UNL     1      -2.712   9.459  16.646  0.00  0.00    +0.000 OA
ATOM      2  C   UNL     1      -2.050  10.082  17.466  0.00  0.00    +0.000 A 
ATOM      3  N   UNL     1      -0.679   9.880  17.629  0.00  0.00    +0.000 N 
ATOM      4  C   UNL     1       0.123  10.556  18.547  0.00  0.00    +0.000 A 
ATOM      5  C   UNL     1      -0.390  11.483  19.383  0.00  0.00    +0.000 A 
ATOM      6  C   UNL     1      -1.772  11.713  19.259  0.00  0.00    +0.000 A 
ATOM      7  C   UNL     1      -2.594  11.079  18.357  0.00  0.00    +0.000 A 
ATOM      8  C   UNL     1      -3.861  11.628  18.574  0.00  0.00    +0.000 A 
ATOM      9  N   UNL     1      -3.851  12.540  19.558  0.00  0.00    +0.000 NA
ATOM     10  N   UNL     1      -2.558  12.579  19.972  0.00  0.00    +0.000 N 
ATOM     11  H   UNL     1      -0.273   9.184  17.020  0.00  0.00    +0.000 HD
ENDROOT
BRANCH  10  12
ATOM     12  C   UNL     1      -2.212  13.447  21.094  0.00  0.00    +0.000 C 
ATOM     13  C   UNL     1      -1.139  14.483  20.736  0.00  0.00    +0.000 C 
ATOM     14  C   UNL     1      -0.687  15.248  21.968  0.00  0.00    +0.000 C 
ATOM     15  O   UNL     1      -0.291  14.344  22.998  0.00  0.00    +0.000 OA
ATOM     16  C   UNL     1      -1.383  13.553  23.461  0.00  0.00    +0.000 C 
ATOM     17  C   UNL     1      -1.870  12.638  22.351  0.00  0.00    +0.000 C 
ENDBRANCH  10  12
BRANCH   4  18
ATOM     18  C   UNL     1       1.604  10.236  18.552  0.00  0.00    +0.000 C 
BRANCH  18  19
ATOM     19  C   UNL     1       2.001   8.773  18.701  0.00  0.00    +0.000 A 
ATOM     20  C   UNL     1       2.703   8.136  17.648  0.00  0.00    +0.000 A 
ATOM     21  C   UNL     1       3.140   6.820  17.746  0.00  0.00    +0.000 A 
ATOM     22  C   UNL     1       2.854   6.090  18.885  0.00  0.00    +0.000 A 
ATOM     23  C   UNL     1       2.127   6.680  19.922  0.00  0.00    +0.000 A 
ATOM     24  C   UNL     1       1.695   8.029  19.879  0.00  0.00    +0.000 A 
BRANCH  24  25
ATOM     25  C   UNL     1       1.032   8.596  21.085  0.00  0.00    +0.000 A 
ATOM     26  C   UNL     1      -0.317   8.393  21.355  0.00  0.00    +0.000 A 
ATOM     27  N   UNL     1      -0.970   8.808  22.466  0.00  0.00    +0.000 NA
ATOM     28  C   UNL     1      -0.226   9.467  23.360  0.00  0.00    +0.000 A 
ATOM     29  N   UNL     1       1.065   9.783  23.213  0.00  0.00    +0.000 NA
ATOM     30  C   UNL     1       1.647   9.360  22.065  0.00  0.00    +0.000 A 
ENDBRANCH  24  25
ENDBRANCH  18  19
ENDBRANCH   4  18
TORSDOF 4
ENDMDL
