MODEL 1
REMARK VINA RESULT:      -8.6      0.000      0.000
REMARK  Name = 
REMARK  6 active torsions:
REMARK  status: ('A' for Active; 'I' for Inactive)
REMARK    1  A    between atoms: C_1  and  N_2
REMARK    2  A    between atoms: N_2  and  C_3
REMARK    3  A    between atoms: N_2  and  C_4
REMARK    4  A    between atoms: C_4  and  C_5
REMARK    5  A    between atoms: C_9  and  N_10
REMARK    6  A    between atoms: N_10  and  C_11
REMARK                            x       y       z     vdW  Elec       q    Type
REMARK                         _______ _______ _______ _____ _____    ______ ____
ROOT
ATOM      1  C   UNL     1       3.476   5.280  19.119  0.00  0.00    +0.000 A 
ATOM      2  C   UNL     1       4.034   5.406  17.804  0.00  0.00    +0.000 A 
ATOM      3  C   UNL     1       4.355   6.542  17.032  0.00  0.00    +0.000 A 
ATOM      4  C   UNL     1       5.143   6.486  15.882  0.00  0.00    +0.000 A 
ATOM      5  C   UNL     1       5.584   5.261  15.426  0.00  0.00    +0.000 A 
ATOM      6  C   UNL     1       5.065   4.120  16.014  0.00  0.00    +0.000 A 
ATOM      7  C   UNL     1       4.191   4.199  17.098  0.00  0.00    +0.000 A 
ATOM      8  N   UNL     1       3.418   3.146  17.367  0.00  0.00    +0.000 NA
ATOM      9  C   UNL     1       2.631   3.257  18.444  0.00  0.00    +0.000 A 
ATOM     10  C   UNL     1       1.280   2.936  18.474  0.00  0.00    +0.000 A 
ATOM     11  C   UNL     1       0.537   3.061  19.653  0.00  0.00    +0.000 A 
ATOM     12  C   UNL     1       1.216   3.229  20.851  0.00  0.00    +0.000 A 
ATOM     13  C   UNL     1       2.539   3.622  20.787  0.00  0.00    +0.000 A 
ATOM     14  C   UNL     1       3.031   3.986  19.521  0.00  0.00    +0.000 A 
ENDROOT
BRANCH   1  15
ATOM     15  N   UNL     1       3.187   6.354  20.036  0.00  0.00    +0.000 N 
ATOM     16  H   UNL     1       3.415   6.040  20.982  0.00  0.00    +0.000 HD
BRANCH  15  21
ATOM     17  C   UNL     1       1.153   9.400  19.261  0.00  0.00    +0.000 A 
ATOM     18  C   UNL     1       0.331   9.433  20.395  0.00  0.00    +0.000 A 
ATOM     19  C   UNL     1       0.350   8.384  21.308  0.00  0.00    +0.000 A 
ATOM     20  C   UNL     1       1.209   7.302  21.116  0.00  0.00    +0.000 A 
ATOM     21  C   UNL     1       2.141   7.303  20.080  0.00  0.00    +0.000 A 
ATOM     22  C   UNL     1       2.057   8.328  19.114  0.00  0.00    +0.000 A 
BRANCH  17  23
ATOM     23  C   UNL     1       1.084  10.543  18.262  0.00  0.00    +0.000 C 
BRANCH  23  25
ATOM     24  C   UNL     1       2.455  12.559  18.196  0.00  0.00    +0.000 C 
ATOM     25  N   UNL     1       1.315  11.886  18.827  0.00  0.00    +0.000 NA
ATOM     26  C   UNL     1       0.113  12.708  18.631  0.00  0.00    +0.000 C 
ENDBRANCH  23  25
ENDBRANCH  17  23
ENDBRANCH  15  21
ENDBRANCH   1  15
TORSDOF 4
ENDMDL
MODEL 2
REMARK VINA RESULT:      -8.6      0.885      1.140
REMARK  Name = 
REMARK  6 active torsions:
REMARK  status: ('A' for Active; 'I' for Inactive)
REMARK    1  A    between atoms: C_1  and  N_2
REMARK    2  A    between atoms: N_2  and  C_3
REMARK    3  A    between atoms: N_2  and  C_4
REMARK    4  A    between atoms: C_4  and  C_5
REMARK    5  A    between atoms: C_9  and  N_10
REMARK    6  A    between atoms: N_10  and  C_11
REMARK                            x       y       z     vdW  Elec       q    Type
REMARK                         _______ _______ _______ _____ _____    ______ ____
ROOT
ATOM      1  C   UNL     1       3.498   5.535  19.057  0.00  0.00    +0.000 A 
ATOM      2  C   UNL     1       4.049   5.618  17.736  0.00  0.00    +0.000 A 
ATOM      3  C   UNL     1       4.365   6.728  16.926  0.00  0.00    +0.000 A 
ATOM      4  C   UNL     1       5.147   6.635  15.774  0.00  0.00    +0.000 A 
ATOM      5  C   UNL     1       5.587   5.396  15.356  0.00  0.00    +0.000 A 
ATOM      6  C   UNL     1       5.072   4.274  15.984  0.00  0.00    +0.000 A 
ATOM      7  C   UNL     1       4.204   4.388  17.069  0.00  0.00    +0.000 A 
ATOM      8  N   UNL     1       3.434   3.344  17.377  0.00  0.00    +0.000 NA
ATOM      9  C   UNL     1       2.652   3.490  18.454  0.00  0.00    +0.000 A 
ATOM     10  C   UNL     1       1.302   3.169  18.502  0.00  0.00    +0.000 A 
ATOM     11  C   UNL     1       0.565   3.332  19.679  0.00  0.00    +0.000 A 
ATOM     12  C   UNL     1       1.250   3.540  20.868  0.00  0.00    +0.000 A 
ATOM     13  C   UNL     1       2.571   3.932  20.785  0.00  0.00    +0.000 A 
ATOM     14  C   UNL     1       3.057   4.254  19.504  0.00  0.00    +0.000 A 
ENDROOT
BRANCH   1  15
ATOM     15  N   UNL     1       3.212   6.638  19.940  0.00  0.00    +0.000 N 
ATOM     16  H   UNL     1       3.617   6.431  20.855  0.00  0.00    +0.000 HD
BRANCH  15  21
ATOM     17  C   UNL     1       0.724   9.367  19.323  0.00  0.00    +0.000 A 
ATOM     18  C   UNL     1       0.067   9.375  20.560  0.00  0.00    +0.000 A 
ATOM     19  C   UNL     1       0.342   8.395  21.509  0.00  0.00    +0.000 A 
ATOM     20  C   UNL     1       1.296   7.412  21.246  0.00  0.00    +0.000 A 
ATOM     21  C   UNL     1       2.071   7.458  20.089  0.00  0.00    +0.000 A 
ATOM     22  C   UNL     1       1.728   8.402  19.098  0.00  0.00    +0.000 A 
BRANCH  17  23
ATOM     23  C   UNL     1       0.376  10.427  18.293  0.00  0.00    +0.000 C 
BRANCH  23  25
ATOM     24  C   UNL     1      -1.091  12.373  18.174  0.00  0.00    +0.000 C 
ATOM     25  N   UNL     1      -1.015  10.918  18.341  0.00  0.00    +0.000 NA
ATOM     26  C   UNL     1      -1.791  10.278  17.270  0.00  0.00    +0.000 C 
ENDBRANCH  23  25
ENDBRANCH  17  23
ENDBRANCH  15  21
ENDBRANCH   1  15
TORSDOF 4
ENDMDL
MODEL 3
REMARK VINA RESULT:      -8.6      1.330      2.159
REMARK  Name = 
REMARK  6 active torsions:
REMARK  status: ('A' for Active; 'I' for Inactive)
REMARK    1  A    between atoms: C_1  and  N_2
REMARK    2  A    between atoms: N_2  and  C_3
REMARK    3  A    between atoms: N_2  and  C_4
REMARK    4  A    between atoms: C_4  and  C_5
REMARK    5  A    between atoms: C_9  and  N_10
REMARK    6  A    between atoms: N_10  and  C_11
REMARK                            x       y       z     vdW  Elec       q    Type
REMARK                         _______ _______ _______ _____ _____    ______ ____
ROOT
ATOM      1  C   UNL     1       3.508   5.287  19.023  0.00  0.00    +0.000 A 
ATOM      2  C   UNL     1       4.148   5.283  17.740  0.00  0.00    +0.000 A 
ATOM      3  C   UNL     1       4.506   6.337  16.874  0.00  0.00    +0.000 A 
ATOM      4  C   UNL     1       5.365   6.174  15.787  0.00  0.00    +0.000 A 
ATOM      5  C   UNL     1       5.847   4.915  15.492  0.00  0.00    +0.000 A 
ATOM      6  C   UNL     1       5.303   3.833  16.164  0.00  0.00    +0.000 A 
ATOM      7  C   UNL     1       4.361   4.011  17.176  0.00  0.00    +0.000 A 
ATOM      8  N   UNL     1       3.583   2.980  17.507  0.00  0.00    +0.000 NA
ATOM      9  C   UNL     1       2.728   3.191  18.515  0.00  0.00    +0.000 A 
ATOM     10  C   UNL     1       1.381   2.852  18.495  0.00  0.00    +0.000 A 
ATOM     11  C   UNL     1       0.563   3.088  19.605  0.00  0.00    +0.000 A 
ATOM     12  C   UNL     1       1.163   3.392  20.819  0.00  0.00    +0.000 A 
ATOM     13  C   UNL     1       2.483   3.798  20.796  0.00  0.00    +0.000 A 
ATOM     14  C   UNL     1       3.052   4.034  19.532  0.00  0.00    +0.000 A 
ENDROOT
BRANCH   1  15
ATOM     15  N   UNL     1       3.150   6.446  19.802  0.00  0.00    +0.000 N 
ATOM     16  H   UNL     1       2.934   6.141  20.753  0.00  0.00    +0.000 HD
BRANCH  15  21
ATOM     17  C   UNL     1       0.594   9.172  20.032  0.00  0.00    +0.000 A 
ATOM     18  C   UNL     1       0.628   9.643  18.714  0.00  0.00    +0.000 A 
ATOM     19  C   UNL     1       1.586   9.170  17.822  0.00  0.00    +0.000 A 
ATOM     20  C   UNL     1       2.503   8.201  18.227  0.00  0.00    +0.000 A 
ATOM     21  C   UNL     1       2.407   7.605  19.484  0.00  0.00    +0.000 A 
ATOM     22  C   UNL     1       1.490   8.149  20.407  0.00  0.00    +0.000 A 
BRANCH  17  23
ATOM     23  C   UNL     1      -0.440   9.734  20.993  0.00  0.00    +0.000 C 
BRANCH  23  25
ATOM     24  C   UNL     1      -0.555  11.747  22.366  0.00  0.00    +0.000 C 
ATOM     25  N   UNL     1       0.111  10.458  22.155  0.00  0.00    +0.000 NA
ATOM     26  C   UNL     1      -0.057   9.636  23.361  0.00  0.00    +0.000 C 
ENDBRANCH  23  25
ENDBRANCH  17  23
ENDBRANCH  15  21
ENDBRANCH   1  15
TORSDOF 4
ENDMDL
MODEL 4
REMARK VINA RESULT:      -8.3      1.818      2.647
REMARK  Name = 
REMARK  6 active torsions:
REMARK  status: ('A' for Active; 'I' for Inactive)
REMARK    1  A    between atoms: C_1  and  N_2
REMARK    2  A    between atoms: N_2  and  C_3
REMARK    3  A    between atoms: N_2  and  C_4
REMARK    4  A    between atoms: C_4  and  C_5
REMARK    5  A    between atoms: C_9  and  N_10
REMARK    6  A    between atoms: N_10  and  C_11
REMARK                            x       y       z     vdW  Elec       q    Type
REMARK                         _______ _______ _______ _____ _____    ______ ____
ROOT
ATOM      1  C   UNL     1       3.337   5.664  19.191  0.00  0.00    +0.000 A 
ATOM      2  C   UNL     1       4.600   5.776  18.522  0.00  0.00    +0.000 A 
ATOM      3  C   UNL     1       5.018   6.588  17.448  0.00  0.00    +0.000 A 
ATOM      4  C   UNL     1       6.358   6.764  17.100  0.00  0.00    +0.000 A 
ATOM      5  C   UNL     1       7.330   6.067  17.787  0.00  0.00    +0.000 A 
ATOM      6  C   UNL     1       6.926   5.073  18.662  0.00  0.00    +0.000 A 
ATOM      7  C   UNL     1       5.575   4.839  18.915  0.00  0.00    +0.000 A 
ATOM      8  N   UNL     1       5.220   3.657  19.421  0.00  0.00    +0.000 NA
ATOM      9  C   UNL     1       3.917   3.502  19.688  0.00  0.00    +0.000 A 
ATOM     10  C   UNL     1       3.161   2.396  19.322  0.00  0.00    +0.000 A 
ATOM     11  C   UNL     1       1.807   2.305  19.663  0.00  0.00    +0.000 A 
ATOM     12  C   UNL     1       1.301   3.184  20.611  0.00  0.00    +0.000 A 
ATOM     13  C   UNL     1       2.043   4.313  20.898  0.00  0.00    +0.000 A 
ATOM     14  C   UNL     1       3.160   4.562  20.079  0.00  0.00    +0.000 A 
ENDROOT
BRANCH   1  15
ATOM     15  N   UNL     1       2.167   6.474  18.959  0.00  0.00    +0.000 N 
ATOM     16  H   UNL     1       1.632   6.057  18.195  0.00  0.00    +0.000 HD
BRANCH  15  21
ATOM     17  C   UNL     1       1.219   9.882  20.189  0.00  0.00    +0.000 A 
ATOM     18  C   UNL     1       1.155  10.566  18.969  0.00  0.00    +0.000 A 
ATOM     19  C   UNL     1       1.570   9.948  17.793  0.00  0.00    +0.000 A 
ATOM     20  C   UNL     1       2.026   8.631  17.816  0.00  0.00    +0.000 A 
ATOM     21  C   UNL     1       1.967   7.873  18.984  0.00  0.00    +0.000 A 
ATOM     22  C   UNL     1       1.626   8.531  20.185  0.00  0.00    +0.000 A 
BRANCH  17  23
ATOM     23  C   UNL     1       0.795  10.594  21.462  0.00  0.00    +0.000 C 
BRANCH  23  25
ATOM     24  C   UNL     1      -0.602   9.459  23.107  0.00  0.00    +0.000 C 
ATOM     25  N   UNL     1      -0.580  10.310  21.913  0.00  0.00    +0.000 NA
ATOM     26  C   UNL     1      -1.260  11.575  22.222  0.00  0.00    +0.000 C 
ENDBRANCH  23  25
ENDBRANCH  17  23
ENDBRANCH  15  21
ENDBRANCH   1  15
TORSDOF 4
ENDMDL
MODEL 5
REMARK VINA RESULT:      -8.3      1.633      4.178
REMARK  Name = 
REMARK  6 active torsions:
REMARK  status: ('A' for Active; 'I' for Inactive)
REMARK    1  A    between atoms: C_1  and  N_2
REMARK    2  A    between atoms: N_2  and  C_3
REMARK    3  A    between atoms: N_2  and  C_4
REMARK    4  A    between atoms: C_4  and  C_5
REMARK    5  A    between atoms: C_9  and  N_10
REMARK    6  A    between atoms: N_10  and  C_11
REMARK                            x       y       z     vdW  Elec       q    Type
REMARK                         _______ _______ _______ _____ _____    ______ ____
ROOT
ATOM      1  C   UNL     1       3.207   5.772  18.690  0.00  0.00    +0.000 A 
ATOM      2  C   UNL     1       2.504   4.554  18.969  0.00  0.00    +0.000 A 
ATOM      3  C   UNL     1       1.621   4.205  20.012  0.00  0.00    +0.000 A 
ATOM      4  C   UNL     1       0.815   3.066  19.981  0.00  0.00    +0.000 A 
ATOM      5  C   UNL     1       0.922   2.194  18.918  0.00  0.00    +0.000 A 
ATOM      6  C   UNL     1       1.962   2.379  18.023  0.00  0.00    +0.000 A 
ATOM      7  C   UNL     1       2.825   3.468  18.134  0.00  0.00    +0.000 A 
ATOM      8  N   UNL     1       4.014   3.398  17.533  0.00  0.00    +0.000 NA
ATOM      9  C   UNL     1       4.785   4.487  17.633  0.00  0.00    +0.000 A 
ATOM     10  C   UNL     1       6.131   4.475  17.981  0.00  0.00    +0.000 A 
ATOM     11  C   UNL     1       6.869   5.662  18.038  0.00  0.00    +0.000 A 
ATOM     12  C   UNL     1       6.330   6.808  17.470  0.00  0.00    +0.000 A 
ATOM     13  C   UNL     1       4.974   6.814  17.206  0.00  0.00    +0.000 A 
ATOM     14  C   UNL     1       4.228   5.726  17.695  0.00  0.00    +0.000 A 
ENDROOT
BRANCH   1  15
ATOM     15  N   UNL     1       3.087   7.017  19.407  0.00  0.00    +0.000 N 
ATOM     16  H   UNL     1       3.246   6.834  20.399  0.00  0.00    +0.000 HD
BRANCH  15  21
ATOM     17  C   UNL     1       0.327   9.456  20.080  0.00  0.00    +0.000 A 
ATOM     18  C   UNL     1       0.190  10.019  18.806  0.00  0.00    +0.000 A 
ATOM     19  C   UNL     1       1.097   9.706  17.797  0.00  0.00    +0.000 A 
ATOM     20  C   UNL     1       2.134   8.806  18.040  0.00  0.00    +0.000 A 
ATOM     21  C   UNL     1       2.215   8.117  19.249  0.00  0.00    +0.000 A 
ATOM     22  C   UNL     1       1.345   8.502  20.291  0.00  0.00    +0.000 A 
BRANCH  17  23
ATOM     23  C   UNL     1      -0.655   9.845  21.172  0.00  0.00    +0.000 C 
BRANCH  23  25
ATOM     24  C   UNL     1      -0.841  11.709  22.735  0.00  0.00    +0.000 C 
ATOM     25  N   UNL     1      -0.062  10.532  22.335  0.00  0.00    +0.000 NA
ATOM     26  C   UNL     1       0.001   9.600  23.468  0.00  0.00    +0.000 C 
ENDBRANCH  23  25
ENDBRANCH  17  23
ENDBRANCH  15  21
ENDBRANCH   1  15
TORSDOF 4
ENDMDL
MODEL 6
REMARK VINA RESULT:      -8.2      1.000      3.575
REMARK  Name = 
REMARK  6 active torsions:
REMARK  status: ('A' for Active; 'I' for Inactive)
REMARK    1  A    between atoms: C_1  and  N_2
REMARK    2  A    between atoms: N_2  and  C_3
REMARK    3  A    between atoms: N_2  and  C_4
REMARK    4  A    between atoms: C_4  and  C_5
REMARK    5  A    between atoms: C_9  and  N_10
REMARK    6  A    between atoms: N_10  and  C_11
REMARK                            x       y       z     vdW  Elec       q    Type
REMARK                         _______ _______ _______ _____ _____    ______ ____
ROOT
ATOM      1  C   UNL     1       2.996   5.816  18.789  0.00  0.00    +0.000 A 
ATOM      2  C   UNL     1       2.362   4.572  19.115  0.00  0.00    +0.000 A 
ATOM      3  C   UNL     1       1.638   4.165  20.255  0.00  0.00    +0.000 A 
ATOM      4  C   UNL     1       0.859   3.008  20.291  0.00  0.00    +0.000 A 
ATOM      5  C   UNL     1       0.836   2.176  19.191  0.00  0.00    +0.000 A 
ATOM      6  C   UNL     1       1.739   2.418  18.169  0.00  0.00    +0.000 A 
ATOM      7  C   UNL     1       2.587   3.524  18.203  0.00  0.00    +0.000 A 
ATOM      8  N   UNL     1       3.683   3.505  17.443  0.00  0.00    +0.000 NA
ATOM      9  C   UNL     1       4.439   4.610  17.478  0.00  0.00    +0.000 A 
ATOM     10  C   UNL     1       5.819   4.619  17.637  0.00  0.00    +0.000 A 
ATOM     11  C   UNL     1       6.534   5.822  17.639  0.00  0.00    +0.000 A 
ATOM     12  C   UNL     1       5.899   6.973  17.193  0.00  0.00    +0.000 A 
ATOM     13  C   UNL     1       4.520   6.954  17.118  0.00  0.00    +0.000 A 
ATOM     14  C   UNL     1       3.871   5.831  17.663  0.00  0.00    +0.000 A 
ENDROOT
BRANCH   1  15
ATOM     15  N   UNL     1       2.951   7.032  19.562  0.00  0.00    +0.000 N 
ATOM     16  H   UNL     1       3.598   6.939  20.347  0.00  0.00    +0.000 HD
BRANCH  15  21
ATOM     17  C   UNL     1       0.583   9.932  19.486  0.00  0.00    +0.000 A 
ATOM     18  C   UNL     1       0.061   9.848  20.782  0.00  0.00    +0.000 A 
ATOM     19  C   UNL     1       0.374   8.765  21.598  0.00  0.00    +0.000 A 
ATOM     20  C   UNL     1       1.233   7.766  21.140  0.00  0.00    +0.000 A 
ATOM     21  C   UNL     1       1.884   7.890  19.913  0.00  0.00    +0.000 A 
ATOM     22  C   UNL     1       1.497   8.945  19.061  0.00  0.00    +0.000 A 
BRANCH  17  23
ATOM     23  C   UNL     1       0.194  11.107  18.605  0.00  0.00    +0.000 C 
BRANCH  23  25
ATOM     24  C   UNL     1       1.862  12.794  19.175  0.00  0.00    +0.000 C 
ATOM     25  N   UNL     1       0.439  12.439  19.191  0.00  0.00    +0.000 NA
ATOM     26  C   UNL     1      -0.308  13.448  18.427  0.00  0.00    +0.000 C 
ENDBRANCH  23  25
ENDBRANCH  17  23
ENDBRANCH  15  21
ENDBRANCH   1  15
TORSDOF 4
ENDMDL
MODEL 7
REMARK VINA RESULT:      -8.2      1.604      3.890
REMARK  Name = 
REMARK  6 active torsions:
REMARK  status: ('A' for Active; 'I' for Inactive)
REMARK    1  A    between atoms: C_1  and  N_2
REMARK    2  A    between atoms: N_2  and  C_3
REMARK    3  A    between atoms: N_2  and  C_4
REMARK    4  A    between atoms: C_4  and  C_5
REMARK    5  A    between atoms: C_9  and  N_10
REMARK    6  A    between atoms: N_10  and  C_11
REMARK                            x       y       z     vdW  Elec       q    Type
REMARK                         _______ _______ _______ _____ _____    ______ ____
ROOT
ATOM      1  C   UNL     1       3.061   6.015  18.451  0.00  0.00    +0.000 A 
ATOM      2  C   UNL     1       2.371   4.832  18.875  0.00  0.00    +0.000 A 
ATOM      3  C   UNL     1       1.507   4.596  19.964  0.00  0.00    +0.000 A 
ATOM      4  C   UNL     1       0.710   3.456  20.074  0.00  0.00    +0.000 A 
ATOM      5  C   UNL     1       0.807   2.471  19.113  0.00  0.00    +0.000 A 
ATOM      6  C   UNL     1       1.831   2.561  18.186  0.00  0.00    +0.000 A 
ATOM      7  C   UNL     1       2.688   3.661  18.161  0.00  0.00    +0.000 A 
ATOM      8  N   UNL     1       3.868   3.532  17.552  0.00  0.00    +0.000 NA
ATOM      9  C   UNL     1       4.632   4.630  17.518  0.00  0.00    +0.000 A 
ATOM     10  C   UNL     1       5.982   4.665  17.842  0.00  0.00    +0.000 A 
ATOM     11  C   UNL     1       6.712   5.856  17.756  0.00  0.00    +0.000 A 
ATOM     12  C   UNL     1       6.155   6.928  17.072  0.00  0.00    +0.000 A 
ATOM     13  C   UNL     1       4.796   6.896  16.831  0.00  0.00    +0.000 A 
ATOM     14  C   UNL     1       4.066   5.865  17.451  0.00  0.00    +0.000 A 
ENDROOT
BRANCH   1  15
ATOM     15  N   UNL     1       2.942   7.332  19.026  0.00  0.00    +0.000 N 
ATOM     16  H   UNL     1       3.781   7.518  19.581  0.00  0.00    +0.000 HD
BRANCH  15  21
ATOM     17  C   UNL     1       0.171   9.826  19.367  0.00  0.00    +0.000 A 
ATOM     18  C   UNL     1      -0.072   9.726  20.743  0.00  0.00    +0.000 A 
ATOM     19  C   UNL     1       0.561   8.745  21.500  0.00  0.00    +0.000 A 
ATOM     20  C   UNL     1       1.465   7.870  20.898  0.00  0.00    +0.000 A 
ATOM     21  C   UNL     1       1.839   8.031  19.566  0.00  0.00    +0.000 A 
ATOM     22  C   UNL     1       1.132   8.972  18.788  0.00  0.00    +0.000 A 
BRANCH  17  23
ATOM     23  C   UNL     1      -0.563  10.883  18.560  0.00  0.00    +0.000 C 
BRANCH  23  25
ATOM     24  C   UNL     1      -2.814  11.814  18.435  0.00  0.00    +0.000 C 
ATOM     25  N   UNL     1      -1.992  10.607  18.314  0.00  0.00    +0.000 NA
ATOM     26  C   UNL     1      -2.152  10.059  16.960  0.00  0.00    +0.000 C 
ENDBRANCH  23  25
ENDBRANCH  17  23
ENDBRANCH  15  21
ENDBRANCH   1  15
TORSDOF 4
ENDMDL
MODEL 8
REMARK VINA RESULT:      -8.1      1.829      3.910
REMARK  Name = 
REMARK  6 active torsions:
REMARK  status: ('A' for Active; 'I' for Inactive)
REMARK    1  A    between atoms: C_1  and  N_2
REMARK    2  A    between atoms: N_2  and  C_3
REMARK    3  A    between atoms: N_2  and  C_4
REMARK    4  A    between atoms: C_4  and  C_5
REMARK    5  A    between atoms: C_9  and  N_10
REMARK    6  A    between atoms: N_10  and  C_11
REMARK                            x       y       z     vdW  Elec       q    Type
REMARK                         _______ _______ _______ _____ _____    ______ ____
ROOT
ATOM      1  C   UNL     1       3.794   5.973  17.662  0.00  0.00    +0.000 A 
ATOM      2  C   UNL     1       3.086   4.790  18.057  0.00  0.00    +0.000 A 
ATOM      3  C   UNL     1       1.871   4.619  18.753  0.00  0.00    +0.000 A 
ATOM      4  C   UNL     1       1.192   3.402  18.815  0.00  0.00    +0.000 A 
ATOM      5  C   UNL     1       1.752   2.286  18.228  0.00  0.00    +0.000 A 
ATOM      6  C   UNL     1       3.058   2.373  17.773  0.00  0.00    +0.000 A 
ATOM      7  C   UNL     1       3.759   3.577  17.819  0.00  0.00    +0.000 A 
ATOM      8  N   UNL     1       5.091   3.537  17.760  0.00  0.00    +0.000 NA
ATOM      9  C   UNL     1       5.714   4.722  17.763  0.00  0.00    +0.000 A 
ATOM     10  C   UNL     1       6.803   5.043  18.563  0.00  0.00    +0.000 A 
ATOM     11  C   UNL     1       7.408   6.301  18.483  0.00  0.00    +0.000 A 
ATOM     12  C   UNL     1       7.100   7.119  17.405  0.00  0.00    +0.000 A 
ATOM     13  C   UNL     1       5.968   6.816  16.675  0.00  0.00    +0.000 A 
ATOM     14  C   UNL     1       5.131   5.811  17.192  0.00  0.00    +0.000 A 
ENDROOT
BRANCH   1  15
ATOM     15  N   UNL     1       3.347   7.334  17.818  0.00  0.00    +0.000 N 
ATOM     16  H   UNL     1       4.163   7.948  17.782  0.00  0.00    +0.000 HD
BRANCH  15  21
ATOM     17  C   UNL     1       0.655   9.667  18.970  0.00  0.00    +0.000 A 
ATOM     18  C   UNL     1       0.634   9.353  20.335  0.00  0.00    +0.000 A 
ATOM     19  C   UNL     1       1.383   8.286  20.822  0.00  0.00    +0.000 A 
ATOM     20  C   UNL     1       2.183   7.538  19.958  0.00  0.00    +0.000 A 
ATOM     21  C   UNL     1       2.341   7.912  18.625  0.00  0.00    +0.000 A 
ATOM     22  C   UNL     1       1.515   8.939  18.122  0.00  0.00    +0.000 A 
BRANCH  17  23
ATOM     23  C   UNL     1      -0.202  10.814  18.462  0.00  0.00    +0.000 C 
BRANCH  23  25
ATOM     24  C   UNL     1      -2.450  11.750  18.608  0.00  0.00    +0.000 C 
ATOM     25  N   UNL     1      -1.650  10.538  18.402  0.00  0.00    +0.000 NA
ATOM     26  C   UNL     1      -1.981   9.971  17.088  0.00  0.00    +0.000 C 
ENDBRANCH  23  25
ENDBRANCH  17  23
ENDBRANCH  15  21
ENDBRANCH   1  15
TORSDOF 4
ENDMDL
MODEL 9
REMARK VINA RESULT:      -8.0      1.544      1.794
REMARK  Name = 
REMARK  6 active torsions:
REMARK  status: ('A' for Active; 'I' for Inactive)
REMARK    1  A    between atoms: C_1  and  N_2
REMARK    2  A    between atoms: N_2  and  C_3
REMARK    3  A    between atoms: N_2  and  C_4
REMARK    4  A    between atoms: C_4  and  C_5
REMARK    5  A    between atoms: C_9  and  N_10
REMARK    6  A    between atoms: N_10  and  C_11
REMARK                            x       y       z     vdW  Elec       q    Type
REMARK                         _______ _______ _______ _____ _____    ______ ____
ROOT
ATOM      1  C   UNL     1       3.436   5.791  19.095  0.00  0.00    +0.000 A 
ATOM      2  C   UNL     1       4.727   5.963  18.495  0.00  0.00    +0.000 A 
ATOM      3  C   UNL     1       5.174   6.832  17.477  0.00  0.00    +0.000 A 
ATOM      4  C   UNL     1       6.523   7.056  17.203  0.00  0.00    +0.000 A 
ATOM      5  C   UNL     1       7.480   6.356  17.907  0.00  0.00    +0.000 A 
ATOM      6  C   UNL     1       7.061   5.314  18.719  0.00  0.00    +0.000 A 
ATOM      7  C   UNL     1       5.707   5.036  18.896  0.00  0.00    +0.000 A 
ATOM      8  N   UNL     1       5.361   3.825  19.334  0.00  0.00    +0.000 NA
ATOM      9  C   UNL     1       4.051   3.625  19.529  0.00  0.00    +0.000 A 
ATOM     10  C   UNL     1       3.344   2.517  19.081  0.00  0.00    +0.000 A 
ATOM     11  C   UNL     1       1.979   2.377  19.351  0.00  0.00    +0.000 A 
ATOM     12  C   UNL     1       1.404   3.201  20.309  0.00  0.00    +0.000 A 
ATOM     13  C   UNL     1       2.100   4.335  20.678  0.00  0.00    +0.000 A 
ATOM     14  C   UNL     1       3.247   4.647  19.926  0.00  0.00    +0.000 A 
ENDROOT
BRANCH   1  15
ATOM     15  N   UNL     1       2.257   6.580  18.840  0.00  0.00    +0.000 N 
ATOM     16  H   UNL     1       2.148   6.678  17.828  0.00  0.00    +0.000 HD
BRANCH  15  21
ATOM     17  C   UNL     1       1.157  10.101  19.482  0.00  0.00    +0.000 A 
ATOM     18  C   UNL     1       1.038  10.063  20.877  0.00  0.00    +0.000 A 
ATOM     19  C   UNL     1       1.167   8.858  21.561  0.00  0.00    +0.000 A 
ATOM     20  C   UNL     1       1.445   7.683  20.865  0.00  0.00    +0.000 A 
ATOM     21  C   UNL     1       1.714   7.706  19.498  0.00  0.00    +0.000 A 
ATOM     22  C   UNL     1       1.498   8.914  18.801  0.00  0.00    +0.000 A 
BRANCH  17  23
ATOM     23  C   UNL     1       0.974  11.424  18.758  0.00  0.00    +0.000 C 
BRANCH  23  25
ATOM     24  C   UNL     1      -0.350  13.452  18.462  0.00  0.00    +0.000 C 
ATOM     25  N   UNL     1      -0.339  12.070  18.952  0.00  0.00    +0.000 NA
ATOM     26  C   UNL     1      -1.365  11.305  18.231  0.00  0.00    +0.000 C 
ENDBRANCH  23  25
ENDBRANCH  17  23
ENDBRANCH  15  21
ENDBRANCH   1  15
TORSDOF 4
ENDMDL
