MODEL 1
REMARK VINA RESULT:      -7.7      0.000      0.000
REMARK  Name = 
REMARK  5 active torsions:
REMARK  status: ('A' for Active; 'I' for Inactive)
REMARK    1  A    between atoms: C_1  and  O_2
REMARK    2  A    between atoms: O_2  and  C_3
REMARK    3  A    between atoms: C_8  and  O_9
REMARK    4  A    between atoms: O_9  and  C_10
REMARK    5  A    between atoms: C_10  and  C_12
REMARK                            x       y       z     vdW  Elec       q    Type
REMARK                         _______ _______ _______ _____ _____    ______ ____
ROOT
ATOM      1  C   UNL     1       3.874   6.383  17.598  0.00  0.00    +0.000 C 
ATOM      2  O   UNL     1       3.826   7.579  17.424  0.00  0.00    +0.000 OA
ENDROOT
BRANCH   1   3
ATOM      3  C   UNL     1       5.071   5.470  17.211  0.00  0.00    +0.000 A 
ATOM      4  C   UNL     1       6.087   5.532  18.143  0.00  0.00    +0.000 A 
ATOM      5  C   UNL     1       7.243   6.069  17.653  0.00  0.00    +0.000 A 
ATOM      6 CL   UNL     1       8.157   7.152  18.613  0.00  0.00    +0.000 Cl
ATOM      7  N   UNL     1       7.604   6.025  16.362  0.00  0.00    +0.000 NA
ATOM      8  C   UNL     1       6.800   5.388  15.529  0.00  0.00    +0.000 A 
ATOM      9  C   UNL     1       7.351   4.974  14.332  0.00  0.00    +0.000 A 
ATOM     10  C   UNL     1       6.675   4.171  13.427  0.00  0.00    +0.000 A 
ATOM     11  C   UNL     1       5.363   3.813  13.722  0.00  0.00    +0.000 A 
ATOM     12  C   UNL     1       4.739   4.287  14.899  0.00  0.00    +0.000 A 
ATOM     13  C   UNL     1       5.452   5.087  15.870  0.00  0.00    +0.000 A 
ENDBRANCH   1   3
BRANCH   1  14
ATOM     14  O   UNL     1       2.830   5.614  18.329  0.00  0.00    +0.000 OA
BRANCH  14  20
ATOM     15  C   UNL     1       2.236   3.228  18.923  0.00  0.00    +0.000 A 
ATOM     16  C   UNL     1       1.758   2.273  19.844  0.00  0.00    +0.000 A 
ATOM     17  C   UNL     1       1.630   2.586  21.197  0.00  0.00    +0.000 A 
ATOM     18  C   UNL     1       1.959   3.862  21.627  0.00  0.00    +0.000 A 
ATOM     19  C   UNL     1       2.350   4.869  20.706  0.00  0.00    +0.000 A 
ATOM     20  C   UNL     1       2.464   4.559  19.344  0.00  0.00    +0.000 A 
BRANCH  15  22
ATOM     21  C   UNL     1       3.622   1.979  17.499  0.00  0.00    +0.000 C 
ATOM     22  O   UNL     1       2.508   2.877  17.621  0.00  0.00    +0.000 OA
ENDBRANCH  15  22
ENDBRANCH  14  20
ENDBRANCH   1  14
TORSDOF 4
ENDMDL
MODEL 2
REMARK VINA RESULT:      -7.7      1.705      3.147
REMARK  Name = 
REMARK  5 active torsions:
REMARK  status: ('A' for Active; 'I' for Inactive)
REMARK    1  A    between atoms: C_1  and  O_2
REMARK    2  A    between atoms: O_2  and  C_3
REMARK    3  A    between atoms: C_8  and  O_9
REMARK    4  A    between atoms: O_9  and  C_10
REMARK    5  A    between atoms: C_10  and  C_12
REMARK                            x       y       z     vdW  Elec       q    Type
REMARK                         _______ _______ _______ _____ _____    ______ ____
ROOT
ATOM      1  C   UNL     1       3.962   4.418  16.995  0.00  0.00    +0.000 C 
ATOM      2  O   UNL     1       3.035   3.643  16.948  0.00  0.00    +0.000 OA
ENDROOT
BRANCH   1   3
ATOM      3  C   UNL     1       5.391   4.140  16.450  0.00  0.00    +0.000 A 
ATOM      4  C   UNL     1       6.359   4.369  17.406  0.00  0.00    +0.000 A 
ATOM      5  C   UNL     1       7.199   5.401  17.095  0.00  0.00    +0.000 A 
ATOM      6 CL   UNL     1       7.690   6.500  18.312  0.00  0.00    +0.000 Cl
ATOM      7  N   UNL     1       7.476   5.791  15.843  0.00  0.00    +0.000 NA
ATOM      8  C   UNL     1       6.927   5.104  14.857  0.00  0.00    +0.000 A 
ATOM      9  C   UNL     1       7.525   5.214  13.616  0.00  0.00    +0.000 A 
ATOM     10  C   UNL     1       7.151   4.444  12.527  0.00  0.00    +0.000 A 
ATOM     11  C   UNL     1       6.089   3.558  12.685  0.00  0.00    +0.000 A 
ATOM     12  C   UNL     1       5.400   3.479  13.917  0.00  0.00    +0.000 A 
ATOM     13  C   UNL     1       5.812   4.246  15.071  0.00  0.00    +0.000 A 
ENDBRANCH   1   3
BRANCH   1  14
ATOM     14  O   UNL     1       3.840   5.821  17.481  0.00  0.00    +0.000 OA
BRANCH  14  20
ATOM     15  C   UNL     1       2.633   6.661  19.538  0.00  0.00    +0.000 A 
ATOM     16  C   UNL     1       1.774   7.587  20.168  0.00  0.00    +0.000 A 
ATOM     17  C   UNL     1       1.431   8.784  19.541  0.00  0.00    +0.000 A 
ATOM     18  C   UNL     1       1.929   9.048  18.275  0.00  0.00    +0.000 A 
ATOM     19  C   UNL     1       2.715   8.092  17.581  0.00  0.00    +0.000 A 
ATOM     20  C   UNL     1       3.048   6.882  18.204  0.00  0.00    +0.000 A 
BRANCH  15  22
ATOM     21  C   UNL     1       2.039   4.712  20.704  0.00  0.00    +0.000 C 
ATOM     22  O   UNL     1       3.093   5.555  20.214  0.00  0.00    +0.000 OA
ENDBRANCH  15  22
ENDBRANCH  14  20
ENDBRANCH   1  14
TORSDOF 4
ENDMDL
MODEL 3
REMARK VINA RESULT:      -7.6      3.881      6.052
REMARK  Name = 
REMARK  5 active torsions:
REMARK  status: ('A' for Active; 'I' for Inactive)
REMARK    1  A    between atoms: C_1  and  O_2
REMARK    2  A    between atoms: O_2  and  C_3
REMARK    3  A    between atoms: C_8  and  O_9
REMARK    4  A    between atoms: O_9  and  C_10
REMARK    5  A    between atoms: C_10  and  C_12
REMARK                            x       y       z     vdW  Elec       q    Type
REMARK                         _______ _______ _______ _____ _____    ______ ____
ROOT
ATOM      1  C   UNL     1       2.259   7.776  18.643  0.00  0.00    +0.000 C 
ATOM      2  O   UNL     1       2.091   8.289  17.561  0.00  0.00    +0.000 OA
ENDROOT
BRANCH   1   3
ATOM      3  C   UNL     1       2.915   6.387  18.884  0.00  0.00    +0.000 A 
ATOM      4  C   UNL     1       4.152   6.292  18.279  0.00  0.00    +0.000 A 
ATOM      5  C   UNL     1       4.200   5.361  17.280  0.00  0.00    +0.000 A 
ATOM      6 CL   UNL     1       5.046   5.703  15.832  0.00  0.00    +0.000 Cl
ATOM      7  N   UNL     1       3.410   4.279  17.224  0.00  0.00    +0.000 NA
ATOM      8  C   UNL     1       2.564   4.093  18.222  0.00  0.00    +0.000 A 
ATOM      9  C   UNL     1       2.077   2.811  18.391  0.00  0.00    +0.000 A 
ATOM     10  C   UNL     1       1.300   2.435  19.475  0.00  0.00    +0.000 A 
ATOM     11  C   UNL     1       0.957   3.412  20.405  0.00  0.00    +0.000 A 
ATOM     12  C   UNL     1       1.369   4.751  20.221  0.00  0.00    +0.000 A 
ATOM     13  C   UNL     1       2.217   5.143  19.117  0.00  0.00    +0.000 A 
ENDBRANCH   1   3
BRANCH   1  14
ATOM     14  O   UNL     1       1.967   8.459  19.933  0.00  0.00    +0.000 OA
BRANCH  14  20
ATOM     15  C   UNL     1       0.294  10.311  20.343  0.00  0.00    +0.000 A 
ATOM     16  C   UNL     1      -0.509  11.071  21.220  0.00  0.00    +0.000 A 
ATOM     17  C   UNL     1      -0.730  10.652  22.531  0.00  0.00    +0.000 A 
ATOM     18  C   UNL     1      -0.131   9.483  22.975  0.00  0.00    +0.000 A 
ATOM     19  C   UNL     1       0.758   8.752  22.143  0.00  0.00    +0.000 A 
ATOM     20  C   UNL     1       0.992   9.181  20.830  0.00  0.00    +0.000 A 
BRANCH  15  22
ATOM     21  C   UNL     1      -0.792  10.312  18.263  0.00  0.00    +0.000 C 
ATOM     22  O   UNL     1       0.389  10.640  19.011  0.00  0.00    +0.000 OA
ENDBRANCH  15  22
ENDBRANCH  14  20
ENDBRANCH   1  14
TORSDOF 4
ENDMDL
MODEL 4
REMARK VINA RESULT:      -7.5      3.916      5.668
REMARK  Name = 
REMARK  5 active torsions:
REMARK  status: ('A' for Active; 'I' for Inactive)
REMARK    1  A    between atoms: C_1  and  O_2
REMARK    2  A    between atoms: O_2  and  C_3
REMARK    3  A    between atoms: C_8  and  O_9
REMARK    4  A    between atoms: O_9  and  C_10
REMARK    5  A    between atoms: C_10  and  C_12
REMARK                            x       y       z     vdW  Elec       q    Type
REMARK                         _______ _______ _______ _____ _____    ______ ____
ROOT
ATOM      1  C   UNL     1       2.267   5.777  20.133  0.00  0.00    +0.000 C 
ATOM      2  O   UNL     1       2.254   5.021  21.077  0.00  0.00    +0.000 OA
ENDROOT
BRANCH   1   3
ATOM      3  C   UNL     1       2.354   5.346  18.642  0.00  0.00    +0.000 A 
ATOM      4  C   UNL     1       1.504   4.295  18.360  0.00  0.00    +0.000 A 
ATOM      5  C   UNL     1       2.154   3.148  18.004  0.00  0.00    +0.000 A 
ATOM      6 CL   UNL     1       1.604   1.637  18.588  0.00  0.00    +0.000 Cl
ATOM      7  N   UNL     1       3.367   3.120  17.432  0.00  0.00    +0.000 NA
ATOM      8  C   UNL     1       3.941   4.280  17.168  0.00  0.00    +0.000 A 
ATOM      9  C   UNL     1       4.949   4.272  16.223  0.00  0.00    +0.000 A 
ATOM     10  C   UNL     1       5.539   5.428  15.739  0.00  0.00    +0.000 A 
ATOM     11  C   UNL     1       5.129   6.646  16.274  0.00  0.00    +0.000 A 
ATOM     12  C   UNL     1       4.159   6.686  17.301  0.00  0.00    +0.000 A 
ATOM     13  C   UNL     1       3.505   5.489  17.779  0.00  0.00    +0.000 A 
ENDBRANCH   1   3
BRANCH   1  14
ATOM     14  O   UNL     1       2.077   7.249  20.253  0.00  0.00    +0.000 OA
BRANCH  14  20
ATOM     15  C   UNL     1       0.423   9.121  20.648  0.00  0.00    +0.000 A 
ATOM     16  C   UNL     1      -0.330  10.216  20.176  0.00  0.00    +0.000 A 
ATOM     17  C   UNL     1      -0.056  10.791  18.936  0.00  0.00    +0.000 A 
ATOM     18  C   UNL     1       0.959  10.258  18.156  0.00  0.00    +0.000 A 
ATOM     19  C   UNL     1       1.667   9.097  18.566  0.00  0.00    +0.000 A 
ATOM     20  C   UNL     1       1.381   8.510  19.805  0.00  0.00    +0.000 A 
BRANCH  15  22
ATOM     21  C   UNL     1       0.001   9.693  22.885  0.00  0.00    +0.000 C 
ATOM     22  O   UNL     1       0.256   8.651  21.930  0.00  0.00    +0.000 OA
ENDBRANCH  15  22
ENDBRANCH  14  20
ENDBRANCH   1  14
TORSDOF 4
ENDMDL
MODEL 5
REMARK VINA RESULT:      -7.5      0.989      2.006
REMARK  Name = 
REMARK  5 active torsions:
REMARK  status: ('A' for Active; 'I' for Inactive)
REMARK    1  A    between atoms: C_1  and  O_2
REMARK    2  A    between atoms: O_2  and  C_3
REMARK    3  A    between atoms: C_8  and  O_9
REMARK    4  A    between atoms: O_9  and  C_10
REMARK    5  A    between atoms: C_10  and  C_12
REMARK                            x       y       z     vdW  Elec       q    Type
REMARK                         _______ _______ _______ _____ _____    ______ ____
ROOT
ATOM      1  C   UNL     1       3.890   6.501  17.417  0.00  0.00    +0.000 C 
ATOM      2  O   UNL     1       3.875   7.708  17.492  0.00  0.00    +0.000 OA
ENDROOT
BRANCH   1   3
ATOM      3  C   UNL     1       5.138   5.639  17.077  0.00  0.00    +0.000 A 
ATOM      4  C   UNL     1       6.162   5.839  17.980  0.00  0.00    +0.000 A 
ATOM      5  C   UNL     1       7.273   6.411  17.428  0.00  0.00    +0.000 A 
ATOM      6 CL   UNL     1       8.127   7.622  18.284  0.00  0.00    +0.000 Cl
ATOM      7  N   UNL     1       7.615   6.291  16.137  0.00  0.00    +0.000 NA
ATOM      8  C   UNL     1       6.843   5.540  15.371  0.00  0.00    +0.000 A 
ATOM      9  C   UNL     1       7.402   5.072  14.197  0.00  0.00    +0.000 A 
ATOM     10  C   UNL     1       6.766   4.160  13.370  0.00  0.00    +0.000 A 
ATOM     11  C   UNL     1       5.485   3.741  13.718  0.00  0.00    +0.000 A 
ATOM     12  C   UNL     1       4.850   4.263  14.868  0.00  0.00    +0.000 A 
ATOM     13  C   UNL     1       5.523   5.180  15.761  0.00  0.00    +0.000 A 
ENDBRANCH   1   3
BRANCH   1  14
ATOM     14  O   UNL     1       2.725   5.639  17.764  0.00  0.00    +0.000 OA
BRANCH  14  20
ATOM     15  C   UNL     1       2.086   4.887  20.092  0.00  0.00    +0.000 A 
ATOM     16  C   UNL     1       1.603   3.899  20.976  0.00  0.00    +0.000 A 
ATOM     17  C   UNL     1       0.992   2.743  20.491  0.00  0.00    +0.000 A 
ATOM     18  C   UNL     1       0.882   2.564  19.121  0.00  0.00    +0.000 A 
ATOM     19  C   UNL     1       1.445   3.496  18.211  0.00  0.00    +0.000 A 
ATOM     20  C   UNL     1       2.073   4.650  18.697  0.00  0.00    +0.000 A 
BRANCH  15  22
ATOM     21  C   UNL     1       1.525   7.095  20.655  0.00  0.00    +0.000 C 
ATOM     22  O   UNL     1       2.549   6.092  20.568  0.00  0.00    +0.000 OA
ENDBRANCH  15  22
ENDBRANCH  14  20
ENDBRANCH   1  14
TORSDOF 4
ENDMDL
MODEL 6
REMARK VINA RESULT:      -7.4      4.077      5.582
REMARK  Name = 
REMARK  5 active torsions:
REMARK  status: ('A' for Active; 'I' for Inactive)
REMARK    1  A    between atoms: C_1  and  O_2
REMARK    2  A    between atoms: O_2  and  C_3
REMARK    3  A    between atoms: C_8  and  O_9
REMARK    4  A    between atoms: O_9  and  C_10
REMARK    5  A    between atoms: C_10  and  C_12
REMARK                            x       y       z     vdW  Elec       q    Type
REMARK                         _______ _______ _______ _____ _____    ______ ____
ROOT
ATOM      1  C   UNL     1       2.343   8.130  18.138  0.00  0.00    +0.000 C 
ATOM      2  O   UNL     1       2.327   9.026  17.325  0.00  0.00    +0.000 OA
ENDROOT
BRANCH   1   3
ATOM      3  C   UNL     1       3.016   6.745  17.931  0.00  0.00    +0.000 A 
ATOM      4  C   UNL     1       2.183   5.709  18.303  0.00  0.00    +0.000 A 
ATOM      5  C   UNL     1       2.646   4.994  19.371  0.00  0.00    +0.000 A 
ATOM      6 CL   UNL     1       1.562   4.478  20.590  0.00  0.00    +0.000 Cl
ATOM      7  N   UNL     1       3.944   4.876  19.689  0.00  0.00    +0.000 NA
ATOM      8  C   UNL     1       4.820   5.461  18.892  0.00  0.00    +0.000 A 
ATOM      9  C   UNL     1       6.121   5.000  18.958  0.00  0.00    +0.000 A 
ATOM     10  C   UNL     1       7.113   5.415  18.083  0.00  0.00    +0.000 A 
ATOM     11  C   UNL     1       6.788   6.378  17.132  0.00  0.00    +0.000 A 
ATOM     12  C   UNL     1       5.488   6.932  17.090  0.00  0.00    +0.000 A 
ATOM     13  C   UNL     1       4.435   6.473  17.968  0.00  0.00    +0.000 A 
ENDBRANCH   1   3
BRANCH   1  14
ATOM     14  O   UNL     1       1.817   8.267  19.524  0.00  0.00    +0.000 OA
BRANCH  14  20
ATOM     15  C   UNL     1       0.101  10.037  20.088  0.00  0.00    +0.000 A 
ATOM     16  C   UNL     1      -0.579  10.834  21.033  0.00  0.00    +0.000 A 
ATOM     17  C   UNL     1      -0.503  10.548  22.396  0.00  0.00    +0.000 A 
ATOM     18  C   UNL     1       0.271   9.479  22.817  0.00  0.00    +0.000 A 
ATOM     19  C   UNL     1       1.041   8.721  21.896  0.00  0.00    +0.000 A 
ATOM     20  C   UNL     1       0.977   9.017  20.528  0.00  0.00    +0.000 A 
BRANCH  15  22
ATOM     21  C   UNL     1      -1.482  10.300  18.375  0.00  0.00    +0.000 C 
ATOM     22  O   UNL     1      -0.095  10.222  18.739  0.00  0.00    +0.000 OA
ENDBRANCH  15  22
ENDBRANCH  14  20
ENDBRANCH   1  14
TORSDOF 4
ENDMDL
MODEL 7
REMARK VINA RESULT:      -7.4      3.857      5.399
REMARK  Name = 
REMARK  5 active torsions:
REMARK  status: ('A' for Active; 'I' for Inactive)
REMARK    1  A    between atoms: C_1  and  O_2
REMARK    2  A    between atoms: O_2  and  C_3
REMARK    3  A    between atoms: C_8  and  O_9
REMARK    4  A    between atoms: O_9  and  C_10
REMARK    5  A    between atoms: C_10  and  C_12
REMARK                            x       y       z     vdW  Elec       q    Type
REMARK                         _______ _______ _______ _____ _____    ______ ____
ROOT
ATOM      1  C   UNL     1       2.259   5.923  20.060  0.00  0.00    +0.000 C 
ATOM      2  O   UNL     1       2.245   5.183  21.016  0.00  0.00    +0.000 OA
ENDROOT
BRANCH   1   3
ATOM      3  C   UNL     1       2.365   5.470  18.577  0.00  0.00    +0.000 A 
ATOM      4  C   UNL     1       1.511   4.422  18.298  0.00  0.00    +0.000 A 
ATOM      5  C   UNL     1       2.157   3.265  17.969  0.00  0.00    +0.000 A 
ATOM      6 CL   UNL     1       1.585   1.766  18.567  0.00  0.00    +0.000 Cl
ATOM      7  N   UNL     1       3.378   3.218  17.416  0.00  0.00    +0.000 NA
ATOM      8  C   UNL     1       3.965   4.369  17.144  0.00  0.00    +0.000 A 
ATOM      9  C   UNL     1       4.987   4.339  16.214  0.00  0.00    +0.000 A 
ATOM     10  C   UNL     1       5.595   5.483  15.723  0.00  0.00    +0.000 A 
ATOM     11  C   UNL     1       5.186   6.713  16.233  0.00  0.00    +0.000 A 
ATOM     12  C   UNL     1       4.201   6.776  17.245  0.00  0.00    +0.000 A 
ATOM     13  C   UNL     1       3.530   5.591  17.730  0.00  0.00    +0.000 A 
ENDBRANCH   1   3
BRANCH   1  14
ATOM     14  O   UNL     1       2.051   7.395  20.154  0.00  0.00    +0.000 OA
BRANCH  14  20
ATOM     15  C   UNL     1       0.775   9.537  19.731  0.00  0.00    +0.000 A 
ATOM     16  C   UNL     1       0.134  10.701  20.205  0.00  0.00    +0.000 A 
ATOM     17  C   UNL     1      -0.171  10.847  21.558  0.00  0.00    +0.000 A 
ATOM     18  C   UNL     1       0.184   9.840  22.441  0.00  0.00    +0.000 A 
ATOM     19  C   UNL     1       0.914   8.704  22.005  0.00  0.00    +0.000 A 
ATOM     20  C   UNL     1       1.235   8.563  20.648  0.00  0.00    +0.000 A 
BRANCH  15  22
ATOM     21  C   UNL     1       2.094   9.981  17.841  0.00  0.00    +0.000 C 
ATOM     22  O   UNL     1       0.938   9.323  18.382  0.00  0.00    +0.000 OA
ENDBRANCH  15  22
ENDBRANCH  14  20
ENDBRANCH   1  14
TORSDOF 4
ENDMDL
MODEL 8
REMARK VINA RESULT:      -7.4      3.226      5.158
REMARK  Name = 
REMARK  5 active torsions:
REMARK  status: ('A' for Active; 'I' for Inactive)
REMARK    1  A    between atoms: C_1  and  O_2
REMARK    2  A    between atoms: O_2  and  C_3
REMARK    3  A    between atoms: C_8  and  O_9
REMARK    4  A    between atoms: O_9  and  C_10
REMARK    5  A    between atoms: C_10  and  C_12
REMARK                            x       y       z     vdW  Elec       q    Type
REMARK                         _______ _______ _______ _____ _____    ______ ____
ROOT
ATOM      1  C   UNL     1       2.260   5.324  18.064  0.00  0.00    +0.000 C 
ATOM      2  O   UNL     1       1.269   4.782  17.633  0.00  0.00    +0.000 OA
ENDROOT
BRANCH   1   3
ATOM      3  C   UNL     1       3.720   4.855  17.810  0.00  0.00    +0.000 A 
ATOM      4  C   UNL     1       3.884   3.513  18.088  0.00  0.00    +0.000 A 
ATOM      5  C   UNL     1       4.729   3.272  19.134  0.00  0.00    +0.000 A 
ATOM      6 CL   UNL     1       4.353   2.053  20.275  0.00  0.00    +0.000 Cl
ATOM      7  N   UNL     1       5.723   4.095  19.501  0.00  0.00    +0.000 NA
ATOM      8  C   UNL     1       5.908   5.183  18.776  0.00  0.00    +0.000 A 
ATOM      9  C   UNL     1       7.147   5.788  18.871  0.00  0.00    +0.000 A 
ATOM     10  C   UNL     1       7.535   6.846  18.065  0.00  0.00    +0.000 A 
ATOM     11  C   UNL     1       6.609   7.350  17.155  0.00  0.00    +0.000 A 
ATOM     12  C   UNL     1       5.305   6.810  17.088  0.00  0.00    +0.000 A 
ATOM     13  C   UNL     1       4.906   5.677  17.893  0.00  0.00    +0.000 A 
ENDBRANCH   1   3
BRANCH   1  14
ATOM     14  O   UNL     1       2.237   6.611  18.813  0.00  0.00    +0.000 OA
BRANCH  14  20
ATOM     15  C   UNL     1       1.286   8.665  19.943  0.00  0.00    +0.000 A 
ATOM     16  C   UNL     1       0.905  10.023  19.907  0.00  0.00    +0.000 A 
ATOM     17  C   UNL     1       1.297  10.848  18.853  0.00  0.00    +0.000 A 
ATOM     18  C   UNL     1       2.055  10.311  17.824  0.00  0.00    +0.000 A 
ATOM     19  C   UNL     1       2.370   8.928  17.788  0.00  0.00    +0.000 A 
ATOM     20  C   UNL     1       1.963   8.095  18.839  0.00  0.00    +0.000 A 
BRANCH  15  22
ATOM     21  C   UNL     1      -0.026   8.410  21.872  0.00  0.00    +0.000 C 
ATOM     22  O   UNL     1       1.031   7.890  21.051  0.00  0.00    +0.000 OA
ENDBRANCH  15  22
ENDBRANCH  14  20
ENDBRANCH   1  14
TORSDOF 4
ENDMDL
MODEL 9
REMARK VINA RESULT:      -7.2      2.078      2.678
REMARK  Name = 
REMARK  5 active torsions:
REMARK  status: ('A' for Active; 'I' for Inactive)
REMARK    1  A    between atoms: C_1  and  O_2
REMARK    2  A    between atoms: O_2  and  C_3
REMARK    3  A    between atoms: C_8  and  O_9
REMARK    4  A    between atoms: O_9  and  C_10
REMARK    5  A    between atoms: C_10  and  C_12
REMARK                            x       y       z     vdW  Elec       q    Type
REMARK                         _______ _______ _______ _____ _____    ______ ____
ROOT
ATOM      1  C   UNL     1       7.013   5.327  19.749  0.00  0.00    +0.000 C 
ATOM      2  O   UNL     1       7.786   5.252  20.676  0.00  0.00    +0.000 OA
ENDROOT
BRANCH   1   3
ATOM      3  C   UNL     1       7.410   5.607  18.272  0.00  0.00    +0.000 A 
ATOM      4  C   UNL     1       8.171   6.752  18.153  0.00  0.00    +0.000 A 
ATOM      5  C   UNL     1       7.557   7.744  17.443  0.00  0.00    +0.000 A 
ATOM      6 CL   UNL     1       7.678   9.370  17.965  0.00  0.00    +0.000 Cl
ATOM      7  N   UNL     1       6.632   7.528  16.497  0.00  0.00    +0.000 NA
ATOM      8  C   UNL     1       6.333   6.272  16.217  0.00  0.00    +0.000 A 
ATOM      9  C   UNL     1       5.732   6.036  14.995  0.00  0.00    +0.000 A 
ATOM     10  C   UNL     1       5.495   4.762  14.504  0.00  0.00    +0.000 A 
ATOM     11  C   UNL     1       5.832   3.677  15.308  0.00  0.00    +0.000 A 
ATOM     12  C   UNL     1       6.372   3.882  16.598  0.00  0.00    +0.000 A 
ATOM     13  C   UNL     1       6.665   5.207  17.099  0.00  0.00    +0.000 A 
ENDBRANCH   1   3
BRANCH   1  14
ATOM     14  O   UNL     1       5.557   5.039  19.865  0.00  0.00    +0.000 OA
BRANCH  14  20
ATOM     15  C   UNL     1       3.618   3.708  18.934  0.00  0.00    +0.000 A 
ATOM     16  C   UNL     1       2.407   3.640  18.212  0.00  0.00    +0.000 A 
ATOM     17  C   UNL     1       1.698   4.798  17.894  0.00  0.00    +0.000 A 
ATOM     18  C   UNL     1       2.209   6.027  18.279  0.00  0.00    +0.000 A 
ATOM     19  C   UNL     1       3.471   6.130  18.921  0.00  0.00    +0.000 A 
ATOM     20  C   UNL     1       4.191   4.968  19.227  0.00  0.00    +0.000 A 
BRANCH  15  22
ATOM     21  C   UNL     1       3.773   1.376  18.721  0.00  0.00    +0.000 C 
ATOM     22  O   UNL     1       4.238   2.564  19.380  0.00  0.00    +0.000 OA
ENDBRANCH  15  22
ENDBRANCH  14  20
ENDBRANCH   1  14
TORSDOF 4
ENDMDL
