MODEL 1
REMARK VINA RESULT:      -8.3      0.000      0.000
REMARK  Name = 
REMARK  7 active torsions:
REMARK  status: ('A' for Active; 'I' for Inactive)
REMARK    1  A    between atoms: C_4  and  C_5
REMARK    2  A    between atoms: C_5  and  N_6
REMARK    3  A    between atoms: N_12  and  C_13
REMARK    4  A    between atoms: C_16  and  C_17
REMARK    5  A    between atoms: C_20  and  C_21
REMARK    6  A    between atoms: C_21  and  O_22
REMARK    7  A    between atoms: C_21  and  C_23
REMARK                            x       y       z     vdW  Elec       q    Type
REMARK                         _______ _______ _______ _____ _____    ______ ____
ROOT
ATOM      1  C   UNL     1       3.244   6.794  18.688  0.00  0.00    +0.000 A 
ATOM      2  C   UNL     1       3.005   7.825  17.779  0.00  0.00    +0.000 A 
ATOM      3  C   UNL     1       2.067   8.818  18.053  0.00  0.00    +0.000 A 
ATOM      4  C   UNL     1       1.372   8.860  19.274  0.00  0.00    +0.000 A 
ATOM      5  C   UNL     1       1.622   7.814  20.175  0.00  0.00    +0.000 A 
ATOM      6  F   UNL     1       1.022   7.794  21.376  0.00  0.00    +0.000 F 
ATOM      7  C   UNL     1       2.525   6.791  19.889  0.00  0.00    +0.000 A 
ENDROOT
BRANCH   1  13
ATOM      8  O   UNL     1       2.842   4.224  17.218  0.00  0.00    +0.000 OA
ATOM      9  C   UNL     1       3.886   4.587  17.727  0.00  0.00    +0.000 C 
ATOM     10  O   UNL     1       5.022   3.829  17.664  0.00  0.00    +0.000 OA
ATOM     11  C   UNL     1       6.069   4.451  18.420  0.00  0.00    +0.000 C 
ATOM     12  C   UNL     1       5.539   5.831  18.765  0.00  0.00    +0.000 C 
ATOM     13  N   UNL     1       4.165   5.769  18.383  0.00  0.00    +0.000 N 
BRANCH  11  14
ATOM     14  C   UNL     1       7.334   4.544  17.580  0.00  0.00    +0.000 C 
BRANCH  14  15
ATOM     15  N   UNL     1       7.058   4.594  16.164  0.00  0.00    +0.000 N 
ATOM     16  C   UNL     1       6.446   3.656  15.388  0.00  0.00    +0.000 A 
ATOM     17  C   UNL     1       6.319   4.276  14.169  0.00  0.00    +0.000 A 
ATOM     18  N   UNL     1       6.848   5.535  14.241  0.00  0.00    +0.000 NA
ATOM     19  N   UNL     1       7.304   5.720  15.473  0.00  0.00    +0.000 NA
ENDBRANCH  14  15
ENDBRANCH  11  14
ENDBRANCH   1  13
BRANCH   4  20
ATOM     20  C   UNL     1       0.480   9.986  19.586  0.00  0.00    +0.000 A 
ATOM     21  C   UNL     1      -0.711  10.169  18.871  0.00  0.00    +0.000 A 
ATOM     22  C   UNL     1      -1.559  11.231  19.149  0.00  0.00    +0.000 A 
ATOM     23  C   UNL     1      -1.195  12.138  20.133  0.00  0.00    +0.000 A 
ATOM     24  N   UNL     1      -0.049  12.004  20.855  0.00  0.00    +0.000 NA
ATOM     25  C   UNL     1       0.744  10.940  20.569  0.00  0.00    +0.000 A 
BRANCH  23  26
ATOM     26  C   UNL     1      -2.105  13.303  20.482  0.00  0.00    +0.000 C 
BRANCH  26  27
ATOM     27  C   UNL     1      -2.510  13.270  21.948  0.00  0.00    +0.000 C 
ATOM     28  C   UNL     1      -2.895  14.580  22.663  0.00  0.00    +0.000 C 
ATOM     29  N   UNL     1      -4.134  13.951  23.137  0.00  0.00    +0.000 NA
ATOM     30  C   UNL     1      -3.974  12.844  22.185  0.00  0.00    +0.000 C 
ATOM     31  H   UNL     1      -4.979  14.506  23.002  0.00  0.00    +0.000 HD
ENDBRANCH  26  27
BRANCH  26  32
ATOM     32  O   UNL     1      -3.303  13.214  19.700  0.00  0.00    +0.000 OA
ATOM     33  H   UNL     1      -3.790  12.453  20.084  0.00  0.00    +0.000 HD
ENDBRANCH  26  32
ENDBRANCH  23  26
ENDBRANCH   4  20
TORSDOF 7
ENDMDL
MODEL 2
REMARK VINA RESULT:      -8.3      1.131      1.438
REMARK  Name = 
REMARK  7 active torsions:
REMARK  status: ('A' for Active; 'I' for Inactive)
REMARK    1  A    between atoms: C_4  and  C_5
REMARK    2  A    between atoms: C_5  and  N_6
REMARK    3  A    between atoms: N_12  and  C_13
REMARK    4  A    between atoms: C_16  and  C_17
REMARK    5  A    between atoms: C_20  and  C_21
REMARK    6  A    between atoms: C_21  and  O_22
REMARK    7  A    between atoms: C_21  and  C_23
REMARK                            x       y       z     vdW  Elec       q    Type
REMARK                         _______ _______ _______ _____ _____    ______ ____
ROOT
ATOM      1  C   UNL     1       3.498   6.875  18.256  0.00  0.00    +0.000 A 
ATOM      2  C   UNL     1       3.189   8.021  17.523  0.00  0.00    +0.000 A 
ATOM      3  C   UNL     1       2.214   8.912  17.967  0.00  0.00    +0.000 A 
ATOM      4  C   UNL     1       1.550   8.731  19.191  0.00  0.00    +0.000 A 
ATOM      5  C   UNL     1       1.870   7.572  19.914  0.00  0.00    +0.000 A 
ATOM      6  F   UNL     1       1.303   7.336  21.108  0.00  0.00    +0.000 F 
ATOM      7  C   UNL     1       2.811   6.651  19.455  0.00  0.00    +0.000 A 
ENDROOT
BRANCH   1  13
ATOM      8  O   UNL     1       4.861   4.616  19.661  0.00  0.00    +0.000 OA
ATOM      9  C   UNL     1       5.068   4.957  18.511  0.00  0.00    +0.000 C 
ATOM     10  O   UNL     1       5.972   4.308  17.717  0.00  0.00    +0.000 OA
ATOM     11  C   UNL     1       6.079   4.971  16.452  0.00  0.00    +0.000 C 
ATOM     12  C   UNL     1       4.943   5.979  16.438  0.00  0.00    +0.000 C 
ATOM     13  N   UNL     1       4.457   5.955  17.779  0.00  0.00    +0.000 N 
BRANCH  11  14
ATOM     14  C   UNL     1       5.933   3.964  15.320  0.00  0.00    +0.000 C 
BRANCH  14  15
ATOM     15  N   UNL     1       6.684   4.339  14.144  0.00  0.00    +0.000 N 
ATOM     16  C   UNL     1       6.546   3.875  12.870  0.00  0.00    +0.000 A 
ATOM     17  C   UNL     1       7.402   4.665  12.143  0.00  0.00    +0.000 A 
ATOM     18  N   UNL     1       8.021   5.555  12.978  0.00  0.00    +0.000 NA
ATOM     19  N   UNL     1       7.574   5.343  14.209  0.00  0.00    +0.000 NA
ENDBRANCH  14  15
ENDBRANCH  11  14
ENDBRANCH   1  13
BRANCH   4  20
ATOM     20  C   UNL     1       0.616   9.751  19.692  0.00  0.00    +0.000 A 
ATOM     21  C   UNL     1      -0.432  10.211  18.885  0.00  0.00    +0.000 A 
ATOM     22  C   UNL     1      -1.317  11.178  19.340  0.00  0.00    +0.000 A 
ATOM     23  C   UNL     1      -1.131  11.712  20.606  0.00  0.00    +0.000 A 
ATOM     24  N   UNL     1      -0.127  11.298  21.428  0.00  0.00    +0.000 NA
ATOM     25  C   UNL     1       0.705  10.335  20.955  0.00  0.00    +0.000 A 
BRANCH  23  26
ATOM     26  C   UNL     1      -2.088  12.757  21.150  0.00  0.00    +0.000 C 
BRANCH  26  27
ATOM     27  C   UNL     1      -2.261  12.622  22.655  0.00  0.00    +0.000 C 
ATOM     28  C   UNL     1      -1.858  13.789  23.578  0.00  0.00    +0.000 C 
ATOM     29  N   UNL     1      -3.171  13.720  24.230  0.00  0.00    +0.000 NA
ATOM     30  C   UNL     1      -3.700  12.881  23.147  0.00  0.00    +0.000 C 
ATOM     31  H   UNL     1      -3.645  14.616  24.340  0.00  0.00    +0.000 HD
ENDBRANCH  26  27
BRANCH  26  32
ATOM     32  O   UNL     1      -3.377  12.573  20.548  0.00  0.00    +0.000 OA
ATOM     33  H   UNL     1      -3.864  13.398  20.757  0.00  0.00    +0.000 HD
ENDBRANCH  26  32
ENDBRANCH  23  26
ENDBRANCH   4  20
TORSDOF 7
ENDMDL
MODEL 3
REMARK VINA RESULT:      -8.3      1.339      1.747
REMARK  Name = 
REMARK  7 active torsions:
REMARK  status: ('A' for Active; 'I' for Inactive)
REMARK    1  A    between atoms: C_4  and  C_5
REMARK    2  A    between atoms: C_5  and  N_6
REMARK    3  A    between atoms: N_12  and  C_13
REMARK    4  A    between atoms: C_16  and  C_17
REMARK    5  A    between atoms: C_20  and  C_21
REMARK    6  A    between atoms: C_21  and  O_22
REMARK    7  A    between atoms: C_21  and  C_23
REMARK                            x       y       z     vdW  Elec       q    Type
REMARK                         _______ _______ _______ _____ _____    ______ ____
ROOT
ATOM      1  C   UNL     1       3.174   6.842  18.490  0.00  0.00    +0.000 A 
ATOM      2  C   UNL     1       2.513   6.741  19.715  0.00  0.00    +0.000 A 
ATOM      3  C   UNL     1       1.690   7.770  20.170  0.00  0.00    +0.000 A 
ATOM      4  C   UNL     1       1.442   8.915  19.395  0.00  0.00    +0.000 A 
ATOM      5  C   UNL     1       2.116   9.001  18.167  0.00  0.00    +0.000 A 
ATOM      6  F   UNL     1       1.913  10.048  17.351  0.00  0.00    +0.000 F 
ATOM      7  C   UNL     1       2.978   7.998  17.725  0.00  0.00    +0.000 A 
ENDROOT
BRANCH   1  13
ATOM      8  O   UNL     1       3.848   4.228  19.773  0.00  0.00    +0.000 OA
ATOM      9  C   UNL     1       4.324   4.645  18.733  0.00  0.00    +0.000 C 
ATOM     10  O   UNL     1       5.242   3.926  18.019  0.00  0.00    +0.000 OA
ATOM     11  C   UNL     1       5.697   4.690  16.896  0.00  0.00    +0.000 C 
ATOM     12  C   UNL     1       4.768   5.889  16.832  0.00  0.00    +0.000 C 
ATOM     13  N   UNL     1       4.038   5.814  18.056  0.00  0.00    +0.000 N 
BRANCH  11  14
ATOM     14  C   UNL     1       5.603   3.856  15.626  0.00  0.00    +0.000 C 
BRANCH  14  15
ATOM     15  N   UNL     1       6.506   4.313  14.595  0.00  0.00    +0.000 N 
ATOM     16  C   UNL     1       6.482   4.026  13.262  0.00  0.00    +0.000 A 
ATOM     17  C   UNL     1       7.466   4.828  12.740  0.00  0.00    +0.000 A 
ATOM     18  N   UNL     1       8.044   5.553  13.746  0.00  0.00    +0.000 NA
ATOM     19  N   UNL     1       7.447   5.225  14.885  0.00  0.00    +0.000 NA
ENDBRANCH  14  15
ENDBRANCH  11  14
ENDBRANCH   1  13
BRANCH   4  20
ATOM     20  C   UNL     1       0.474   9.925  19.845  0.00  0.00    +0.000 A 
ATOM     21  C   UNL     1      -0.552  10.356  18.994  0.00  0.00    +0.000 A 
ATOM     22  C   UNL     1      -1.469  11.314  19.402  0.00  0.00    +0.000 A 
ATOM     23  C   UNL     1      -1.339  11.868  20.666  0.00  0.00    +0.000 A 
ATOM     24  N   UNL     1      -0.360  11.483  21.530  0.00  0.00    +0.000 NA
ATOM     25  C   UNL     1       0.505  10.529  21.103  0.00  0.00    +0.000 A 
BRANCH  23  26
ATOM     26  C   UNL     1      -2.333  12.905  21.159  0.00  0.00    +0.000 C 
BRANCH  26  27
ATOM     27  C   UNL     1      -3.411  12.271  22.025  0.00  0.00    +0.000 C 
ATOM     28  C   UNL     1      -3.311  12.365  23.561  0.00  0.00    +0.000 C 
ATOM     29  N   UNL     1      -4.690  12.865  23.615  0.00  0.00    +0.000 NA
ATOM     30  C   UNL     1      -4.684  13.131  22.171  0.00  0.00    +0.000 C 
ATOM     31  H   UNL     1      -4.825  13.691  24.197  0.00  0.00    +0.000 HD
ENDBRANCH  26  27
BRANCH  26  32
ATOM     32  O   UNL     1      -2.982  13.507  20.031  0.00  0.00    +0.000 OA
ATOM     33  H   UNL     1      -2.851  12.865  19.302  0.00  0.00    +0.000 HD
ENDBRANCH  26  32
ENDBRANCH  23  26
ENDBRANCH   4  20
TORSDOF 7
ENDMDL
MODEL 4
REMARK VINA RESULT:      -8.2      0.986      1.316
REMARK  Name = 
REMARK  7 active torsions:
REMARK  status: ('A' for Active; 'I' for Inactive)
REMARK    1  A    between atoms: C_4  and  C_5
REMARK    2  A    between atoms: C_5  and  N_6
REMARK    3  A    between atoms: N_12  and  C_13
REMARK    4  A    between atoms: C_16  and  C_17
REMARK    5  A    between atoms: C_20  and  C_21
REMARK    6  A    between atoms: C_21  and  O_22
REMARK    7  A    between atoms: C_21  and  C_23
REMARK                            x       y       z     vdW  Elec       q    Type
REMARK                         _______ _______ _______ _____ _____    ______ ____
ROOT
ATOM      1  C   UNL     1       2.958   6.836  18.908  0.00  0.00    +0.000 A 
ATOM      2  C   UNL     1       2.260   6.856  20.116  0.00  0.00    +0.000 A 
ATOM      3  C   UNL     1       1.433   7.927  20.446  0.00  0.00    +0.000 A 
ATOM      4  C   UNL     1       1.216   8.994  19.559  0.00  0.00    +0.000 A 
ATOM      5  C   UNL     1       1.928   8.960  18.350  0.00  0.00    +0.000 A 
ATOM      6  F   UNL     1       1.757   9.926  17.433  0.00  0.00    +0.000 F 
ATOM      7  C   UNL     1       2.794   7.915  18.031  0.00  0.00    +0.000 A 
ENDROOT
BRANCH   1  13
ATOM      8  O   UNL     1       2.422   4.281  17.453  0.00  0.00    +0.000 OA
ATOM      9  C   UNL     1       3.487   4.597  17.951  0.00  0.00    +0.000 C 
ATOM     10  O   UNL     1       4.585   3.786  17.882  0.00  0.00    +0.000 OA
ATOM     11  C   UNL     1       5.667   4.361  18.625  0.00  0.00    +0.000 C 
ATOM     12  C   UNL     1       5.205   5.766  18.969  0.00  0.00    +0.000 C 
ATOM     13  N   UNL     1       3.827   5.767  18.600  0.00  0.00    +0.000 N 
BRANCH  11  14
ATOM     14  C   UNL     1       6.927   4.392  17.773  0.00  0.00    +0.000 C 
BRANCH  14  15
ATOM     15  N   UNL     1       6.647   4.621  16.375  0.00  0.00    +0.000 N 
ATOM     16  C   UNL     1       6.329   3.706  15.416  0.00  0.00    +0.000 A 
ATOM     17  C   UNL     1       6.029   4.477  14.320  0.00  0.00    +0.000 A 
ATOM     18  N   UNL     1       6.177   5.799  14.639  0.00  0.00    +0.000 NA
ATOM     19  N   UNL     1       6.561   5.877  15.906  0.00  0.00    +0.000 NA
ENDBRANCH  14  15
ENDBRANCH  11  14
ENDBRANCH   1  13
BRANCH   4  20
ATOM     20  C   UNL     1       0.243  10.048  19.882  0.00  0.00    +0.000 A 
ATOM     21  C   UNL     1      -0.879  10.253  19.068  0.00  0.00    +0.000 A 
ATOM     22  C   UNL     1      -1.802  11.247  19.356  0.00  0.00    +0.000 A 
ATOM     23  C   UNL     1      -1.583  12.065  20.454  0.00  0.00    +0.000 A 
ATOM     24  N   UNL     1      -0.509  11.907  21.275  0.00  0.00    +0.000 NA
ATOM     25  C   UNL     1       0.361  10.909  20.974  0.00  0.00    +0.000 A 
BRANCH  23  26
ATOM     26  C   UNL     1      -2.580  13.153  20.816  0.00  0.00    +0.000 C 
BRANCH  26  27
ATOM     27  C   UNL     1      -3.394  12.773  22.044  0.00  0.00    +0.000 C 
ATOM     28  C   UNL     1      -3.619  13.811  23.162  0.00  0.00    +0.000 C 
ATOM     29  N   UNL     1      -5.062  13.541  23.114  0.00  0.00    +0.000 NA
ATOM     30  C   UNL     1      -4.920  12.841  21.830  0.00  0.00    +0.000 C 
ATOM     31  H   UNL     1      -5.654  14.370  23.080  0.00  0.00    +0.000 HD
ENDBRANCH  26  27
BRANCH  26  32
ATOM     32  O   UNL     1      -3.496  13.331  19.728  0.00  0.00    +0.000 OA
ATOM     33  H   UNL     1      -4.383  13.267  20.142  0.00  0.00    +0.000 HD
ENDBRANCH  26  32
ENDBRANCH  23  26
ENDBRANCH   4  20
TORSDOF 7
ENDMDL
MODEL 5
REMARK VINA RESULT:      -8.2      1.741      2.405
REMARK  Name = 
REMARK  7 active torsions:
REMARK  status: ('A' for Active; 'I' for Inactive)
REMARK    1  A    between atoms: C_4  and  C_5
REMARK    2  A    between atoms: C_5  and  N_6
REMARK    3  A    between atoms: N_12  and  C_13
REMARK    4  A    between atoms: C_16  and  C_17
REMARK    5  A    between atoms: C_20  and  C_21
REMARK    6  A    between atoms: C_21  and  O_22
REMARK    7  A    between atoms: C_21  and  C_23
REMARK                            x       y       z     vdW  Elec       q    Type
REMARK                         _______ _______ _______ _____ _____    ______ ____
ROOT
ATOM      1  C   UNL     1       2.431   6.894  19.417  0.00  0.00    +0.000 A 
ATOM      2  C   UNL     1       1.831   6.854  20.676  0.00  0.00    +0.000 A 
ATOM      3  C   UNL     1       1.083   7.932  21.147  0.00  0.00    +0.000 A 
ATOM      4  C   UNL     1       0.850   9.070  20.357  0.00  0.00    +0.000 A 
ATOM      5  C   UNL     1       1.464   9.096  19.095  0.00  0.00    +0.000 A 
ATOM      6  F   UNL     1       1.269  10.134  18.266  0.00  0.00    +0.000 F 
ATOM      7  C   UNL     1       2.252   8.042  18.635  0.00  0.00    +0.000 A 
ENDROOT
BRANCH   1  13
ATOM      8  O   UNL     1       1.743   4.649  17.570  0.00  0.00    +0.000 OA
ATOM      9  C   UNL     1       2.811   4.793  18.135  0.00  0.00    +0.000 C 
ATOM     10  O   UNL     1       3.843   3.912  17.964  0.00  0.00    +0.000 OA
ATOM     11  C   UNL     1       4.940   4.272  18.812  0.00  0.00    +0.000 C 
ATOM     12  C   UNL     1       4.581   5.642  19.360  0.00  0.00    +0.000 C 
ATOM     13  N   UNL     1       3.222   5.816  18.965  0.00  0.00    +0.000 N 
BRANCH  11  14
ATOM     14  C   UNL     1       6.228   4.326  18.003  0.00  0.00    +0.000 C 
BRANCH  14  15
ATOM     15  N   UNL     1       6.732   5.671  17.851  0.00  0.00    +0.000 N 
ATOM     16  C   UNL     1       7.695   6.301  18.582  0.00  0.00    +0.000 A 
ATOM     17  C   UNL     1       7.875   7.491  17.923  0.00  0.00    +0.000 A 
ATOM     18  N   UNL     1       7.034   7.548  16.846  0.00  0.00    +0.000 NA
ATOM     19  N   UNL     1       6.332   6.423  16.812  0.00  0.00    +0.000 NA
ENDBRANCH  14  15
ENDBRANCH  11  14
ENDBRANCH   1  13
BRANCH   4  20
ATOM     20  C   UNL     1      -0.044  10.137  20.832  0.00  0.00    +0.000 A 
ATOM     21  C   UNL     1      -0.159  10.410  22.201  0.00  0.00    +0.000 A 
ATOM     22  C   UNL     1      -1.004  11.408  22.664  0.00  0.00    +0.000 A 
ATOM     23  C   UNL     1      -1.764  12.120  21.749  0.00  0.00    +0.000 A 
ATOM     24  N   UNL     1      -1.687  11.892  20.409  0.00  0.00    +0.000 NA
ATOM     25  C   UNL     1      -0.834  10.923  19.992  0.00  0.00    +0.000 A 
BRANCH  23  26
ATOM     26  C   UNL     1      -2.685  13.235  22.213  0.00  0.00    +0.000 C 
BRANCH  26  27
ATOM     27  C   UNL     1      -2.595  13.439  23.717  0.00  0.00    +0.000 C 
ATOM     28  C   UNL     1      -2.625  14.867  24.298  0.00  0.00    +0.000 C 
ATOM     29  N   UNL     1      -3.688  14.461  25.225  0.00  0.00    +0.000 NA
ATOM     30  C   UNL     1      -3.932  13.232  24.459  0.00  0.00    +0.000 C 
ATOM     31  H   UNL     1      -4.486  15.095  25.271  0.00  0.00    +0.000 HD
ENDBRANCH  26  27
BRANCH  26  32
ATOM     32  O   UNL     1      -4.040  12.883  21.904  0.00  0.00    +0.000 OA
ATOM     33  H   UNL     1      -4.580  13.554  22.374  0.00  0.00    +0.000 HD
ENDBRANCH  26  32
ENDBRANCH  23  26
ENDBRANCH   4  20
TORSDOF 7
ENDMDL
MODEL 6
REMARK VINA RESULT:      -8.2      1.450      1.903
REMARK  Name = 
REMARK  7 active torsions:
REMARK  status: ('A' for Active; 'I' for Inactive)
REMARK    1  A    between atoms: C_4  and  C_5
REMARK    2  A    between atoms: C_5  and  N_6
REMARK    3  A    between atoms: N_12  and  C_13
REMARK    4  A    between atoms: C_16  and  C_17
REMARK    5  A    between atoms: C_20  and  C_21
REMARK    6  A    between atoms: C_21  and  O_22
REMARK    7  A    between atoms: C_21  and  C_23
REMARK                            x       y       z     vdW  Elec       q    Type
REMARK                         _______ _______ _______ _____ _____    ______ ____
ROOT
ATOM      1  C   UNL     1       2.649   6.917  19.096  0.00  0.00    +0.000 A 
ATOM      2  C   UNL     1       2.065   7.028  20.358  0.00  0.00    +0.000 A 
ATOM      3  C   UNL     1       1.302   8.144  20.697  0.00  0.00    +0.000 A 
ATOM      4  C   UNL     1       1.038   9.168  19.772  0.00  0.00    +0.000 A 
ATOM      5  C   UNL     1       1.636   9.042  18.509  0.00  0.00    +0.000 A 
ATOM      6  F   UNL     1       1.412   9.961  17.556  0.00  0.00    +0.000 F 
ATOM      7  C   UNL     1       2.438   7.952  18.176  0.00  0.00    +0.000 A 
ENDROOT
BRANCH   1  13
ATOM      8  O   UNL     1       2.878   4.259  20.441  0.00  0.00    +0.000 OA
ATOM      9  C   UNL     1       3.527   4.617  19.476  0.00  0.00    +0.000 C 
ATOM     10  O   UNL     1       4.453   3.803  18.886  0.00  0.00    +0.000 OA
ATOM     11  C   UNL     1       5.129   4.508  17.837  0.00  0.00    +0.000 C 
ATOM     12  C   UNL     1       4.344   5.795  17.659  0.00  0.00    +0.000 C 
ATOM     13  N   UNL     1       3.454   5.804  18.774  0.00  0.00    +0.000 N 
BRANCH  11  14
ATOM     14  C   UNL     1       5.120   3.679  16.561  0.00  0.00    +0.000 C 
BRANCH  14  15
ATOM     15  N   UNL     1       6.047   4.174  15.571  0.00  0.00    +0.000 N 
ATOM     16  C   UNL     1       5.946   4.113  14.213  0.00  0.00    +0.000 A 
ATOM     17  C   UNL     1       7.016   4.854  13.775  0.00  0.00    +0.000 A 
ATOM     18  N   UNL     1       7.716   5.324  14.852  0.00  0.00    +0.000 NA
ATOM     19  N   UNL     1       7.113   4.897  15.953  0.00  0.00    +0.000 NA
ENDBRANCH  14  15
ENDBRANCH  11  14
ENDBRANCH   1  13
BRANCH   4  20
ATOM     20  C   UNL     1       0.130  10.271  20.119  0.00  0.00    +0.000 A 
ATOM     21  C   UNL     1       0.251  10.931  21.349  0.00  0.00    +0.000 A 
ATOM     22  C   UNL     1      -0.602  11.968  21.694  0.00  0.00    +0.000 A 
ATOM     23  C   UNL     1      -1.608  12.329  20.809  0.00  0.00    +0.000 A 
ATOM     24  N   UNL     1      -1.767  11.718  19.603  0.00  0.00    +0.000 NA
ATOM     25  C   UNL     1      -0.899  10.722  19.292  0.00  0.00    +0.000 A 
BRANCH  23  26
ATOM     26  C   UNL     1      -2.551  13.473  21.139  0.00  0.00    +0.000 C 
BRANCH  26  27
ATOM     27  C   UNL     1      -3.545  13.077  22.221  0.00  0.00    +0.000 C 
ATOM     28  C   UNL     1      -4.310  14.172  22.992  0.00  0.00    +0.000 C 
ATOM     29  N   UNL     1      -5.575  13.484  22.703  0.00  0.00    +0.000 NA
ATOM     30  C   UNL     1      -4.927  12.655  21.678  0.00  0.00    +0.000 C 
ATOM     31  H   UNL     1      -6.321  14.083  22.352  0.00  0.00    +0.000 HD
ENDBRANCH  26  27
BRANCH  26  32
ATOM     32  O   UNL     1      -3.301  13.817  19.967  0.00  0.00    +0.000 OA
ATOM     33  H   UNL     1      -3.548  14.757  20.102  0.00  0.00    +0.000 HD
ENDBRANCH  26  32
ENDBRANCH  23  26
ENDBRANCH   4  20
TORSDOF 7
ENDMDL
MODEL 7
REMARK VINA RESULT:      -8.1      1.199      1.339
REMARK  Name = 
REMARK  7 active torsions:
REMARK  status: ('A' for Active; 'I' for Inactive)
REMARK    1  A    between atoms: C_4  and  C_5
REMARK    2  A    between atoms: C_5  and  N_6
REMARK    3  A    between atoms: N_12  and  C_13
REMARK    4  A    between atoms: C_16  and  C_17
REMARK    5  A    between atoms: C_20  and  C_21
REMARK    6  A    between atoms: C_21  and  O_22
REMARK    7  A    between atoms: C_21  and  C_23
REMARK                            x       y       z     vdW  Elec       q    Type
REMARK                         _______ _______ _______ _____ _____    ______ ____
ROOT
ATOM      1  C   UNL     1       2.582   7.131  19.152  0.00  0.00    +0.000 A 
ATOM      2  C   UNL     1       2.315   8.135  18.222  0.00  0.00    +0.000 A 
ATOM      3  C   UNL     1       1.468   9.195  18.537  0.00  0.00    +0.000 A 
ATOM      4  C   UNL     1       0.900   9.333  19.814  0.00  0.00    +0.000 A 
ATOM      5  C   UNL     1       1.176   8.313  20.738  0.00  0.00    +0.000 A 
ATOM      6  F   UNL     1       0.697   8.381  21.990  0.00  0.00    +0.000 F 
ATOM      7  C   UNL     1       1.985   7.224  20.416  0.00  0.00    +0.000 A 
ENDROOT
BRANCH   1  13
ATOM      8  O   UNL     1       3.008   4.531  20.563  0.00  0.00    +0.000 OA
ATOM      9  C   UNL     1       3.575   4.880  19.544  0.00  0.00    +0.000 C 
ATOM     10  O   UNL     1       4.490   4.081  18.917  0.00  0.00    +0.000 OA
ATOM     11  C   UNL     1       5.063   4.773  17.801  0.00  0.00    +0.000 C 
ATOM     12  C   UNL     1       4.217   6.023  17.637  0.00  0.00    +0.000 C 
ATOM     13  N   UNL     1       3.407   6.038  18.811  0.00  0.00    +0.000 N 
BRANCH  11  14
ATOM     14  C   UNL     1       4.999   3.901  16.556  0.00  0.00    +0.000 C 
BRANCH  14  15
ATOM     15  N   UNL     1       5.971   4.285  15.559  0.00  0.00    +0.000 N 
ATOM     16  C   UNL     1       5.874   4.187  14.203  0.00  0.00    +0.000 A 
ATOM     17  C   UNL     1       7.004   4.823  13.751  0.00  0.00    +0.000 A 
ATOM     18  N   UNL     1       7.733   5.270  14.818  0.00  0.00    +0.000 NA
ATOM     19  N   UNL     1       7.090   4.931  15.927  0.00  0.00    +0.000 NA
ENDBRANCH  14  15
ENDBRANCH  11  14
ENDBRANCH   1  13
BRANCH   4  20
ATOM     20  C   UNL     1       0.111  10.525  20.156  0.00  0.00    +0.000 A 
ATOM     21  C   UNL     1      -1.100  10.787  19.501  0.00  0.00    +0.000 A 
ATOM     22  C   UNL     1      -1.852  11.912  19.807  0.00  0.00    +0.000 A 
ATOM     23  C   UNL     1      -1.372  12.800  20.757  0.00  0.00    +0.000 A 
ATOM     24  N   UNL     1      -0.202  12.590  21.420  0.00  0.00    +0.000 NA
ATOM     25  C   UNL     1       0.496  11.468  21.109  0.00  0.00    +0.000 A 
BRANCH  23  26
ATOM     26  C   UNL     1      -2.174  14.033  21.136  0.00  0.00    +0.000 C 
BRANCH  26  27
ATOM     27  C   UNL     1      -2.927  13.825  22.441  0.00  0.00    +0.000 C 
ATOM     28  C   UNL     1      -4.469  13.838  22.443  0.00  0.00    +0.000 C 
ATOM     29  N   UNL     1      -4.473  12.562  23.169  0.00  0.00    +0.000 NA
ATOM     30  C   UNL     1      -3.054  12.346  22.863  0.00  0.00    +0.000 C 
ATOM     31  H   UNL     1      -5.100  11.852  22.791  0.00  0.00    +0.000 HD
ENDBRANCH  26  27
BRANCH  26  32
ATOM     32  O   UNL     1      -3.144  14.294  20.113  0.00  0.00    +0.000 OA
ATOM     33  H   UNL     1      -3.252  15.269  20.122  0.00  0.00    +0.000 HD
ENDBRANCH  26  32
ENDBRANCH  23  26
ENDBRANCH   4  20
TORSDOF 7
ENDMDL
MODEL 8
REMARK VINA RESULT:      -8.1      2.420      3.635
REMARK  Name = 
REMARK  7 active torsions:
REMARK  status: ('A' for Active; 'I' for Inactive)
REMARK    1  A    between atoms: C_4  and  C_5
REMARK    2  A    between atoms: C_5  and  N_6
REMARK    3  A    between atoms: N_12  and  C_13
REMARK    4  A    between atoms: C_16  and  C_17
REMARK    5  A    between atoms: C_20  and  C_21
REMARK    6  A    between atoms: C_21  and  O_22
REMARK    7  A    between atoms: C_21  and  C_23
REMARK                            x       y       z     vdW  Elec       q    Type
REMARK                         _______ _______ _______ _____ _____    ______ ____
ROOT
ATOM      1  C   UNL     1       2.349   7.056  18.609  0.00  0.00    +0.000 A 
ATOM      2  C   UNL     1       2.107   8.065  17.677  0.00  0.00    +0.000 A 
ATOM      3  C   UNL     1       1.490   9.256  18.056  0.00  0.00    +0.000 A 
ATOM      4  C   UNL     1       1.146   9.516  19.393  0.00  0.00    +0.000 A 
ATOM      5  C   UNL     1       1.394   8.489  20.317  0.00  0.00    +0.000 A 
ATOM      6  F   UNL     1       1.122   8.667  21.620  0.00  0.00    +0.000 F 
ATOM      7  C   UNL     1       1.968   7.277  19.938  0.00  0.00    +0.000 A 
ENDROOT
BRANCH   1  13
ATOM      8  O   UNL     1       5.229   6.296  18.369  0.00  0.00    +0.000 OA
ATOM      9  C   UNL     1       4.287   5.579  18.089  0.00  0.00    +0.000 C 
ATOM     10  O   UNL     1       4.462   4.303  17.628  0.00  0.00    +0.000 OA
ATOM     11  C   UNL     1       3.194   3.725  17.294  0.00  0.00    +0.000 C 
ATOM     12  C   UNL     1       2.162   4.697  17.837  0.00  0.00    +0.000 C 
ATOM     13  N   UNL     1       2.936   5.836  18.208  0.00  0.00    +0.000 N 
BRANCH  11  14
ATOM     14  C   UNL     1       3.056   2.357  17.946  0.00  0.00    +0.000 C 
BRANCH  14  15
ATOM     15  N   UNL     1       2.674   2.441  19.336  0.00  0.00    +0.000 N 
ATOM     16  C   UNL     1       3.464   2.700  20.416  0.00  0.00    +0.000 A 
ATOM     17  C   UNL     1       2.571   2.804  21.454  0.00  0.00    +0.000 A 
ATOM     18  N   UNL     1       1.302   2.605  20.984  0.00  0.00    +0.000 NA
ATOM     19  N   UNL     1       1.376   2.380  19.679  0.00  0.00    +0.000 NA
ENDBRANCH  14  15
ENDBRANCH  11  14
ENDBRANCH   1  13
BRANCH   4  20
ATOM     20  C   UNL     1       0.610  10.828  19.783  0.00  0.00    +0.000 A 
ATOM     21  C   UNL     1      -0.772  11.052  19.809  0.00  0.00    +0.000 A 
ATOM     22  C   UNL     1      -1.293  12.287  20.168  0.00  0.00    +0.000 A 
ATOM     23  C   UNL     1      -0.418  13.318  20.476  0.00  0.00    +0.000 A 
ATOM     24  N   UNL     1       0.933  13.151  20.465  0.00  0.00    +0.000 NA
ATOM     25  C   UNL     1       1.404  11.923  20.130  0.00  0.00    +0.000 A 
BRANCH  23  26
ATOM     26  C   UNL     1      -0.946  14.679  20.894  0.00  0.00    +0.000 C 
BRANCH  26  27
ATOM     27  C   UNL     1      -1.606  14.621  22.263  0.00  0.00    +0.000 C 
ATOM     28  C   UNL     1      -1.084  13.627  23.320  0.00  0.00    +0.000 C 
ATOM     29  N   UNL     1      -0.997  14.719  24.297  0.00  0.00    +0.000 NA
ATOM     30  C   UNL     1      -1.132  15.723  23.234  0.00  0.00    +0.000 C 
ATOM     31  H   UNL     1      -0.119  14.766  24.813  0.00  0.00    +0.000 HD
ENDBRANCH  26  27
BRANCH  26  32
ATOM     32  O   UNL     1      -1.940  15.106  19.953  0.00  0.00    +0.000 OA
ATOM     33  H   UNL     1      -2.645  15.505  20.506  0.00  0.00    +0.000 HD
ENDBRANCH  26  32
ENDBRANCH  23  26
ENDBRANCH   4  20
TORSDOF 7
ENDMDL
MODEL 9
REMARK VINA RESULT:      -8.1      1.253      1.552
REMARK  Name = 
REMARK  7 active torsions:
REMARK  status: ('A' for Active; 'I' for Inactive)
REMARK    1  A    between atoms: C_4  and  C_5
REMARK    2  A    between atoms: C_5  and  N_6
REMARK    3  A    between atoms: N_12  and  C_13
REMARK    4  A    between atoms: C_16  and  C_17
REMARK    5  A    between atoms: C_20  and  C_21
REMARK    6  A    between atoms: C_21  and  O_22
REMARK    7  A    between atoms: C_21  and  C_23
REMARK                            x       y       z     vdW  Elec       q    Type
REMARK                         _______ _______ _______ _____ _____    ______ ____
ROOT
ATOM      1  C   UNL     1       2.824   7.061  18.726  0.00  0.00    +0.000 A 
ATOM      2  C   UNL     1       2.515   8.097  17.844  0.00  0.00    +0.000 A 
ATOM      3  C   UNL     1       1.653   9.124  18.221  0.00  0.00    +0.000 A 
ATOM      4  C   UNL     1       1.111   9.196  19.515  0.00  0.00    +0.000 A 
ATOM      5  C   UNL     1       1.429   8.145  20.389  0.00  0.00    +0.000 A 
ATOM      6  F   UNL     1       0.976   8.151  21.653  0.00  0.00    +0.000 F 
ATOM      7  C   UNL     1       2.253   7.089  20.005  0.00  0.00    +0.000 A 
ENDROOT
BRANCH   1  13
ATOM      8  O   UNL     1       3.333   4.413  20.015  0.00  0.00    +0.000 OA
ATOM      9  C   UNL     1       3.871   4.817  19.001  0.00  0.00    +0.000 C 
ATOM     10  O   UNL     1       4.789   4.066  18.322  0.00  0.00    +0.000 OA
ATOM     11  C   UNL     1       5.325   4.817  17.226  0.00  0.00    +0.000 C 
ATOM     12  C   UNL     1       4.450   6.055  17.133  0.00  0.00    +0.000 C 
ATOM     13  N   UNL     1       3.664   6.002  18.322  0.00  0.00    +0.000 N 
BRANCH  11  14
ATOM     14  C   UNL     1       5.254   3.997  15.947  0.00  0.00    +0.000 C 
BRANCH  14  15
ATOM     15  N   UNL     1       6.267   4.374  14.989  0.00  0.00    +0.000 N 
ATOM     16  C   UNL     1       6.358   4.028  13.674  0.00  0.00    +0.000 A 
ATOM     17  C   UNL     1       7.417   4.771  13.215  0.00  0.00    +0.000 A 
ATOM     18  N   UNL     1       7.925   5.521  14.240  0.00  0.00    +0.000 NA
ATOM     19  N   UNL     1       7.212   5.266  15.329  0.00  0.00    +0.000 NA
ENDBRANCH  14  15
ENDBRANCH  11  14
ENDBRANCH   1  13
BRANCH   4  20
ATOM     20  C   UNL     1       0.304  10.356  19.923  0.00  0.00    +0.000 A 
ATOM     21  C   UNL     1       0.819  11.298  20.824  0.00  0.00    +0.000 A 
ATOM     22  C   UNL     1       0.068  12.393  21.224  0.00  0.00    +0.000 A 
ATOM     23  C   UNL     1      -1.224  12.531  20.739  0.00  0.00    +0.000 A 
ATOM     24  N   UNL     1      -1.769  11.644  19.862  0.00  0.00    +0.000 NA
ATOM     25  C   UNL     1      -0.996  10.596  19.478  0.00  0.00    +0.000 A 
BRANCH  23  26
ATOM     26  C   UNL     1      -2.073  13.727  21.136  0.00  0.00    +0.000 C 
BRANCH  26  27
ATOM     27  C   UNL     1      -3.473  13.300  21.548  0.00  0.00    +0.000 C 
ATOM     28  C   UNL     1      -4.313  14.217  22.460  0.00  0.00    +0.000 C 
ATOM     29  N   UNL     1      -5.432  14.123  21.514  0.00  0.00    +0.000 NA
ATOM     30  C   UNL     1      -4.551  13.569  20.478  0.00  0.00    +0.000 C 
ATOM     31  H   UNL     1      -5.865  15.013  21.269  0.00  0.00    +0.000 HD
ENDBRANCH  26  27
BRANCH  26  32
ATOM     32  O   UNL     1      -2.202  14.605  20.010  0.00  0.00    +0.000 OA
ATOM     33  H   UNL     1      -3.168  14.658  19.851  0.00  0.00    +0.000 HD
ENDBRANCH  26  32
ENDBRANCH  23  26
ENDBRANCH   4  20
TORSDOF 7
ENDMDL
