MODEL 1
REMARK VINA RESULT:      -6.7      0.000      0.000
REMARK  Name = 
REMARK  3 active torsions:
REMARK  status: ('A' for Active; 'I' for Inactive)
REMARK    1  A    between atoms: C_1  and  O_2
REMARK    2  A    between atoms: O_2  and  C_3
REMARK    3  A    between atoms: C_3  and  C_5
REMARK                            x       y       z     vdW  Elec       q    Type
REMARK                         _______ _______ _______ _____ _____    ______ ____
ROOT
ATOM      1  C   UNL     1       6.124   5.401  17.467  0.00  0.00    +0.000 A 
ATOM      2  C   UNL     1       4.878   5.973  17.320  0.00  0.00    +0.000 A 
ATOM      3  C   UNL     1       3.831   5.495  18.107  0.00  0.00    +0.000 A 
ATOM      4  C   UNL     1       4.037   4.463  19.018  0.00  0.00    +0.000 A 
ATOM      5  N   UNL     1       3.013   3.945  19.764  0.00  0.00    +0.000 N 
ATOM      6  C   UNL     1       3.215   2.843  20.690  0.00  0.00    +0.000 C 
ATOM      7  C   UNL     1       1.791   2.345  20.903  0.00  0.00    +0.000 C 
ATOM      8  C   UNL     1       0.960   3.623  20.884  0.00  0.00    +0.000 C 
ATOM      9  C   UNL     1       1.711   4.568  19.945  0.00  0.00    +0.000 C 
ATOM     10  N   UNL     1       5.281   3.941  19.119  0.00  0.00    +0.000 NA
ATOM     11  N   UNL     1       6.337   4.405  18.347  0.00  0.00    +0.000 NA
ENDROOT
BRANCH   1  12
ATOM     12  C   UNL     1       7.260   5.885  16.642  0.00  0.00    +0.000 C 
ATOM     13  O   UNL     1       7.709   7.021  16.714  0.00  0.00    +0.000 OA
BRANCH  12  15
ATOM     14  C   UNL     1       6.977   4.775  14.602  0.00  0.00    +0.000 C 
ATOM     15  O   UNL     1       7.711   4.906  15.819  0.00  0.00    +0.000 OA
ENDBRANCH  12  15
ENDBRANCH   1  12
TORSDOF 2
ENDMDL
MODEL 2
REMARK VINA RESULT:      -6.6      0.744      1.424
REMARK  Name = 
REMARK  3 active torsions:
REMARK  status: ('A' for Active; 'I' for Inactive)
REMARK    1  A    between atoms: C_1  and  O_2
REMARK    2  A    between atoms: O_2  and  C_3
REMARK    3  A    between atoms: C_3  and  C_5
REMARK                            x       y       z     vdW  Elec       q    Type
REMARK                         _______ _______ _______ _____ _____    ______ ____
ROOT
ATOM      1  C   UNL     1       5.961   4.924  17.279  0.00  0.00    +0.000 A 
ATOM      2  C   UNL     1       4.671   5.105  16.826  0.00  0.00    +0.000 A 
ATOM      3  C   UNL     1       3.618   4.696  17.644  0.00  0.00    +0.000 A 
ATOM      4  C   UNL     1       3.862   4.117  18.885  0.00  0.00    +0.000 A 
ATOM      5  N   UNL     1       2.845   3.662  19.681  0.00  0.00    +0.000 N 
ATOM      6  C   UNL     1       3.095   3.023  20.962  0.00  0.00    +0.000 C 
ATOM      7  C   UNL     1       1.774   2.312  21.224  0.00  0.00    +0.000 C 
ATOM      8  C   UNL     1       0.734   3.276  20.664  0.00  0.00    +0.000 C 
ATOM      9  C   UNL     1       1.438   3.989  19.509  0.00  0.00    +0.000 C 
ATOM     10  N   UNL     1       5.148   3.965  19.276  0.00  0.00    +0.000 NA
ATOM     11  N   UNL     1       6.210   4.368  18.479  0.00  0.00    +0.000 NA
ENDROOT
BRANCH   1  12
ATOM     12  C   UNL     1       7.106   5.346  16.431  0.00  0.00    +0.000 C 
ATOM     13  O   UNL     1       7.852   4.559  15.865  0.00  0.00    +0.000 OA
BRANCH  12  15
ATOM     14  C   UNL     1       7.630   7.305  17.600  0.00  0.00    +0.000 C 
ATOM     15  O   UNL     1       7.198   6.698  16.382  0.00  0.00    +0.000 OA
ENDBRANCH  12  15
ENDBRANCH   1  12
TORSDOF 2
ENDMDL
MODEL 3
REMARK VINA RESULT:      -6.6      1.048      1.685
REMARK  Name = 
REMARK  3 active torsions:
REMARK  status: ('A' for Active; 'I' for Inactive)
REMARK    1  A    between atoms: C_1  and  O_2
REMARK    2  A    between atoms: O_2  and  C_3
REMARK    3  A    between atoms: C_3  and  C_5
REMARK                            x       y       z     vdW  Elec       q    Type
REMARK                         _______ _______ _______ _____ _____    ______ ____
ROOT
ATOM      1  C   UNL     1       6.192   5.920  17.922  0.00  0.00    +0.000 A 
ATOM      2  C   UNL     1       4.927   6.413  17.681  0.00  0.00    +0.000 A 
ATOM      3  C   UNL     1       3.842   5.781  18.289  0.00  0.00    +0.000 A 
ATOM      4  C   UNL     1       4.031   4.678  19.116  0.00  0.00    +0.000 A 
ATOM      5  N   UNL     1       2.976   4.012  19.681  0.00  0.00    +0.000 N 
ATOM      6  C   UNL     1       3.165   2.838  20.516  0.00  0.00    +0.000 C 
ATOM      7  C   UNL     1       1.774   2.219  20.509  0.00  0.00    +0.000 C 
ATOM      8  C   UNL     1       0.846   3.428  20.511  0.00  0.00    +0.000 C 
ATOM      9  C   UNL     1       1.615   4.517  19.763  0.00  0.00    +0.000 C 
ATOM     10  N   UNL     1       5.295   4.239  19.316  0.00  0.00    +0.000 NA
ATOM     11  N   UNL     1       6.388   4.856  18.723  0.00  0.00    +0.000 NA
ENDROOT
BRANCH   1  12
ATOM     12  C   UNL     1       7.369   6.568  17.288  0.00  0.00    +0.000 C 
ATOM     13  O   UNL     1       7.672   6.414  16.113  0.00  0.00    +0.000 OA
BRANCH  12  15
ATOM     14  C   UNL     1       8.070   8.724  17.867  0.00  0.00    +0.000 C 
ATOM     15  O   UNL     1       8.040   7.333  18.185  0.00  0.00    +0.000 OA
ENDBRANCH  12  15
ENDBRANCH   1  12
TORSDOF 2
ENDMDL
MODEL 4
REMARK VINA RESULT:      -6.5      1.680      2.135
REMARK  Name = 
REMARK  3 active torsions:
REMARK  status: ('A' for Active; 'I' for Inactive)
REMARK    1  A    between atoms: C_1  and  O_2
REMARK    2  A    between atoms: O_2  and  C_3
REMARK    3  A    between atoms: C_3  and  C_5
REMARK                            x       y       z     vdW  Elec       q    Type
REMARK                         _______ _______ _______ _____ _____    ______ ____
ROOT
ATOM      1  C   UNL     1       5.733   4.786  15.595  0.00  0.00    +0.000 A 
ATOM      2  C   UNL     1       5.301   6.031  16.003  0.00  0.00    +0.000 A 
ATOM      3  C   UNL     1       4.427   6.106  17.087  0.00  0.00    +0.000 A 
ATOM      4  C   UNL     1       3.997   4.954  17.739  0.00  0.00    +0.000 A 
ATOM      5  N   UNL     1       3.100   5.003  18.772  0.00  0.00    +0.000 N 
ATOM      6  C   UNL     1       2.621   3.801  19.433  0.00  0.00    +0.000 C 
ATOM      7  C   UNL     1       1.368   4.306  20.136  0.00  0.00    +0.000 C 
ATOM      8  C   UNL     1       1.746   5.717  20.568  0.00  0.00    +0.000 C 
ATOM      9  C   UNL     1       2.735   6.203  19.507  0.00  0.00    +0.000 C 
ATOM     10  N   UNL     1       4.456   3.761  17.294  0.00  0.00    +0.000 NA
ATOM     11  N   UNL     1       5.329   3.665  16.220  0.00  0.00    +0.000 NA
ENDROOT
BRANCH   1  12
ATOM     12  C   UNL     1       6.663   4.671  14.442  0.00  0.00    +0.000 C 
ATOM     13  O   UNL     1       7.599   5.436  14.251  0.00  0.00    +0.000 OA
BRANCH  12  15
ATOM     14  C   UNL     1       6.634   3.797  12.272  0.00  0.00    +0.000 C 
ATOM     15  O   UNL     1       6.327   3.619  13.654  0.00  0.00    +0.000 OA
ENDBRANCH  12  15
ENDBRANCH   1  12
TORSDOF 2
ENDMDL
MODEL 5
REMARK VINA RESULT:      -6.4      3.353      5.862
REMARK  Name = 
REMARK  3 active torsions:
REMARK  status: ('A' for Active; 'I' for Inactive)
REMARK    1  A    between atoms: C_1  and  O_2
REMARK    2  A    between atoms: O_2  and  C_3
REMARK    3  A    between atoms: C_3  and  C_5
REMARK                            x       y       z     vdW  Elec       q    Type
REMARK                         _______ _______ _______ _____ _____    ______ ____
ROOT
ATOM      1  C   UNL     1       2.839   3.411  18.884  0.00  0.00    +0.000 A 
ATOM      2  C   UNL     1       2.646   4.572  18.167  0.00  0.00    +0.000 A 
ATOM      3  C   UNL     1       3.749   5.390  17.921  0.00  0.00    +0.000 A 
ATOM      4  C   UNL     1       5.012   5.045  18.391  0.00  0.00    +0.000 A 
ATOM      5  N   UNL     1       6.098   5.858  18.205  0.00  0.00    +0.000 N 
ATOM      6  C   UNL     1       7.412   5.520  18.725  0.00  0.00    +0.000 C 
ATOM      7  C   UNL     1       8.124   6.866  18.682  0.00  0.00    +0.000 C 
ATOM      8  C   UNL     1       7.581   7.516  17.416  0.00  0.00    +0.000 C 
ATOM      9  C   UNL     1       6.159   6.971  17.270  0.00  0.00    +0.000 C 
ATOM     10  N   UNL     1       5.140   3.893  19.090  0.00  0.00    +0.000 NA
ATOM     11  N   UNL     1       4.056   3.064  19.341  0.00  0.00    +0.000 NA
ENDROOT
BRANCH   1  12
ATOM     12  C   UNL     1       1.685   2.518  19.166  0.00  0.00    +0.000 C 
ATOM     13  O   UNL     1       0.811   2.267  18.347  0.00  0.00    +0.000 OA
BRANCH  12  15
ATOM     14  C   UNL     1       1.398   2.990  21.440  0.00  0.00    +0.000 C 
ATOM     15  O   UNL     1       1.742   2.039  20.433  0.00  0.00    +0.000 OA
ENDBRANCH  12  15
ENDBRANCH   1  12
TORSDOF 2
ENDMDL
MODEL 6
REMARK VINA RESULT:      -6.3      1.246      1.701
REMARK  Name = 
REMARK  3 active torsions:
REMARK  status: ('A' for Active; 'I' for Inactive)
REMARK    1  A    between atoms: C_1  and  O_2
REMARK    2  A    between atoms: O_2  and  C_3
REMARK    3  A    between atoms: C_3  and  C_5
REMARK                            x       y       z     vdW  Elec       q    Type
REMARK                         _______ _______ _______ _____ _____    ______ ____
ROOT
ATOM      1  C   UNL     1       5.692   5.279  17.065  0.00  0.00    +0.000 A 
ATOM      2  C   UNL     1       6.116   4.717  18.251  0.00  0.00    +0.000 A 
ATOM      3  C   UNL     1       5.161   4.155  19.097  0.00  0.00    +0.000 A 
ATOM      4  C   UNL     1       3.812   4.165  18.757  0.00  0.00    +0.000 A 
ATOM      5  N   UNL     1       2.853   3.665  19.597  0.00  0.00    +0.000 N 
ATOM      6  C   UNL     1       1.439   3.706  19.262  0.00  0.00    +0.000 C 
ATOM      7  C   UNL     1       0.787   3.488  20.621  0.00  0.00    +0.000 C 
ATOM      8  C   UNL     1       1.723   2.502  21.311  0.00  0.00    +0.000 C 
ATOM      9  C   UNL     1       3.110   2.813  20.746  0.00  0.00    +0.000 C 
ATOM     10  N   UNL     1       3.455   4.731  17.580  0.00  0.00    +0.000 NA
ATOM     11  N   UNL     1       4.391   5.292  16.723  0.00  0.00    +0.000 NA
ENDROOT
BRANCH   1  12
ATOM     12  C   UNL     1       6.684   5.888  16.141  0.00  0.00    +0.000 C 
ATOM     13  O   UNL     1       7.679   6.488  16.522  0.00  0.00    +0.000 OA
BRANCH  12  15
ATOM     14  C   UNL     1       6.761   4.438  14.306  0.00  0.00    +0.000 C 
ATOM     15  O   UNL     1       6.327   5.685  14.848  0.00  0.00    +0.000 OA
ENDBRANCH  12  15
ENDBRANCH   1  12
TORSDOF 2
ENDMDL
MODEL 7
REMARK VINA RESULT:      -6.3      1.445      2.298
REMARK  Name = 
REMARK  3 active torsions:
REMARK  status: ('A' for Active; 'I' for Inactive)
REMARK    1  A    between atoms: C_1  and  O_2
REMARK    2  A    between atoms: O_2  and  C_3
REMARK    3  A    between atoms: C_3  and  C_5
REMARK                            x       y       z     vdW  Elec       q    Type
REMARK                         _______ _______ _______ _____ _____    ______ ____
ROOT
ATOM      1  C   UNL     1       6.183   5.870  17.856  0.00  0.00    +0.000 A 
ATOM      2  C   UNL     1       6.389   5.082  18.970  0.00  0.00    +0.000 A 
ATOM      3  C   UNL     1       5.288   4.447  19.544  0.00  0.00    +0.000 A 
ATOM      4  C   UNL     1       4.013   4.606  19.010  0.00  0.00    +0.000 A 
ATOM      5  N   UNL     1       2.912   4.032  19.588  0.00  0.00    +0.000 N 
ATOM      6  C   UNL     1       1.574   4.225  19.056  0.00  0.00    +0.000 C 
ATOM      7  C   UNL     1       0.703   3.817  20.237  0.00  0.00    +0.000 C 
ATOM      8  C   UNL     1       1.476   2.666  20.869  0.00  0.00    +0.000 C 
ATOM      9  C   UNL     1       2.947   2.977  20.588  0.00  0.00    +0.000 C 
ATOM     10  N   UNL     1       3.873   5.391  17.917  0.00  0.00    +0.000 NA
ATOM     11  N   UNL     1       4.956   6.028  17.328  0.00  0.00    +0.000 NA
ENDROOT
BRANCH   1  12
ATOM     12  C   UNL     1       7.334   6.563  17.221  0.00  0.00    +0.000 C 
ATOM     13  O   UNL     1       7.661   6.395  16.054  0.00  0.00    +0.000 OA
BRANCH  12  15
ATOM     14  C   UNL     1       7.889   8.769  17.768  0.00  0.00    +0.000 C 
ATOM     15  O   UNL     1       7.951   7.384  18.106  0.00  0.00    +0.000 OA
ENDBRANCH  12  15
ENDBRANCH   1  12
TORSDOF 2
ENDMDL
MODEL 8
REMARK VINA RESULT:      -6.2      1.952      2.539
REMARK  Name = 
REMARK  3 active torsions:
REMARK  status: ('A' for Active; 'I' for Inactive)
REMARK    1  A    between atoms: C_1  and  O_2
REMARK    2  A    between atoms: O_2  and  C_3
REMARK    3  A    between atoms: C_3  and  C_5
REMARK                            x       y       z     vdW  Elec       q    Type
REMARK                         _______ _______ _______ _____ _____    ______ ____
ROOT
ATOM      1  C   UNL     1       5.701   4.817  15.539  0.00  0.00    +0.000 A 
ATOM      2  C   UNL     1       5.236   3.627  16.058  0.00  0.00    +0.000 A 
ATOM      3  C   UNL     1       4.296   3.674  17.088  0.00  0.00    +0.000 A 
ATOM      4  C   UNL     1       3.840   4.893  17.582  0.00  0.00    +0.000 A 
ATOM      5  N   UNL     1       2.957   4.962  18.626  0.00  0.00    +0.000 N 
ATOM      6  C   UNL     1       2.506   6.231  19.170  0.00  0.00    +0.000 C 
ATOM      7  C   UNL     1       1.953   5.815  20.526  0.00  0.00    +0.000 C 
ATOM      8  C   UNL     1       1.323   4.454  20.251  0.00  0.00    +0.000 C 
ATOM      9  C   UNL     1       2.165   3.850  19.126  0.00  0.00    +0.000 C 
ATOM     10  N   UNL     1       4.332   6.028  17.033  0.00  0.00    +0.000 NA
ATOM     11  N   UNL     1       5.265   6.002  16.006  0.00  0.00    +0.000 NA
ENDROOT
BRANCH   1  12
ATOM     12  C   UNL     1       6.704   4.802  14.444  0.00  0.00    +0.000 C 
ATOM     13  O   UNL     1       7.702   5.510  14.434  0.00  0.00    +0.000 OA
BRANCH  12  15
ATOM     14  C   UNL     1       7.030   4.094  12.237  0.00  0.00    +0.000 C 
ATOM     15  O   UNL     1       6.355   3.912  13.482  0.00  0.00    +0.000 OA
ENDBRANCH  12  15
ENDBRANCH   1  12
TORSDOF 2
ENDMDL
MODEL 9
REMARK VINA RESULT:      -6.2      1.588      2.134
REMARK  Name = 
REMARK  3 active torsions:
REMARK  status: ('A' for Active; 'I' for Inactive)
REMARK    1  A    between atoms: C_1  and  O_2
REMARK    2  A    between atoms: O_2  and  C_3
REMARK    3  A    between atoms: C_3  and  C_5
REMARK                            x       y       z     vdW  Elec       q    Type
REMARK                         _______ _______ _______ _____ _____    ______ ____
ROOT
ATOM      1  C   UNL     1       5.642   5.672  17.123  0.00  0.00    +0.000 A 
ATOM      2  C   UNL     1       5.187   4.504  16.548  0.00  0.00    +0.000 A 
ATOM      3  C   UNL     1       4.088   3.866  17.122  0.00  0.00    +0.000 A 
ATOM      4  C   UNL     1       3.466   4.394  18.249  0.00  0.00    +0.000 A 
ATOM      5  N   UNL     1       2.417   3.757  18.858  0.00  0.00    +0.000 N 
ATOM      6  C   UNL     1       1.787   4.285  20.056  0.00  0.00    +0.000 C 
ATOM      7  C   UNL     1       1.048   3.064  20.588  0.00  0.00    +0.000 C 
ATOM      8  C   UNL     1       0.577   2.354  19.324  0.00  0.00    +0.000 C 
ATOM      9  C   UNL     1       1.638   2.679  18.271  0.00  0.00    +0.000 C 
ATOM     10  N   UNL     1       3.956   5.543  18.769  0.00  0.00    +0.000 NA
ATOM     11  N   UNL     1       5.046   6.194  18.211  0.00  0.00    +0.000 NA
ENDROOT
BRANCH   1  12
ATOM     12  C   UNL     1       6.812   6.375  16.537  0.00  0.00    +0.000 C 
ATOM     13  O   UNL     1       7.640   5.826  15.823  0.00  0.00    +0.000 OA
BRANCH  12  15
ATOM     14  C   UNL     1       7.951   8.058  17.698  0.00  0.00    +0.000 C 
ATOM     15  O   UNL     1       6.826   7.680  16.906  0.00  0.00    +0.000 OA
ENDBRANCH  12  15
ENDBRANCH   1  12
TORSDOF 2
ENDMDL
