MODEL 1
REMARK VINA RESULT:      -7.0      0.000      0.000
REMARK  Name = 
REMARK  4 active torsions:
REMARK  status: ('A' for Active; 'I' for Inactive)
REMARK    1  A    between atoms: C_1  and  C_2
REMARK    2  A    between atoms: C_6  and  C_7
REMARK    3  A    between atoms: N_8  and  N_9
REMARK    4  A    between atoms: C_10  and  C_11
REMARK                            x       y       z     vdW  Elec       q    Type
REMARK                         _______ _______ _______ _____ _____    ______ ____
ROOT
ATOM      1  N   UNL     1       3.875   4.665  17.888  0.00  0.00    +0.000 NA
ATOM      2  C   UNL     1       4.740   3.815  17.425  0.00  0.00    +0.000 C 
ENDROOT
BRANCH   1  10
ATOM      3  C   UNL     1       4.179   2.361  20.229  0.00  0.00    +0.000 C 
ATOM      4  C   UNL     1       3.123   2.690  19.167  0.00  0.00    +0.000 C 
ATOM      5  C   UNL     1       1.722   2.210  19.578  0.00  0.00    +0.000 C 
ATOM      6  C   UNL     1       1.125   3.042  20.709  0.00  0.00    +0.000 C 
ATOM      7  C   UNL     1       1.209   4.534  20.398  0.00  0.00    +0.000 C 
ATOM      8  C   UNL     1       2.618   4.966  19.954  0.00  0.00    +0.000 C 
ATOM      9  C   UNL     1       2.596   6.460  19.614  0.00  0.00    +0.000 C 
ATOM     10  N   UNL     1       3.037   4.124  18.812  0.00  0.00    +0.000 N 
ENDBRANCH   1  10
BRANCH   2  11
ATOM     11  C   UNL     1       5.602   4.090  16.258  0.00  0.00    +0.000 A 
ATOM     12  C   UNL     1       6.814   4.775  16.397  0.00  0.00    +0.000 A 
ATOM     13  C   UNL     1       7.532   5.147  15.256  0.00  0.00    +0.000 A 
ATOM     14  C   UNL     1       7.044   4.826  13.989  0.00  0.00    +0.000 A 
ATOM     15 CL   UNL     1       7.908   5.322  12.586  0.00  0.00    +0.000 Cl
ATOM     16  C   UNL     1       5.848   4.125  13.850  0.00  0.00    +0.000 A 
ATOM     17  C   UNL     1       5.124   3.758  14.986  0.00  0.00    +0.000 A 
ENDBRANCH   2  11
TORSDOF 2
ENDMDL
MODEL 2
REMARK VINA RESULT:      -7.0      0.885      1.993
REMARK  Name = 
REMARK  4 active torsions:
REMARK  status: ('A' for Active; 'I' for Inactive)
REMARK    1  A    between atoms: C_1  and  C_2
REMARK    2  A    between atoms: C_6  and  C_7
REMARK    3  A    between atoms: N_8  and  N_9
REMARK    4  A    between atoms: C_10  and  C_11
REMARK                            x       y       z     vdW  Elec       q    Type
REMARK                         _______ _______ _______ _____ _____    ______ ____
ROOT
ATOM      1  N   UNL     1       4.654   4.215  18.598  0.00  0.00    +0.000 NA
ATOM      2  C   UNL     1       4.530   3.763  17.388  0.00  0.00    +0.000 C 
ENDROOT
BRANCH   1  10
ATOM      3  C   UNL     1       1.418   3.991  17.999  0.00  0.00    +0.000 C 
ATOM      4  C   UNL     1       2.274   4.682  19.067  0.00  0.00    +0.000 C 
ATOM      5  C   UNL     1       1.508   4.870  20.386  0.00  0.00    +0.000 C 
ATOM      6  C   UNL     1       1.292   3.556  21.131  0.00  0.00    +0.000 C 
ATOM      7  C   UNL     1       2.599   2.781  21.271  0.00  0.00    +0.000 C 
ATOM      8  C   UNL     1       3.352   2.648  19.936  0.00  0.00    +0.000 C 
ATOM      9  C   UNL     1       4.670   1.905  20.180  0.00  0.00    +0.000 C 
ATOM     10  N   UNL     1       3.552   3.998  19.365  0.00  0.00    +0.000 N 
ENDBRANCH   1  10
BRANCH   2  11
ATOM     11  C   UNL     1       5.484   4.074  16.305  0.00  0.00    +0.000 A 
ATOM     12  C   UNL     1       6.670   4.770  16.561  0.00  0.00    +0.000 A 
ATOM     13  C   UNL     1       7.478   5.175  15.493  0.00  0.00    +0.000 A 
ATOM     14  C   UNL     1       7.104   4.876  14.183  0.00  0.00    +0.000 A 
ATOM     15 CL   UNL     1       8.077   5.412  12.869  0.00  0.00    +0.000 Cl
ATOM     16  C   UNL     1       5.934   4.164  13.927  0.00  0.00    +0.000 A 
ATOM     17  C   UNL     1       5.120   3.765  14.990  0.00  0.00    +0.000 A 
ENDBRANCH   2  11
TORSDOF 2
ENDMDL
MODEL 3
REMARK VINA RESULT:      -6.9      3.923      6.203
REMARK  Name = 
REMARK  4 active torsions:
REMARK  status: ('A' for Active; 'I' for Inactive)
REMARK    1  A    between atoms: C_1  and  C_2
REMARK    2  A    between atoms: C_6  and  C_7
REMARK    3  A    between atoms: N_8  and  N_9
REMARK    4  A    between atoms: C_10  and  C_11
REMARK                            x       y       z     vdW  Elec       q    Type
REMARK                         _______ _______ _______ _____ _____    ______ ____
ROOT
ATOM      1  N   UNL     1       2.485   5.638  19.792  0.00  0.00    +0.000 NA
ATOM      2  C   UNL     1       2.525   6.616  18.940  0.00  0.00    +0.000 C 
ENDROOT
BRANCH   1  10
ATOM      3  C   UNL     1       5.317   4.148  18.989  0.00  0.00    +0.000 C 
ATOM      4  C   UNL     1       3.953   4.316  18.309  0.00  0.00    +0.000 C 
ATOM      5  C   UNL     1       3.653   3.171  17.328  0.00  0.00    +0.000 C 
ATOM      6  C   UNL     1       3.354   1.854  18.037  0.00  0.00    +0.000 C 
ATOM      7  C   UNL     1       2.298   2.041  19.123  0.00  0.00    +0.000 C 
ATOM      8  C   UNL     1       2.617   3.219  20.060  0.00  0.00    +0.000 C 
ATOM      9  C   UNL     1       1.483   3.363  21.081  0.00  0.00    +0.000 C 
ATOM     10  N   UNL     1       2.812   4.437  19.244  0.00  0.00    +0.000 N 
ENDBRANCH   1  10
BRANCH   2  11
ATOM     11  C   UNL     1       1.997   7.964  19.228  0.00  0.00    +0.000 A 
ATOM     12  C   UNL     1       1.478   8.286  20.486  0.00  0.00    +0.000 A 
ATOM     13  C   UNL     1       0.853   9.523  20.680  0.00  0.00    +0.000 A 
ATOM     14  C   UNL     1       0.760  10.431  19.625  0.00  0.00    +0.000 A 
ATOM     15 CL   UNL     1      -0.045  11.933  19.854  0.00  0.00    +0.000 Cl
ATOM     16  C   UNL     1       1.296  10.120  18.377  0.00  0.00    +0.000 A 
ATOM     17  C   UNL     1       1.913   8.884  18.176  0.00  0.00    +0.000 A 
ENDBRANCH   2  11
TORSDOF 2
ENDMDL
MODEL 4
REMARK VINA RESULT:      -6.9      0.367      1.193
REMARK  Name = 
REMARK  4 active torsions:
REMARK  status: ('A' for Active; 'I' for Inactive)
REMARK    1  A    between atoms: C_1  and  C_2
REMARK    2  A    between atoms: C_6  and  C_7
REMARK    3  A    between atoms: N_8  and  N_9
REMARK    4  A    between atoms: C_10  and  C_11
REMARK                            x       y       z     vdW  Elec       q    Type
REMARK                         _______ _______ _______ _____ _____    ______ ____
ROOT
ATOM      1  N   UNL     1       4.212   4.505  18.150  0.00  0.00    +0.000 NA
ATOM      2  C   UNL     1       4.458   3.776  17.104  0.00  0.00    +0.000 C 
ENDROOT
BRANCH   1  10
ATOM      3  C   UNL     1       4.175   2.213  20.523  0.00  0.00    +0.000 C 
ATOM      4  C   UNL     1       3.276   2.544  19.327  0.00  0.00    +0.000 C 
ATOM      5  C   UNL     1       1.828   2.078  19.547  0.00  0.00    +0.000 C 
ATOM      6  C   UNL     1       1.091   2.923  20.582  0.00  0.00    +0.000 C 
ATOM      7  C   UNL     1       1.230   4.412  20.276  0.00  0.00    +0.000 C 
ATOM      8  C   UNL     1       2.689   4.829  20.025  0.00  0.00    +0.000 C 
ATOM      9  C   UNL     1       2.727   6.321  19.678  0.00  0.00    +0.000 C 
ATOM     10  N   UNL     1       3.251   3.977  18.955  0.00  0.00    +0.000 N 
ENDBRANCH   1  10
BRANCH   2  11
ATOM     11  C   UNL     1       5.285   4.238  15.972  0.00  0.00    +0.000 A 
ATOM     12  C   UNL     1       5.206   3.622  14.718  0.00  0.00    +0.000 A 
ATOM     13  C   UNL     1       6.107   3.986  13.712  0.00  0.00    +0.000 A 
ATOM     14  C   UNL     1       7.070   4.966  13.957  0.00  0.00    +0.000 A 
ATOM     15 CL   UNL     1       8.203   5.382  12.732  0.00  0.00    +0.000 Cl
ATOM     16  C   UNL     1       7.136   5.595  15.199  0.00  0.00    +0.000 A 
ATOM     17  C   UNL     1       6.244   5.229  16.210  0.00  0.00    +0.000 A 
ENDBRANCH   2  11
TORSDOF 2
ENDMDL
MODEL 5
REMARK VINA RESULT:      -6.8      0.913      2.307
REMARK  Name = 
REMARK  4 active torsions:
REMARK  status: ('A' for Active; 'I' for Inactive)
REMARK    1  A    between atoms: C_1  and  C_2
REMARK    2  A    between atoms: C_6  and  C_7
REMARK    3  A    between atoms: N_8  and  N_9
REMARK    4  A    between atoms: C_10  and  C_11
REMARK                            x       y       z     vdW  Elec       q    Type
REMARK                         _______ _______ _______ _____ _____    ______ ____
ROOT
ATOM      1  N   UNL     1       4.422   4.287  18.671  0.00  0.00    +0.000 NA
ATOM      2  C   UNL     1       4.302   3.856  17.453  0.00  0.00    +0.000 C 
ENDROOT
BRANCH   1  10
ATOM      3  C   UNL     1       1.231   3.615  18.169  0.00  0.00    +0.000 C 
ATOM      4  C   UNL     1       2.014   4.423  19.210  0.00  0.00    +0.000 C 
ATOM      5  C   UNL     1       1.270   4.512  20.552  0.00  0.00    +0.000 C 
ATOM      6  C   UNL     1       1.259   3.184  21.305  0.00  0.00    +0.000 C 
ATOM      7  C   UNL     1       2.665   2.598  21.407  0.00  0.00    +0.000 C 
ATOM      8  C   UNL     1       3.389   2.563  20.050  0.00  0.00    +0.000 C 
ATOM      9  C   UNL     1       4.804   2.011  20.256  0.00  0.00    +0.000 C 
ATOM     10  N   UNL     1       3.384   3.924  19.471  0.00  0.00    +0.000 N 
ENDBRANCH   1  10
BRANCH   2  11
ATOM     11  C   UNL     1       5.170   4.303  16.346  0.00  0.00    +0.000 A 
ATOM     12  C   UNL     1       4.940   3.888  15.030  0.00  0.00    +0.000 A 
ATOM     13  C   UNL     1       5.865   4.209  14.032  0.00  0.00    +0.000 A 
ATOM     14  C   UNL     1       7.006   4.948  14.349  0.00  0.00    +0.000 A 
ATOM     15 CL   UNL     1       8.164   5.306  13.128  0.00  0.00    +0.000 Cl
ATOM     16  C   UNL     1       7.226   5.381  15.655  0.00  0.00    +0.000 A 
ATOM     17  C   UNL     1       6.309   5.055  16.657  0.00  0.00    +0.000 A 
ENDBRANCH   2  11
TORSDOF 2
ENDMDL
MODEL 6
REMARK VINA RESULT:      -6.7      3.865      6.157
REMARK  Name = 
REMARK  4 active torsions:
REMARK  status: ('A' for Active; 'I' for Inactive)
REMARK    1  A    between atoms: C_1  and  C_2
REMARK    2  A    between atoms: C_6  and  C_7
REMARK    3  A    between atoms: N_8  and  N_9
REMARK    4  A    between atoms: C_10  and  C_11
REMARK                            x       y       z     vdW  Elec       q    Type
REMARK                         _______ _______ _______ _____ _____    ______ ____
ROOT
ATOM      1  N   UNL     1       2.302   5.708  19.606  0.00  0.00    +0.000 NA
ATOM      2  C   UNL     1       2.499   6.684  18.773  0.00  0.00    +0.000 C 
ENDROOT
BRANCH   1  10
ATOM      3  C   UNL     1       5.254   4.318  19.121  0.00  0.00    +0.000 C 
ATOM      4  C   UNL     1       3.955   4.406  18.312  0.00  0.00    +0.000 C 
ATOM      5  C   UNL     1       3.795   3.221  17.347  0.00  0.00    +0.000 C 
ATOM      6  C   UNL     1       3.484   1.913  18.070  0.00  0.00    +0.000 C 
ATOM      7  C   UNL     1       2.323   2.088  19.046  0.00  0.00    +0.000 C 
ATOM      8  C   UNL     1       2.505   3.306  19.967  0.00  0.00    +0.000 C 
ATOM      9  C   UNL     1       1.275   3.433  20.873  0.00  0.00    +0.000 C 
ATOM     10  N   UNL     1       2.727   4.507  19.132  0.00  0.00    +0.000 N 
ENDBRANCH   1  10
BRANCH   2  11
ATOM     11  C   UNL     1       1.925   8.032  18.953  0.00  0.00    +0.000 A 
ATOM     12  C   UNL     1       2.023   9.002  17.951  0.00  0.00    +0.000 A 
ATOM     13  C   UNL     1       1.601  10.310  18.211  0.00  0.00    +0.000 A 
ATOM     14  C   UNL     1       1.075  10.638  19.461  0.00  0.00    +0.000 A 
ATOM     15 CL   UNL     1       0.596  12.257  19.793  0.00  0.00    +0.000 Cl
ATOM     16  C   UNL     1       0.957   9.668  20.454  0.00  0.00    +0.000 A 
ATOM     17  C   UNL     1       1.386   8.363  20.201  0.00  0.00    +0.000 A 
ENDBRANCH   2  11
TORSDOF 2
ENDMDL
MODEL 7
REMARK VINA RESULT:      -6.7      4.502      7.359
REMARK  Name = 
REMARK  4 active torsions:
REMARK  status: ('A' for Active; 'I' for Inactive)
REMARK    1  A    between atoms: C_1  and  C_2
REMARK    2  A    between atoms: C_6  and  C_7
REMARK    3  A    between atoms: N_8  and  N_9
REMARK    4  A    between atoms: C_10  and  C_11
REMARK                            x       y       z     vdW  Elec       q    Type
REMARK                         _______ _______ _______ _____ _____    ______ ____
ROOT
ATOM      1  N   UNL     1       2.362   6.309  19.812  0.00  0.00    +0.000 NA
ATOM      2  C   UNL     1       2.182   7.531  19.415  0.00  0.00    +0.000 C 
ENDROOT
BRANCH   1  10
ATOM      3  C   UNL     1       5.444   5.250  19.300  0.00  0.00    +0.000 C 
ATOM      4  C   UNL     1       4.334   5.818  18.408  0.00  0.00    +0.000 C 
ATOM      5  C   UNL     1       4.461   5.338  16.953  0.00  0.00    +0.000 C 
ATOM      6  C   UNL     1       4.105   3.863  16.790  0.00  0.00    +0.000 C 
ATOM      7  C   UNL     1       2.760   3.546  17.439  0.00  0.00    +0.000 C 
ATOM      8  C   UNL     1       2.661   4.077  18.880  0.00  0.00    +0.000 C 
ATOM      9  C   UNL     1       1.266   3.760  19.431  0.00  0.00    +0.000 C 
ATOM     10  N   UNL     1       2.960   5.526  18.876  0.00  0.00    +0.000 N 
ENDBRANCH   1  10
BRANCH   2  11
ATOM     11  C   UNL     1       1.355   8.509  20.151  0.00  0.00    +0.000 A 
ATOM     12  C   UNL     1       0.915   9.689  19.543  0.00  0.00    +0.000 A 
ATOM     13  C   UNL     1       0.262  10.659  20.310  0.00  0.00    +0.000 A 
ATOM     14  C   UNL     1       0.042  10.442  21.671  0.00  0.00    +0.000 A 
ATOM     15 CL   UNL     1      -0.724  11.654  22.621  0.00  0.00    +0.000 Cl
ATOM     16  C   UNL     1       0.461   9.257  22.273  0.00  0.00    +0.000 A 
ATOM     17  C   UNL     1       1.122   8.290  21.513  0.00  0.00    +0.000 A 
ENDBRANCH   2  11
TORSDOF 2
ENDMDL
MODEL 8
REMARK VINA RESULT:      -6.7      1.060      2.018
REMARK  Name = 
REMARK  4 active torsions:
REMARK  status: ('A' for Active; 'I' for Inactive)
REMARK    1  A    between atoms: C_1  and  C_2
REMARK    2  A    between atoms: C_6  and  C_7
REMARK    3  A    between atoms: N_8  and  N_9
REMARK    4  A    between atoms: C_10  and  C_11
REMARK                            x       y       z     vdW  Elec       q    Type
REMARK                         _______ _______ _______ _____ _____    ______ ____
ROOT
ATOM      1  N   UNL     1       3.567   4.633  18.258  0.00  0.00    +0.000 NA
ATOM      2  C   UNL     1       4.690   4.011  18.065  0.00  0.00    +0.000 C 
ENDROOT
BRANCH   1  10
ATOM      3  C   UNL     1       1.515   5.911  20.502  0.00  0.00    +0.000 C 
ATOM      4  C   UNL     1       2.664   4.898  20.542  0.00  0.00    +0.000 C 
ATOM      5  C   UNL     1       2.518   3.905  21.706  0.00  0.00    +0.000 C 
ATOM      6  C   UNL     1       1.386   2.905  21.485  0.00  0.00    +0.000 C 
ATOM      7  C   UNL     1       1.493   2.248  20.111  0.00  0.00    +0.000 C 
ATOM      8  C   UNL     1       1.677   3.274  18.980  0.00  0.00    +0.000 C 
ATOM      9  C   UNL     1       1.826   2.526  17.650  0.00  0.00    +0.000 C 
ATOM     10  N   UNL     1       2.845   4.125  19.292  0.00  0.00    +0.000 N 
ENDBRANCH   1  10
BRANCH   2  11
ATOM     11  C   UNL     1       5.538   4.219  16.875  0.00  0.00    +0.000 A 
ATOM     12  C   UNL     1       6.852   4.683  16.993  0.00  0.00    +0.000 A 
ATOM     13  C   UNL     1       7.576   5.009  15.841  0.00  0.00    +0.000 A 
ATOM     14  C   UNL     1       6.991   4.860  14.583  0.00  0.00    +0.000 A 
ATOM     15 CL   UNL     1       7.868   5.302  13.171  0.00  0.00    +0.000 Cl
ATOM     16  C   UNL     1       5.689   4.378  14.463  0.00  0.00    +0.000 A 
ATOM     17  C   UNL     1       4.960   4.059  15.611  0.00  0.00    +0.000 A 
ENDBRANCH   2  11
TORSDOF 2
ENDMDL
MODEL 9
REMARK VINA RESULT:      -6.7      4.607      7.440
REMARK  Name = 
REMARK  4 active torsions:
REMARK  status: ('A' for Active; 'I' for Inactive)
REMARK    1  A    between atoms: C_1  and  C_2
REMARK    2  A    between atoms: C_6  and  C_7
REMARK    3  A    between atoms: N_8  and  N_9
REMARK    4  A    between atoms: C_10  and  C_11
REMARK                            x       y       z     vdW  Elec       q    Type
REMARK                         _______ _______ _______ _____ _____    ______ ____
ROOT
ATOM      1  N   UNL     1       2.184   6.350  20.010  0.00  0.00    +0.000 NA
ATOM      2  C   UNL     1       2.110   7.596  19.651  0.00  0.00    +0.000 C 
ENDROOT
BRANCH   1  10
ATOM      3  C   UNL     1       5.232   5.272  19.354  0.00  0.00    +0.000 C 
ATOM      4  C   UNL     1       4.080   5.832  18.513  0.00  0.00    +0.000 C 
ATOM      5  C   UNL     1       4.129   5.330  17.061  0.00  0.00    +0.000 C 
ATOM      6  C   UNL     1       3.761   3.854  16.938  0.00  0.00    +0.000 C 
ATOM      7  C   UNL     1       2.450   3.552  17.660  0.00  0.00    +0.000 C 
ATOM      8  C   UNL     1       2.428   4.104  19.096  0.00  0.00    +0.000 C 
ATOM      9  C   UNL     1       1.063   3.801  19.724  0.00  0.00    +0.000 C 
ATOM     10  N   UNL     1       2.731   5.551  19.055  0.00  0.00    +0.000 N 
ENDBRANCH   1  10
BRANCH   2  11
ATOM     11  C   UNL     1       1.355   8.613  20.409  0.00  0.00    +0.000 A 
ATOM     12  C   UNL     1       1.266   8.562  21.804  0.00  0.00    +0.000 A 
ATOM     13  C   UNL     1       0.424   9.453  22.476  0.00  0.00    +0.000 A 
ATOM     14  C   UNL     1      -0.314  10.394  21.757  0.00  0.00    +0.000 A 
ATOM     15 CL   UNL     1      -1.381  11.460  22.583  0.00  0.00    +0.000 Cl
ATOM     16  C   UNL     1      -0.211  10.460  20.369  0.00  0.00    +0.000 A 
ATOM     17  C   UNL     1       0.623   9.567  19.693  0.00  0.00    +0.000 A 
ENDBRANCH   2  11
TORSDOF 2
ENDMDL
