MODEL 1
REMARK VINA RESULT:      -6.9      0.000      0.000
REMARK  Name = 
REMARK  9 active torsions:
REMARK  status: ('A' for Active; 'I' for Inactive)
REMARK    1  A    between atoms: C_1  and  C_2
REMARK    2  A    between atoms: C_2  and  O_3
REMARK    3  A    between atoms: O_3  and  C_4
REMARK    4  A    between atoms: C_4  and  C_5
REMARK    5  A    between atoms: C_5  and  N_6
REMARK    6  A    between atoms: C_7  and  C_9
REMARK    7  A    between atoms: C_12  and  C_13
REMARK    8  A    between atoms: C_13  and  O_14
REMARK    9  A    between atoms: O_14  and  C_15
REMARK                            x       y       z     vdW  Elec       q    Type
REMARK                         _______ _______ _______ _____ _____    ______ ____
ROOT
ATOM      1  N   UNL     1       4.595   3.676  18.139  0.00  0.00    +0.000 N 
ATOM      2  C   UNL     1       5.819   4.298  18.054  0.00  0.00    +0.000 C 
ATOM      3  O   UNL     1       6.461   4.639  19.043  0.00  0.00    +0.000 OA
ATOM      4  H   UNL     1       4.127   3.436  17.268  0.00  0.00    +0.000 HD
ENDROOT
BRANCH   2   5
ATOM      5  C   UNL     1       6.295   4.524  16.703  0.00  0.00    +0.000 A 
ATOM      6  C   UNL     1       7.150   5.538  16.324  0.00  0.00    +0.000 A 
ATOM      7  O   UNL     1       7.374   5.439  14.988  0.00  0.00    +0.000 OA
ATOM      8  C   UNL     1       6.656   4.337  14.605  0.00  0.00    +0.000 A 
ATOM      9  N   UNL     1       5.978   3.761  15.587  0.00  0.00    +0.000 NA
BRANCH   8  10
ATOM     10  C   UNL     1       6.682   4.007  13.152  0.00  0.00    +0.000 C 
BRANCH  10  11
ATOM     11  O   UNL     1       5.380   3.560  12.763  0.00  0.00    +0.000 OA
ATOM     12  C   UNL     1       5.455   2.570  11.746  0.00  0.00    +0.000 C 
ENDBRANCH  10  11
ENDBRANCH   8  10
ENDBRANCH   2   5
BRANCH   1  13
ATOM     13  C   UNL     1       4.020   3.276  19.412  0.00  0.00    +0.000 C 
BRANCH  13  14
ATOM     14  C   UNL     1       2.887   4.223  19.880  0.00  0.00    +0.000 C 
ATOM     15  C   UNL     1       2.366   3.820  21.276  0.00  0.00    +0.000 C 
ATOM     16  C   UNL     1       1.395   2.667  21.026  0.00  0.00    +0.000 C 
ATOM     17  C   UNL     1       0.843   2.882  19.622  0.00  0.00    +0.000 C 
ATOM     18  C   UNL     1       1.611   4.062  19.035  0.00  0.00    +0.000 C 
BRANCH  14  19
ATOM     19  O   UNL     1       3.336   5.594  19.896  0.00  0.00    +0.000 OA
BRANCH  19  21
ATOM     20  C   UNL     1       1.964   7.575  20.113  0.00  0.00    +0.000 C 
ATOM     21  C   UNL     1       2.493   6.505  19.181  0.00  0.00    +0.000 C 
ENDBRANCH  19  21
ENDBRANCH  14  19
ENDBRANCH  13  14
ENDBRANCH   1  13
TORSDOF 7
ENDMDL
MODEL 2
REMARK VINA RESULT:      -6.6      1.195      1.297
REMARK  Name = 
REMARK  9 active torsions:
REMARK  status: ('A' for Active; 'I' for Inactive)
REMARK    1  A    between atoms: C_1  and  C_2
REMARK    2  A    between atoms: C_2  and  O_3
REMARK    3  A    between atoms: O_3  and  C_4
REMARK    4  A    between atoms: C_4  and  C_5
REMARK    5  A    between atoms: C_5  and  N_6
REMARK    6  A    between atoms: C_7  and  C_9
REMARK    7  A    between atoms: C_12  and  C_13
REMARK    8  A    between atoms: C_13  and  O_14
REMARK    9  A    between atoms: O_14  and  C_15
REMARK                            x       y       z     vdW  Elec       q    Type
REMARK                         _______ _______ _______ _____ _____    ______ ____
ROOT
ATOM      1  N   UNL     1       4.646   5.330  18.213  0.00  0.00    +0.000 N 
ATOM      2  C   UNL     1       5.862   4.720  18.012  0.00  0.00    +0.000 C 
ATOM      3  O   UNL     1       6.532   4.255  18.929  0.00  0.00    +0.000 OA
ATOM      4  H   UNL     1       4.161   5.696  17.396  0.00  0.00    +0.000 HD
ENDROOT
BRANCH   2   5
ATOM      5  C   UNL     1       6.297   4.668  16.629  0.00  0.00    +0.000 A 
ATOM      6  C   UNL     1       7.365   5.370  16.108  0.00  0.00    +0.000 A 
ATOM      7  O   UNL     1       7.473   5.077  14.786  0.00  0.00    +0.000 OA
ATOM      8  C   UNL     1       6.466   4.175  14.557  0.00  0.00    +0.000 A 
ATOM      9  N   UNL     1       5.722   3.908  15.619  0.00  0.00    +0.000 NA
BRANCH   8  10
ATOM     10  C   UNL     1       6.315   3.703  13.152  0.00  0.00    +0.000 C 
BRANCH  10  11
ATOM     11  O   UNL     1       4.942   3.835  12.772  0.00  0.00    +0.000 OA
ATOM     12  C   UNL     1       4.657   3.096  11.592  0.00  0.00    +0.000 C 
ENDBRANCH  10  11
ENDBRANCH   8  10
ENDBRANCH   2   5
BRANCH   1  13
ATOM     13  C   UNL     1       4.011   5.371  19.519  0.00  0.00    +0.000 C 
BRANCH  13  14
ATOM     14  C   UNL     1       2.517   5.775  19.444  0.00  0.00    +0.000 C 
ATOM     15  C   UNL     1       1.738   5.255  20.671  0.00  0.00    +0.000 C 
ATOM     16  C   UNL     1       1.431   3.791  20.362  0.00  0.00    +0.000 C 
ATOM     17  C   UNL     1       1.364   3.688  18.843  0.00  0.00    +0.000 C 
ATOM     18  C   UNL     1       1.778   5.054  18.303  0.00  0.00    +0.000 C 
BRANCH  14  19
ATOM     19  O   UNL     1       2.375   7.207  19.338  0.00  0.00    +0.000 OA
BRANCH  19  21
ATOM     20  C   UNL     1       2.107   9.194  17.984  0.00  0.00    +0.000 C 
ATOM     21  C   UNL     1       2.083   7.680  18.018  0.00  0.00    +0.000 C 
ENDBRANCH  19  21
ENDBRANCH  14  19
ENDBRANCH  13  14
ENDBRANCH   1  13
TORSDOF 7
ENDMDL
MODEL 3
REMARK VINA RESULT:      -6.4      1.001      1.201
REMARK  Name = 
REMARK  9 active torsions:
REMARK  status: ('A' for Active; 'I' for Inactive)
REMARK    1  A    between atoms: C_1  and  C_2
REMARK    2  A    between atoms: C_2  and  O_3
REMARK    3  A    between atoms: O_3  and  C_4
REMARK    4  A    between atoms: C_4  and  C_5
REMARK    5  A    between atoms: C_5  and  N_6
REMARK    6  A    between atoms: C_7  and  C_9
REMARK    7  A    between atoms: C_12  and  C_13
REMARK    8  A    between atoms: C_13  and  O_14
REMARK    9  A    between atoms: O_14  and  C_15
REMARK                            x       y       z     vdW  Elec       q    Type
REMARK                         _______ _______ _______ _____ _____    ______ ____
ROOT
ATOM      1  N   UNL     1       4.390   3.520  18.867  0.00  0.00    +0.000 N 
ATOM      2  C   UNL     1       5.398   4.455  18.817  0.00  0.00    +0.000 C 
ATOM      3  O   UNL     1       5.645   5.215  19.747  0.00  0.00    +0.000 OA
ATOM      4  H   UNL     1       4.248   2.936  18.046  0.00  0.00    +0.000 HD
ENDROOT
BRANCH   2   5
ATOM      5  C   UNL     1       6.149   4.476  17.576  0.00  0.00    +0.000 A 
ATOM      6  C   UNL     1       7.516   4.632  17.479  0.00  0.00    +0.000 A 
ATOM      7  O   UNL     1       7.865   4.603  16.167  0.00  0.00    +0.000 OA
ATOM      8  C   UNL     1       6.680   4.402  15.508  0.00  0.00    +0.000 A 
ATOM      9  N   UNL     1       5.620   4.335  16.299  0.00  0.00    +0.000 NA
BRANCH   8  10
ATOM     10  C   UNL     1       6.755   4.369  14.019  0.00  0.00    +0.000 C 
BRANCH  10  11
ATOM     11  O   UNL     1       5.541   3.802  13.516  0.00  0.00    +0.000 OA
ATOM     12  C   UNL     1       5.743   3.192  12.248  0.00  0.00    +0.000 C 
ENDBRANCH  10  11
ENDBRANCH   8  10
ENDBRANCH   2   5
BRANCH   1  13
ATOM     13  C   UNL     1       3.612   3.289  20.072  0.00  0.00    +0.000 C 
BRANCH  13  14
ATOM     14  C   UNL     1       2.284   4.086  20.086  0.00  0.00    +0.000 C 
ATOM     15  C   UNL     1       1.096   3.181  20.475  0.00  0.00    +0.000 C 
ATOM     16  C   UNL     1       0.719   2.439  19.194  0.00  0.00    +0.000 C 
ATOM     17  C   UNL     1       1.125   3.355  18.045  0.00  0.00    +0.000 C 
ATOM     18  C   UNL     1       1.860   4.534  18.676  0.00  0.00    +0.000 C 
BRANCH  14  19
ATOM     19  O   UNL     1       2.366   5.209  20.989  0.00  0.00    +0.000 OA
BRANCH  19  21
ATOM     20  C   UNL     1       2.194   7.349  19.873  0.00  0.00    +0.000 C 
ATOM     21  C   UNL     1       1.476   6.288  20.681  0.00  0.00    +0.000 C 
ENDBRANCH  19  21
ENDBRANCH  14  19
ENDBRANCH  13  14
ENDBRANCH   1  13
TORSDOF 7
ENDMDL
MODEL 4
REMARK VINA RESULT:      -6.4      2.199      6.218
REMARK  Name = 
REMARK  9 active torsions:
REMARK  status: ('A' for Active; 'I' for Inactive)
REMARK    1  A    between atoms: C_1  and  C_2
REMARK    2  A    between atoms: C_2  and  O_3
REMARK    3  A    between atoms: O_3  and  C_4
REMARK    4  A    between atoms: C_4  and  C_5
REMARK    5  A    between atoms: C_5  and  N_6
REMARK    6  A    between atoms: C_7  and  C_9
REMARK    7  A    between atoms: C_12  and  C_13
REMARK    8  A    between atoms: C_13  and  O_14
REMARK    9  A    between atoms: O_14  and  C_15
REMARK                            x       y       z     vdW  Elec       q    Type
REMARK                         _______ _______ _______ _____ _____    ______ ____
ROOT
ATOM      1  N   UNL     1       6.235   3.987  17.926  0.00  0.00    +0.000 N 
ATOM      2  C   UNL     1       5.907   4.404  19.195  0.00  0.00    +0.000 C 
ATOM      3  O   UNL     1       6.626   5.146  19.857  0.00  0.00    +0.000 OA
ATOM      4  H   UNL     1       5.585   3.364  17.452  0.00  0.00    +0.000 HD
ENDROOT
BRANCH   2   5
ATOM      5  C   UNL     1       4.643   3.899  19.695  0.00  0.00    +0.000 A 
ATOM      6  C   UNL     1       4.436   2.625  20.183  0.00  0.00    +0.000 A 
ATOM      7  O   UNL     1       3.137   2.509  20.558  0.00  0.00    +0.000 OA
ATOM      8  C   UNL     1       2.601   3.745  20.304  0.00  0.00    +0.000 A 
ATOM      9  N   UNL     1       3.452   4.609  19.772  0.00  0.00    +0.000 NA
BRANCH   8  10
ATOM     10  C   UNL     1       1.145   3.900  20.585  0.00  0.00    +0.000 C 
BRANCH  10  11
ATOM     11  O   UNL     1       0.459   2.749  20.083  0.00  0.00    +0.000 OA
ATOM     12  C   UNL     1       0.684   2.580  18.690  0.00  0.00    +0.000 C 
ENDBRANCH  10  11
ENDBRANCH   8  10
ENDBRANCH   2   5
BRANCH   1  13
ATOM     13  C   UNL     1       7.410   4.483  17.231  0.00  0.00    +0.000 C 
BRANCH  13  14
ATOM     14  C   UNL     1       7.059   5.495  16.112  0.00  0.00    +0.000 C 
ATOM     15  C   UNL     1       5.532   5.684  15.992  0.00  0.00    +0.000 C 
ATOM     16  C   UNL     1       5.043   4.494  15.167  0.00  0.00    +0.000 C 
ATOM     17  C   UNL     1       6.215   4.091  14.279  0.00  0.00    +0.000 C 
ATOM     18  C   UNL     1       7.396   4.952  14.712  0.00  0.00    +0.000 C 
BRANCH  14  19
ATOM     19  O   UNL     1       7.698   6.767  16.348  0.00  0.00    +0.000 OA
BRANCH  19  21
ATOM     20  C   UNL     1       8.028   8.736  17.715  0.00  0.00    +0.000 C 
ATOM     21  C   UNL     1       7.280   7.429  17.547  0.00  0.00    +0.000 C 
ENDBRANCH  19  21
ENDBRANCH  14  19
ENDBRANCH  13  14
ENDBRANCH   1  13
TORSDOF 7
ENDMDL
MODEL 5
REMARK VINA RESULT:      -6.4      2.754      4.718
REMARK  Name = 
REMARK  9 active torsions:
REMARK  status: ('A' for Active; 'I' for Inactive)
REMARK    1  A    between atoms: C_1  and  C_2
REMARK    2  A    between atoms: C_2  and  O_3
REMARK    3  A    between atoms: O_3  and  C_4
REMARK    4  A    between atoms: C_4  and  C_5
REMARK    5  A    between atoms: C_5  and  N_6
REMARK    6  A    between atoms: C_7  and  C_9
REMARK    7  A    between atoms: C_12  and  C_13
REMARK    8  A    between atoms: C_13  and  O_14
REMARK    9  A    between atoms: O_14  and  C_15
REMARK                            x       y       z     vdW  Elec       q    Type
REMARK                         _______ _______ _______ _____ _____    ______ ____
ROOT
ATOM      1  N   UNL     1       5.261   4.028  18.328  0.00  0.00    +0.000 N 
ATOM      2  C   UNL     1       5.751   4.800  17.301  0.00  0.00    +0.000 C 
ATOM      3  O   UNL     1       5.432   4.627  16.129  0.00  0.00    +0.000 OA
ATOM      4  H   UNL     1       5.586   4.234  19.270  0.00  0.00    +0.000 HD
ENDROOT
BRANCH   2   5
ATOM      5  C   UNL     1       6.680   5.837  17.708  0.00  0.00    +0.000 A 
ATOM      6  C   UNL     1       7.678   5.682  18.647  0.00  0.00    +0.000 A 
ATOM      7  O   UNL     1       8.345   6.859  18.770  0.00  0.00    +0.000 OA
ATOM      8  C   UNL     1       7.732   7.690  17.869  0.00  0.00    +0.000 A 
ATOM      9  N   UNL     1       6.720   7.136  17.218  0.00  0.00    +0.000 NA
BRANCH   8  10
ATOM     10  C   UNL     1       8.239   9.090  17.816  0.00  0.00    +0.000 C 
BRANCH  10  11
ATOM     11  O   UNL     1       9.036   9.330  18.981  0.00  0.00    +0.000 OA
ATOM     12  C   UNL     1       9.450  10.687  19.054  0.00  0.00    +0.000 C 
ENDBRANCH  10  11
ENDBRANCH   8  10
ENDBRANCH   2   5
BRANCH   1  13
ATOM     13  C   UNL     1       4.239   3.017  18.113  0.00  0.00    +0.000 C 
BRANCH  13  14
ATOM     14  C   UNL     1       2.983   3.241  18.992  0.00  0.00    +0.000 C 
ATOM     15  C   UNL     1       1.690   3.100  18.160  0.00  0.00    +0.000 C 
ATOM     16  C   UNL     1       1.520   4.442  17.450  0.00  0.00    +0.000 C 
ATOM     17  C   UNL     1       2.192   5.477  18.345  0.00  0.00    +0.000 C 
ATOM     18  C   UNL     1       2.863   4.698  19.472  0.00  0.00    +0.000 C 
BRANCH  14  19
ATOM     19  O   UNL     1       2.960   2.320  20.102  0.00  0.00    +0.000 OA
BRANCH  19  21
ATOM     20  C   UNL     1       1.314   2.518  21.865  0.00  0.00    +0.000 C 
ATOM     21  C   UNL     1       2.688   2.924  21.371  0.00  0.00    +0.000 C 
ENDBRANCH  19  21
ENDBRANCH  14  19
ENDBRANCH  13  14
ENDBRANCH   1  13
TORSDOF 7
ENDMDL
MODEL 6
REMARK VINA RESULT:      -6.2      1.536      2.474
REMARK  Name = 
REMARK  9 active torsions:
REMARK  status: ('A' for Active; 'I' for Inactive)
REMARK    1  A    between atoms: C_1  and  C_2
REMARK    2  A    between atoms: C_2  and  O_3
REMARK    3  A    between atoms: O_3  and  C_4
REMARK    4  A    between atoms: C_4  and  C_5
REMARK    5  A    between atoms: C_5  and  N_6
REMARK    6  A    between atoms: C_7  and  C_9
REMARK    7  A    between atoms: C_12  and  C_13
REMARK    8  A    between atoms: C_13  and  O_14
REMARK    9  A    between atoms: O_14  and  C_15
REMARK                            x       y       z     vdW  Elec       q    Type
REMARK                         _______ _______ _______ _____ _____    ______ ____
ROOT
ATOM      1  N   UNL     1       4.344   5.021  18.846  0.00  0.00    +0.000 N 
ATOM      2  C   UNL     1       5.716   5.118  18.870  0.00  0.00    +0.000 C 
ATOM      3  O   UNL     1       6.370   5.025  19.904  0.00  0.00    +0.000 OA
ATOM      4  H   UNL     1       3.880   5.120  17.945  0.00  0.00    +0.000 HD
ENDROOT
BRANCH   2   5
ATOM      5  C   UNL     1       6.334   5.342  17.577  0.00  0.00    +0.000 A 
ATOM      6  C   UNL     1       7.226   6.354  17.290  0.00  0.00    +0.000 A 
ATOM      7  O   UNL     1       7.591   6.254  15.986  0.00  0.00    +0.000 OA
ATOM      8  C   UNL     1       6.915   5.152  15.530  0.00  0.00    +0.000 A 
ATOM      9  N   UNL     1       6.136   4.578  16.434  0.00  0.00    +0.000 NA
BRANCH   8  10
ATOM     10  C   UNL     1       7.097   4.820  14.088  0.00  0.00    +0.000 C 
BRANCH  10  11
ATOM     11  O   UNL     1       6.282   3.686  13.776  0.00  0.00    +0.000 OA
ATOM     12  C   UNL     1       6.188   3.486  12.372  0.00  0.00    +0.000 C 
ENDBRANCH  10  11
ENDBRANCH   8  10
ENDBRANCH   2   5
BRANCH   1  13
ATOM     13  C   UNL     1       3.574   4.691  20.033  0.00  0.00    +0.000 C 
BRANCH  13  14
ATOM     14  C   UNL     1       3.131   3.206  20.063  0.00  0.00    +0.000 C 
ATOM     15  C   UNL     1       1.783   3.012  19.338  0.00  0.00    +0.000 C 
ATOM     16  C   UNL     1       0.717   3.424  20.352  0.00  0.00    +0.000 C 
ATOM     17  C   UNL     1       1.321   3.156  21.726  0.00  0.00    +0.000 C 
ATOM     18  C   UNL     1       2.768   2.738  21.483  0.00  0.00    +0.000 C 
BRANCH  14  19
ATOM     19  O   UNL     1       4.137   2.357  19.473  0.00  0.00    +0.000 OA
BRANCH  19  21
ATOM     20  C   UNL     1       3.705   2.081  17.108  0.00  0.00    +0.000 C 
ATOM     21  C   UNL     1       3.643   1.448  18.483  0.00  0.00    +0.000 C 
ENDBRANCH  19  21
ENDBRANCH  14  19
ENDBRANCH  13  14
ENDBRANCH   1  13
TORSDOF 7
ENDMDL
MODEL 7
REMARK VINA RESULT:      -6.2      1.189      2.666
REMARK  Name = 
REMARK  9 active torsions:
REMARK  status: ('A' for Active; 'I' for Inactive)
REMARK    1  A    between atoms: C_1  and  C_2
REMARK    2  A    between atoms: C_2  and  O_3
REMARK    3  A    between atoms: O_3  and  C_4
REMARK    4  A    between atoms: C_4  and  C_5
REMARK    5  A    between atoms: C_5  and  N_6
REMARK    6  A    between atoms: C_7  and  C_9
REMARK    7  A    between atoms: C_12  and  C_13
REMARK    8  A    between atoms: C_13  and  O_14
REMARK    9  A    between atoms: O_14  and  C_15
REMARK                            x       y       z     vdW  Elec       q    Type
REMARK                         _______ _______ _______ _____ _____    ______ ____
ROOT
ATOM      1  N   UNL     1       4.788   5.479  18.446  0.00  0.00    +0.000 N 
ATOM      2  C   UNL     1       5.132   4.315  17.799  0.00  0.00    +0.000 C 
ATOM      3  O   UNL     1       4.870   3.204  18.248  0.00  0.00    +0.000 OA
ATOM      4  H   UNL     1       5.054   6.359  18.007  0.00  0.00    +0.000 HD
ENDROOT
BRANCH   2   5
ATOM      5  C   UNL     1       5.834   4.500  16.544  0.00  0.00    +0.000 A 
ATOM      6  C   UNL     1       6.832   5.426  16.323  0.00  0.00    +0.000 A 
ATOM      7  O   UNL     1       7.253   5.312  15.037  0.00  0.00    +0.000 OA
ATOM      8  C   UNL     1       6.500   4.289  14.524  0.00  0.00    +0.000 A 
ATOM      9  N   UNL     1       5.624   3.777  15.376  0.00  0.00    +0.000 NA
BRANCH   8  10
ATOM     10  C   UNL     1       6.722   3.965  13.087  0.00  0.00    +0.000 C 
BRANCH  10  11
ATOM     11  O   UNL     1       5.479   3.541  12.518  0.00  0.00    +0.000 OA
ATOM     12  C   UNL     1       5.653   2.403  11.684  0.00  0.00    +0.000 C 
ENDBRANCH  10  11
ENDBRANCH   8  10
ENDBRANCH   2   5
BRANCH   1  13
ATOM     13  C   UNL     1       3.988   5.480  19.658  0.00  0.00    +0.000 C 
BRANCH  13  14
ATOM     14  C   UNL     1       2.470   5.607  19.373  0.00  0.00    +0.000 C 
ATOM     15  C   UNL     1       2.211   6.462  18.114  0.00  0.00    +0.000 C 
ATOM     16  C   UNL     1       2.316   7.912  18.584  0.00  0.00    +0.000 C 
ATOM     17  C   UNL     1       1.923   7.904  20.057  0.00  0.00    +0.000 C 
ATOM     18  C   UNL     1       1.745   6.440  20.445  0.00  0.00    +0.000 C 
BRANCH  14  19
ATOM     19  O   UNL     1       1.864   4.307  19.220  0.00  0.00    +0.000 OA
BRANCH  19  21
ATOM     20  C   UNL     1       1.395   2.668  20.938  0.00  0.00    +0.000 C 
ATOM     21  C   UNL     1       0.950   3.950  20.264  0.00  0.00    +0.000 C 
ENDBRANCH  19  21
ENDBRANCH  14  19
ENDBRANCH  13  14
ENDBRANCH   1  13
TORSDOF 7
ENDMDL
MODEL 8
REMARK VINA RESULT:      -6.1      2.158      6.604
REMARK  Name = 
REMARK  9 active torsions:
REMARK  status: ('A' for Active; 'I' for Inactive)
REMARK    1  A    between atoms: C_1  and  C_2
REMARK    2  A    between atoms: C_2  and  O_3
REMARK    3  A    between atoms: O_3  and  C_4
REMARK    4  A    between atoms: C_4  and  C_5
REMARK    5  A    between atoms: C_5  and  N_6
REMARK    6  A    between atoms: C_7  and  C_9
REMARK    7  A    between atoms: C_12  and  C_13
REMARK    8  A    between atoms: C_13  and  O_14
REMARK    9  A    between atoms: O_14  and  C_15
REMARK                            x       y       z     vdW  Elec       q    Type
REMARK                         _______ _______ _______ _____ _____    ______ ____
ROOT
ATOM      1  N   UNL     1       4.351   5.979  17.171  0.00  0.00    +0.000 N 
ATOM      2  C   UNL     1       3.450   6.773  17.841  0.00  0.00    +0.000 C 
ATOM      3  O   UNL     1       3.332   7.974  17.621  0.00  0.00    +0.000 OA
ATOM      4  H   UNL     1       4.390   4.993  17.423  0.00  0.00    +0.000 HD
ENDROOT
BRANCH   2   5
ATOM      5  C   UNL     1       2.648   6.082  18.832  0.00  0.00    +0.000 A 
ATOM      6  C   UNL     1       2.225   6.624  20.028  0.00  0.00    +0.000 A 
ATOM      7  O   UNL     1       1.500   5.690  20.696  0.00  0.00    +0.000 OA
ATOM      8  C   UNL     1       1.489   4.607  19.856  0.00  0.00    +0.000 A 
ATOM      9  N   UNL     1       2.173   4.780  18.735  0.00  0.00    +0.000 NA
BRANCH   8  10
ATOM     10  C   UNL     1       0.787   3.393  20.360  0.00  0.00    +0.000 C 
BRANCH  10  11
ATOM     11  O   UNL     1       1.740   2.331  20.473  0.00  0.00    +0.000 OA
ATOM     12  C   UNL     1       2.636   2.553  21.554  0.00  0.00    +0.000 C 
ENDBRANCH  10  11
ENDBRANCH   8  10
ENDBRANCH   2   5
BRANCH   1  13
ATOM     13  C   UNL     1       5.157   6.484  16.072  0.00  0.00    +0.000 C 
BRANCH  13  14
ATOM     14  C   UNL     1       6.511   5.744  15.934  0.00  0.00    +0.000 C 
ATOM     15  C   UNL     1       6.733   5.256  14.488  0.00  0.00    +0.000 C 
ATOM     16  C   UNL     1       5.932   3.959  14.373  0.00  0.00    +0.000 C 
ATOM     17  C   UNL     1       5.883   3.373  15.779  0.00  0.00    +0.000 C 
ATOM     18  C   UNL     1       6.522   4.408  16.698  0.00  0.00    +0.000 C 
BRANCH  14  19
ATOM     19  O   UNL     1       7.605   6.591  16.344  0.00  0.00    +0.000 OA
BRANCH  19  21
ATOM     20  C   UNL     1       7.937   8.538  17.742  0.00  0.00    +0.000 C 
ATOM     21  C   UNL     1       7.505   7.087  17.683  0.00  0.00    +0.000 C 
ENDBRANCH  19  21
ENDBRANCH  14  19
ENDBRANCH  13  14
ENDBRANCH   1  13
TORSDOF 7
ENDMDL
MODEL 9
REMARK VINA RESULT:      -6.1      1.414      1.643
REMARK  Name = 
REMARK  9 active torsions:
REMARK  status: ('A' for Active; 'I' for Inactive)
REMARK    1  A    between atoms: C_1  and  C_2
REMARK    2  A    between atoms: C_2  and  O_3
REMARK    3  A    between atoms: O_3  and  C_4
REMARK    4  A    between atoms: C_4  and  C_5
REMARK    5  A    between atoms: C_5  and  N_6
REMARK    6  A    between atoms: C_7  and  C_9
REMARK    7  A    between atoms: C_12  and  C_13
REMARK    8  A    between atoms: C_13  and  O_14
REMARK    9  A    between atoms: O_14  and  C_15
REMARK                            x       y       z     vdW  Elec       q    Type
REMARK                         _______ _______ _______ _____ _____    ______ ____
ROOT
ATOM      1  N   UNL     1       4.386   4.480  18.886  0.00  0.00    +0.000 N 
ATOM      2  C   UNL     1       5.701   4.884  18.918  0.00  0.00    +0.000 C 
ATOM      3  O   UNL     1       6.312   5.072  19.964  0.00  0.00    +0.000 OA
ATOM      4  H   UNL     1       3.952   4.357  17.974  0.00  0.00    +0.000 HD
ENDROOT
BRANCH   2   5
ATOM      5  C   UNL     1       6.311   5.073  17.616  0.00  0.00    +0.000 A 
ATOM      6  C   UNL     1       7.241   6.045  17.311  0.00  0.00    +0.000 A 
ATOM      7  O   UNL     1       7.586   5.920  16.003  0.00  0.00    +0.000 OA
ATOM      8  C   UNL     1       6.860   4.844  15.564  0.00  0.00    +0.000 A 
ATOM      9  N   UNL     1       6.069   4.309  16.481  0.00  0.00    +0.000 NA
BRANCH   8  10
ATOM     10  C   UNL     1       7.010   4.495  14.122  0.00  0.00    +0.000 C 
BRANCH  10  11
ATOM     11  O   UNL     1       7.248   5.699  13.385  0.00  0.00    +0.000 OA
ATOM     12  C   UNL     1       8.500   5.657  12.715  0.00  0.00    +0.000 C 
ENDBRANCH  10  11
ENDBRANCH   8  10
ENDBRANCH   2   5
BRANCH   1  13
ATOM     13  C   UNL     1       3.655   4.140  20.095  0.00  0.00    +0.000 C 
BRANCH  13  14
ATOM     14  C   UNL     1       2.162   4.550  20.025  0.00  0.00    +0.000 C 
ATOM     15  C   UNL     1       1.249   3.414  20.533  0.00  0.00    +0.000 C 
ATOM     16  C   UNL     1       1.112   2.450  19.355  0.00  0.00    +0.000 C 
ATOM     17  C   UNL     1       1.287   3.297  18.099  0.00  0.00    +0.000 C 
ATOM     18  C   UNL     1       1.667   4.695  18.575  0.00  0.00    +0.000 C 
BRANCH  14  19
ATOM     19  O   UNL     1       1.923   5.753  20.783  0.00  0.00    +0.000 OA
BRANCH  19  21
ATOM     20  C   UNL     1       1.436   8.124  20.750  0.00  0.00    +0.000 C 
ATOM     21  C   UNL     1       2.124   6.968  20.052  0.00  0.00    +0.000 C 
ENDBRANCH  19  21
ENDBRANCH  14  19
ENDBRANCH  13  14
ENDBRANCH   1  13
TORSDOF 7
ENDMDL
