MODEL 1
REMARK VINA RESULT:      -8.1      0.000      0.000
REMARK  Name = 
REMARK  7 active torsions:
REMARK  status: ('A' for Active; 'I' for Inactive)
REMARK    1  A    between atoms: C_2  and  C_3
REMARK    2  A    between atoms: C_3  and  O_4
REMARK    3  A    between atoms: O_4  and  C_5
REMARK    4  A    between atoms: C_8  and  C_9
REMARK    5  A    between atoms: N_10  and  N_11
REMARK    6  A    between atoms: C_12  and  C_14
REMARK    7  A    between atoms: N_22  and  C_23
REMARK                            x       y       z     vdW  Elec       q    Type
REMARK                         _______ _______ _______ _____ _____    ______ ____
ROOT
ATOM      1  C   UNL     1      -0.583  12.201  22.301  0.00  0.00    +0.000 A 
ATOM      2  C   UNL     1      -1.034  11.077  22.991  0.00  0.00    +0.000 A 
ATOM      3  C   UNL     1      -0.618   9.801  22.609  0.00  0.00    +0.000 A 
ATOM      4  C   UNL     1       0.242   9.641  21.518  0.00  0.00    +0.000 A 
ATOM      5  C   UNL     1       0.658  10.756  20.789  0.00  0.00    +0.000 A 
ATOM      6  C   UNL     1       0.236  12.036  21.177  0.00  0.00    +0.000 A 
ENDROOT
BRANCH   4   7
ATOM      7  C   UNL     1       0.726   8.294  21.144  0.00  0.00    +0.000 C 
ATOM      8  N   UNL     1       1.856   8.156  20.533  0.00  0.00    +0.000 NA
BRANCH   8   9
ATOM      9  N   UNL     1       2.252   6.894  20.208  0.00  0.00    +0.000 N 
ATOM     10  C   UNL     1       2.532   6.627  18.876  0.00  0.00    +0.000 C 
ATOM     11  O   UNL     1       2.462   7.449  17.964  0.00  0.00    +0.000 OA
ATOM     12  H   UNL     1       2.427   6.224  20.943  0.00  0.00    +0.000 HD
BRANCH  10  13
ATOM     13  C   UNL     1       2.977   5.247  18.544  0.00  0.00    +0.000 A 
ATOM     14  C   UNL     1       2.535   4.124  19.243  0.00  0.00    +0.000 A 
ATOM     15  C   UNL     1       2.989   2.886  18.823  0.00  0.00    +0.000 A 
ATOM     16  N   UNL     1       3.831   2.704  17.783  0.00  0.00    +0.000 NA
ATOM     17  C   UNL     1       4.228   3.806  17.113  0.00  0.00    +0.000 A 
ATOM     18  C   UNL     1       3.830   5.085  17.450  0.00  0.00    +0.000 A 
ENDBRANCH  10  13
ENDBRANCH   8   9
ENDBRANCH   4   7
BRANCH   1  19
ATOM     19  O   UNL     1      -0.997  13.401  22.821  0.00  0.00    +0.000 OA
BRANCH  19  20
ATOM     20  C   UNL     1      -2.399  13.619  22.761  0.00  0.00    +0.000 C 
BRANCH  20  22
ATOM     21  O   UNL     1      -2.794  14.739  20.700  0.00  0.00    +0.000 OA
ATOM     22  C   UNL     1      -2.971  13.705  21.345  0.00  0.00    +0.000 C 
ATOM     23  N   UNL     1      -3.684  12.592  20.925  0.00  0.00    +0.000 N 
ATOM     24  H   UNL     1      -3.903  11.916  21.647  0.00  0.00    +0.000 HD
BRANCH  23  25
ATOM     25  C   UNL     1      -4.250  12.407  19.632  0.00  0.00    +0.000 A 
ATOM     26  C   UNL     1      -5.507  12.956  19.336  0.00  0.00    +0.000 A 
ATOM     27  C   UNL     1      -6.099  12.789  18.090  0.00  0.00    +0.000 A 
ATOM     28  C   UNL     1      -5.448  12.055  17.110  0.00  0.00    +0.000 A 
ATOM     29  C   UNL     1      -4.195  11.484  17.360  0.00  0.00    +0.000 A 
ATOM     30  C   UNL     1      -3.598  10.712  16.355  0.00  0.00    +0.000 A 
ATOM     31  C   UNL     1      -2.359  10.113  16.553  0.00  0.00    +0.000 A 
ATOM     32  C   UNL     1      -1.693  10.301  17.755  0.00  0.00    +0.000 A 
ATOM     33  C   UNL     1      -2.276  11.071  18.771  0.00  0.00    +0.000 A 
ATOM     34  C   UNL     1      -3.554  11.672  18.619  0.00  0.00    +0.000 A 
ENDBRANCH  23  25
ENDBRANCH  20  22
ENDBRANCH  19  20
ENDBRANCH   1  19
TORSDOF 7
ENDMDL
MODEL 2
REMARK VINA RESULT:      -7.9      1.017      1.298
REMARK  Name = 
REMARK  7 active torsions:
REMARK  status: ('A' for Active; 'I' for Inactive)
REMARK    1  A    between atoms: C_2  and  C_3
REMARK    2  A    between atoms: C_3  and  O_4
REMARK    3  A    between atoms: O_4  and  C_5
REMARK    4  A    between atoms: C_8  and  C_9
REMARK    5  A    between atoms: N_10  and  N_11
REMARK    6  A    between atoms: C_12  and  C_14
REMARK    7  A    between atoms: N_22  and  C_23
REMARK                            x       y       z     vdW  Elec       q    Type
REMARK                         _______ _______ _______ _____ _____    ______ ____
ROOT
ATOM      1  C   UNL     1      -1.208  12.633  22.396  0.00  0.00    +0.000 A 
ATOM      2  C   UNL     1      -1.499  11.587  23.272  0.00  0.00    +0.000 A 
ATOM      3  C   UNL     1      -1.022  10.301  23.017  0.00  0.00    +0.000 A 
ATOM      4  C   UNL     1      -0.264  10.049  21.869  0.00  0.00    +0.000 A 
ATOM      5  C   UNL     1      -0.012  11.078  20.960  0.00  0.00    +0.000 A 
ATOM      6  C   UNL     1      -0.493  12.369  21.222  0.00  0.00    +0.000 A 
ENDROOT
BRANCH   4   7
ATOM      7  C   UNL     1       0.285   8.697  21.624  0.00  0.00    +0.000 C 
ATOM      8  N   UNL     1       1.487   8.558  21.169  0.00  0.00    +0.000 NA
BRANCH   8   9
ATOM      9  N   UNL     1       1.942   7.291  20.957  0.00  0.00    +0.000 N 
ATOM     10  C   UNL     1       2.378   6.965  19.682  0.00  0.00    +0.000 C 
ATOM     11  O   UNL     1       2.396   7.739  18.726  0.00  0.00    +0.000 OA
ATOM     12  H   UNL     1       2.045   6.662  21.742  0.00  0.00    +0.000 HD
BRANCH  10  13
ATOM     13  C   UNL     1       2.884   5.583  19.475  0.00  0.00    +0.000 A 
ATOM     14  C   UNL     1       4.241   5.289  19.343  0.00  0.00    +0.000 A 
ATOM     15  C   UNL     1       4.599   3.961  19.190  0.00  0.00    +0.000 A 
ATOM     16  N   UNL     1       3.716   2.940  19.159  0.00  0.00    +0.000 NA
ATOM     17  C   UNL     1       2.412   3.251  19.307  0.00  0.00    +0.000 A 
ATOM     18  C   UNL     1       1.951   4.543  19.470  0.00  0.00    +0.000 A 
ENDBRANCH  10  13
ENDBRANCH   8   9
ENDBRANCH   4   7
BRANCH   1  19
ATOM     19  O   UNL     1      -1.662  13.864  22.798  0.00  0.00    +0.000 OA
BRANCH  19  20
ATOM     20  C   UNL     1      -3.072  13.955  22.941  0.00  0.00    +0.000 C 
BRANCH  20  22
ATOM     21  O   UNL     1      -3.925  14.991  20.978  0.00  0.00    +0.000 OA
ATOM     22  C   UNL     1      -3.850  13.946  21.625  0.00  0.00    +0.000 C 
ATOM     23  N   UNL     1      -4.441  12.736  21.294  0.00  0.00    +0.000 N 
ATOM     24  H   UNL     1      -4.450  12.039  22.028  0.00  0.00    +0.000 HD
BRANCH  23  25
ATOM     25  C   UNL     1      -5.155  12.461  20.093  0.00  0.00    +0.000 A 
ATOM     26  C   UNL     1      -6.547  12.628  20.055  0.00  0.00    +0.000 A 
ATOM     27  C   UNL     1      -7.282  12.361  18.907  0.00  0.00    +0.000 A 
ATOM     28  C   UNL     1      -6.637  11.904  17.767  0.00  0.00    +0.000 A 
ATOM     29  C   UNL     1      -5.251  11.717  17.757  0.00  0.00    +0.000 A 
ATOM     30  C   UNL     1      -4.651  11.210  16.597  0.00  0.00    +0.000 A 
ATOM     31  C   UNL     1      -3.279  10.994  16.536  0.00  0.00    +0.000 A 
ATOM     32  C   UNL     1      -2.488  11.307  17.632  0.00  0.00    +0.000 A 
ATOM     33  C   UNL     1      -3.073  11.815  18.801  0.00  0.00    +0.000 A 
ATOM     34  C   UNL     1      -4.474  12.019  18.913  0.00  0.00    +0.000 A 
ENDBRANCH  23  25
ENDBRANCH  20  22
ENDBRANCH  19  20
ENDBRANCH   1  19
TORSDOF 7
ENDMDL
MODEL 3
REMARK VINA RESULT:      -7.8      1.076      1.399
REMARK  Name = 
REMARK  7 active torsions:
REMARK  status: ('A' for Active; 'I' for Inactive)
REMARK    1  A    between atoms: C_2  and  C_3
REMARK    2  A    between atoms: C_3  and  O_4
REMARK    3  A    between atoms: O_4  and  C_5
REMARK    4  A    between atoms: C_8  and  C_9
REMARK    5  A    between atoms: N_10  and  N_11
REMARK    6  A    between atoms: C_12  and  C_14
REMARK    7  A    between atoms: N_22  and  C_23
REMARK                            x       y       z     vdW  Elec       q    Type
REMARK                         _______ _______ _______ _____ _____    ______ ____
ROOT
ATOM      1  C   UNL     1      -0.734  11.871  22.399  0.00  0.00    +0.000 A 
ATOM      2  C   UNL     1       0.067  12.236  21.319  0.00  0.00    +0.000 A 
ATOM      3  C   UNL     1       0.770  11.265  20.603  0.00  0.00    +0.000 A 
ATOM      4  C   UNL     1       0.689   9.921  20.979  0.00  0.00    +0.000 A 
ATOM      5  C   UNL     1      -0.070   9.552  22.092  0.00  0.00    +0.000 A 
ATOM      6  C   UNL     1      -0.775  10.532  22.806  0.00  0.00    +0.000 A 
ENDROOT
BRANCH   4   7
ATOM      7  C   UNL     1       1.391   8.885  20.191  0.00  0.00    +0.000 C 
ATOM      8  N   UNL     1       1.710   7.758  20.737  0.00  0.00    +0.000 NA
BRANCH   8   9
ATOM      9  N   UNL     1       2.360   6.841  19.967  0.00  0.00    +0.000 N 
ATOM     10  C   UNL     1       1.943   5.520  20.043  0.00  0.00    +0.000 C 
ATOM     11  O   UNL     1       1.020   5.114  20.747  0.00  0.00    +0.000 OA
ATOM     12  H   UNL     1       3.048   7.154  19.296  0.00  0.00    +0.000 HD
BRANCH  10  13
ATOM     13  C   UNL     1       2.655   4.538  19.184  0.00  0.00    +0.000 A 
ATOM     14  C   UNL     1       3.980   4.163  19.407  0.00  0.00    +0.000 A 
ATOM     15  C   UNL     1       4.529   3.212  18.564  0.00  0.00    +0.000 A 
ATOM     16  N   UNL     1       3.861   2.632  17.544  0.00  0.00    +0.000 NA
ATOM     17  C   UNL     1       2.575   2.999  17.364  0.00  0.00    +0.000 A 
ATOM     18  C   UNL     1       1.933   3.935  18.151  0.00  0.00    +0.000 A 
ENDBRANCH  10  13
ENDBRANCH   8   9
ENDBRANCH   4   7
BRANCH   1  19
ATOM     19  O   UNL     1      -1.438  12.903  22.969  0.00  0.00    +0.000 OA
BRANCH  19  20
ATOM     20  C   UNL     1      -2.842  12.843  22.766  0.00  0.00    +0.000 C 
BRANCH  20  22
ATOM     21  O   UNL     1      -2.981  14.231  20.840  0.00  0.00    +0.000 OA
ATOM     22  C   UNL     1      -3.295  13.149  21.338  0.00  0.00    +0.000 C 
ATOM     23  N   UNL     1      -4.064  12.165  20.736  0.00  0.00    +0.000 N 
ATOM     24  H   UNL     1      -4.395  11.432  21.352  0.00  0.00    +0.000 HD
BRANCH  23  25
ATOM     25  C   UNL     1      -4.543  12.188  19.396  0.00  0.00    +0.000 A 
ATOM     26  C   UNL     1      -5.762  12.817  19.101  0.00  0.00    +0.000 A 
ATOM     27  C   UNL     1      -6.270  12.854  17.809  0.00  0.00    +0.000 A 
ATOM     28  C   UNL     1      -5.570  12.246  16.776  0.00  0.00    +0.000 A 
ATOM     29  C   UNL     1      -4.353  11.602  17.021  0.00  0.00    +0.000 A 
ATOM     30  C   UNL     1      -3.706  10.962  15.955  0.00  0.00    +0.000 A 
ATOM     31  C   UNL     1      -2.499  10.298  16.144  0.00  0.00    +0.000 A 
ATOM     32  C   UNL     1      -1.914  10.288  17.402  0.00  0.00    +0.000 A 
ATOM     33  C   UNL     1      -2.548  10.923  18.480  0.00  0.00    +0.000 A 
ATOM     34  C   UNL     1      -3.797  11.584  18.333  0.00  0.00    +0.000 A 
ENDBRANCH  23  25
ENDBRANCH  20  22
ENDBRANCH  19  20
ENDBRANCH   1  19
TORSDOF 7
ENDMDL
MODEL 4
REMARK VINA RESULT:      -7.7      5.967     10.280
REMARK  Name = 
REMARK  7 active torsions:
REMARK  status: ('A' for Active; 'I' for Inactive)
REMARK    1  A    between atoms: C_2  and  C_3
REMARK    2  A    between atoms: C_3  and  O_4
REMARK    3  A    between atoms: O_4  and  C_5
REMARK    4  A    between atoms: C_8  and  C_9
REMARK    5  A    between atoms: N_10  and  N_11
REMARK    6  A    between atoms: C_12  and  C_14
REMARK    7  A    between atoms: N_22  and  C_23
REMARK                            x       y       z     vdW  Elec       q    Type
REMARK                         _______ _______ _______ _____ _____    ______ ____
ROOT
ATOM      1  C   UNL     1       6.938   5.187  17.085  0.00  0.00    +0.000 A 
ATOM      2  C   UNL     1       6.848   6.413  16.426  0.00  0.00    +0.000 A 
ATOM      3  C   UNL     1       7.409   7.559  16.990  0.00  0.00    +0.000 A 
ATOM      4  C   UNL     1       8.050   7.489  18.231  0.00  0.00    +0.000 A 
ATOM      5  C   UNL     1       8.100   6.277  18.922  0.00  0.00    +0.000 A 
ATOM      6  C   UNL     1       7.535   5.128  18.350  0.00  0.00    +0.000 A 
ENDROOT
BRANCH   4   7
ATOM      7  C   UNL     1       8.691   8.692  18.805  0.00  0.00    +0.000 C 
ATOM      8  N   UNL     1       8.713   9.798  18.136  0.00  0.00    +0.000 NA
BRANCH   8   9
ATOM      9  N   UNL     1       9.320  10.874  18.710  0.00  0.00    +0.000 N 
ATOM     10  C   UNL     1       8.992  12.133  18.230  0.00  0.00    +0.000 C 
ATOM     11  O   UNL     1       8.182  12.354  17.331  0.00  0.00    +0.000 OA
ATOM     12  H   UNL     1       9.906  10.740  19.522  0.00  0.00    +0.000 HD
BRANCH  10  13
ATOM     13  C   UNL     1       9.653  13.296  18.879  0.00  0.00    +0.000 A 
ATOM     14  C   UNL     1      10.149  14.382  18.157  0.00  0.00    +0.000 A 
ATOM     15  C   UNL     1      10.713  15.424  18.870  0.00  0.00    +0.000 A 
ATOM     16  N   UNL     1      10.813  15.450  20.217  0.00  0.00    +0.000 NA
ATOM     17  C   UNL     1      10.309  14.396  20.891  0.00  0.00    +0.000 A 
ATOM     18  C   UNL     1       9.723  13.308  20.274  0.00  0.00    +0.000 A 
ENDBRANCH  10  13
ENDBRANCH   8   9
ENDBRANCH   4   7
BRANCH   1  19
ATOM     19  O   UNL     1       6.421   4.121  16.392  0.00  0.00    +0.000 OA
BRANCH  19  20
ATOM     20  C   UNL     1       5.026   4.201  16.141  0.00  0.00    +0.000 C 
BRANCH  20  22
ATOM     21  O   UNL     1       3.944   3.413  18.107  0.00  0.00    +0.000 OA
ATOM     22  C   UNL     1       4.161   4.390  17.388  0.00  0.00    +0.000 C 
ATOM     23  N   UNL     1       3.663   5.670  17.577  0.00  0.00    +0.000 N 
ATOM     24  H   UNL     1       3.771   6.300  16.792  0.00  0.00    +0.000 HD
BRANCH  23  25
ATOM     25  C   UNL     1       2.896   6.107  18.694  0.00  0.00    +0.000 A 
ATOM     26  C   UNL     1       2.632   5.219  19.749  0.00  0.00    +0.000 A 
ATOM     27  C   UNL     1       1.878   5.602  20.851  0.00  0.00    +0.000 A 
ATOM     28  C   UNL     1       1.358   6.887  20.918  0.00  0.00    +0.000 A 
ATOM     29  C   UNL     1       1.591   7.805  19.889  0.00  0.00    +0.000 A 
ATOM     30  C   UNL     1       1.006   9.076  19.980  0.00  0.00    +0.000 A 
ATOM     31  C   UNL     1       1.195  10.024  18.981  0.00  0.00    +0.000 A 
ATOM     32  C   UNL     1       1.994   9.717  17.889  0.00  0.00    +0.000 A 
ATOM     33  C   UNL     1       2.585   8.450  17.782  0.00  0.00    +0.000 A 
ATOM     34  C   UNL     1       2.390   7.444  18.766  0.00  0.00    +0.000 A 
ENDBRANCH  23  25
ENDBRANCH  20  22
ENDBRANCH  19  20
ENDBRANCH   1  19
TORSDOF 7
ENDMDL
MODEL 5
REMARK VINA RESULT:      -7.6      7.137     11.328
REMARK  Name = 
REMARK  7 active torsions:
REMARK  status: ('A' for Active; 'I' for Inactive)
REMARK    1  A    between atoms: C_2  and  C_3
REMARK    2  A    between atoms: C_3  and  O_4
REMARK    3  A    between atoms: O_4  and  C_5
REMARK    4  A    between atoms: C_8  and  C_9
REMARK    5  A    between atoms: N_10  and  N_11
REMARK    6  A    between atoms: C_12  and  C_14
REMARK    7  A    between atoms: N_22  and  C_23
REMARK                            x       y       z     vdW  Elec       q    Type
REMARK                         _______ _______ _______ _____ _____    ______ ____
ROOT
ATOM      1  C   UNL     1       7.644   5.548  17.633  0.00  0.00    +0.000 A 
ATOM      2  C   UNL     1       7.285   6.510  16.690  0.00  0.00    +0.000 A 
ATOM      3  C   UNL     1       7.530   7.862  16.934  0.00  0.00    +0.000 A 
ATOM      4  C   UNL     1       8.121   8.262  18.136  0.00  0.00    +0.000 A 
ATOM      5  C   UNL     1       8.436   7.311  19.109  0.00  0.00    +0.000 A 
ATOM      6  C   UNL     1       8.188   5.954  18.858  0.00  0.00    +0.000 A 
ENDROOT
BRANCH   4   7
ATOM      7  C   UNL     1       8.429   9.689  18.374  0.00  0.00    +0.000 C 
ATOM      8  N   UNL     1       9.291  10.026  19.276  0.00  0.00    +0.000 NA
BRANCH   8   9
ATOM      9  N   UNL     1       9.535  11.354  19.457  0.00  0.00    +0.000 N 
ATOM     10  C   UNL     1      10.529  11.940  18.689  0.00  0.00    +0.000 C 
ATOM     11  O   UNL     1      11.202  11.353  17.843  0.00  0.00    +0.000 OA
ATOM     12  H   UNL     1       8.929  11.892  20.062  0.00  0.00    +0.000 HD
BRANCH  10  13
ATOM     13  C   UNL     1      10.769  13.394  18.891  0.00  0.00    +0.000 A 
ATOM     14  C   UNL     1      11.933  13.891  19.477  0.00  0.00    +0.000 A 
ATOM     15  C   UNL     1      12.062  15.265  19.581  0.00  0.00    +0.000 A 
ATOM     16  N   UNL     1      11.133  16.146  19.153  0.00  0.00    +0.000 NA
ATOM     17  C   UNL     1      10.025  15.638  18.573  0.00  0.00    +0.000 A 
ATOM     18  C   UNL     1       9.801  14.284  18.418  0.00  0.00    +0.000 A 
ENDBRANCH  10  13
ENDBRANCH   8   9
ENDBRANCH   4   7
BRANCH   1  19
ATOM     19  O   UNL     1       7.426   4.250  17.244  0.00  0.00    +0.000 OA
BRANCH  19  20
ATOM     20  C   UNL     1       6.527   4.103  16.155  0.00  0.00    +0.000 C 
BRANCH  20  22
ATOM     21  O   UNL     1       4.191   4.295  15.751  0.00  0.00    +0.000 OA
ATOM     22  C   UNL     1       5.058   3.953  16.556  0.00  0.00    +0.000 C 
ATOM     23  N   UNL     1       4.839   3.464  17.835  0.00  0.00    +0.000 N 
ATOM     24  H   UNL     1       5.656   3.424  18.433  0.00  0.00    +0.000 HD
BRANCH  23  25
ATOM     25  C   UNL     1       3.568   3.174  18.407  0.00  0.00    +0.000 A 
ATOM     26  C   UNL     1       2.979   1.919  18.197  0.00  0.00    +0.000 A 
ATOM     27  C   UNL     1       1.735   1.599  18.728  0.00  0.00    +0.000 A 
ATOM     28  C   UNL     1       1.044   2.540  19.478  0.00  0.00    +0.000 A 
ATOM     29  C   UNL     1       1.589   3.807  19.711  0.00  0.00    +0.000 A 
ATOM     30  C   UNL     1       0.833   4.740  20.434  0.00  0.00    +0.000 A 
ATOM     31  C   UNL     1       1.321   6.017  20.686  0.00  0.00    +0.000 A 
ATOM     32  C   UNL     1       2.586   6.367  20.235  0.00  0.00    +0.000 A 
ATOM     33  C   UNL     1       3.355   5.446  19.509  0.00  0.00    +0.000 A 
ATOM     34  C   UNL     1       2.878   4.143  19.204  0.00  0.00    +0.000 A 
ENDBRANCH  23  25
ENDBRANCH  20  22
ENDBRANCH  19  20
ENDBRANCH   1  19
TORSDOF 7
ENDMDL
MODEL 6
REMARK VINA RESULT:      -7.6      1.215      1.335
REMARK  Name = 
REMARK  7 active torsions:
REMARK  status: ('A' for Active; 'I' for Inactive)
REMARK    1  A    between atoms: C_2  and  C_3
REMARK    2  A    between atoms: C_3  and  O_4
REMARK    3  A    between atoms: O_4  and  C_5
REMARK    4  A    between atoms: C_8  and  C_9
REMARK    5  A    between atoms: N_10  and  N_11
REMARK    6  A    between atoms: C_12  and  C_14
REMARK    7  A    between atoms: N_22  and  C_23
REMARK                            x       y       z     vdW  Elec       q    Type
REMARK                         _______ _______ _______ _____ _____    ______ ____
ROOT
ATOM      1  C   UNL     1      -0.722  11.953  22.500  0.00  0.00    +0.000 A 
ATOM      2  C   UNL     1      -0.848  10.565  22.524  0.00  0.00    +0.000 A 
ATOM      3  C   UNL     1      -0.180   9.780  21.583  0.00  0.00    +0.000 A 
ATOM      4  C   UNL     1       0.607  10.384  20.598  0.00  0.00    +0.000 A 
ATOM      5  C   UNL     1       0.698  11.776  20.534  0.00  0.00    +0.000 A 
ATOM      6  C   UNL     1       0.024  12.559  21.482  0.00  0.00    +0.000 A 
ENDROOT
BRANCH   4   7
ATOM      7  C   UNL     1       1.358   9.551  19.632  0.00  0.00    +0.000 C 
ATOM      8  N   UNL     1       1.615   8.314  19.905  0.00  0.00    +0.000 NA
BRANCH   8   9
ATOM      9  N   UNL     1       2.313   7.594  18.983  0.00  0.00    +0.000 N 
ATOM     10  C   UNL     1       2.604   6.271  19.282  0.00  0.00    +0.000 C 
ATOM     11  O   UNL     1       2.267   5.693  20.314  0.00  0.00    +0.000 OA
ATOM     12  H   UNL     1       2.511   8.001  18.080  0.00  0.00    +0.000 HD
BRANCH  10  13
ATOM     13  C   UNL     1       3.353   5.497  18.257  0.00  0.00    +0.000 A 
ATOM     14  C   UNL     1       3.127   4.141  18.021  0.00  0.00    +0.000 A 
ATOM     15  C   UNL     1       3.860   3.533  17.017  0.00  0.00    +0.000 A 
ATOM     16  N   UNL     1       4.776   4.171  16.258  0.00  0.00    +0.000 NA
ATOM     17  C   UNL     1       4.961   5.487  16.495  0.00  0.00    +0.000 A 
ATOM     18  C   UNL     1       4.279   6.188  17.470  0.00  0.00    +0.000 A 
ENDBRANCH  10  13
ENDBRANCH   8   9
ENDBRANCH   4   7
BRANCH   1  19
ATOM     19  O   UNL     1      -1.359  12.608  23.524  0.00  0.00    +0.000 OA
BRANCH  19  20
ATOM     20  C   UNL     1      -2.376  13.507  23.107  0.00  0.00    +0.000 C 
BRANCH  20  22
ATOM     21  O   UNL     1      -4.325  12.215  22.671  0.00  0.00    +0.000 OA
ATOM     22  C   UNL     1      -3.426  12.898  22.177  0.00  0.00    +0.000 C 
ATOM     23  N   UNL     1      -3.242  13.152  20.826  0.00  0.00    +0.000 N 
ATOM     24  H   UNL     1      -2.348  13.558  20.577  0.00  0.00    +0.000 HD
BRANCH  23  25
ATOM     25  C   UNL     1      -4.119  12.753  19.778  0.00  0.00    +0.000 A 
ATOM     26  C   UNL     1      -5.432  13.245  19.743  0.00  0.00    +0.000 A 
ATOM     27  C   UNL     1      -6.323  12.872  18.744  0.00  0.00    +0.000 A 
ATOM     28  C   UNL     1      -5.920  11.983  17.758  0.00  0.00    +0.000 A 
ATOM     29  C   UNL     1      -4.622  11.462  17.754  0.00  0.00    +0.000 A 
ATOM     30  C   UNL     1      -4.276  10.531  16.765  0.00  0.00    +0.000 A 
ATOM     31  C   UNL     1      -3.003   9.973  16.720  0.00  0.00    +0.000 A 
ATOM     32  C   UNL     1      -2.054  10.361  17.655  0.00  0.00    +0.000 A 
ATOM     33  C   UNL     1      -2.384  11.290  18.651  0.00  0.00    +0.000 A 
ATOM     34  C   UNL     1      -3.682  11.858  18.749  0.00  0.00    +0.000 A 
ENDBRANCH  23  25
ENDBRANCH  20  22
ENDBRANCH  19  20
ENDBRANCH   1  19
TORSDOF 7
ENDMDL
MODEL 7
REMARK VINA RESULT:      -7.6      0.932      1.255
REMARK  Name = 
REMARK  7 active torsions:
REMARK  status: ('A' for Active; 'I' for Inactive)
REMARK    1  A    between atoms: C_2  and  C_3
REMARK    2  A    between atoms: C_3  and  O_4
REMARK    3  A    between atoms: O_4  and  C_5
REMARK    4  A    between atoms: C_8  and  C_9
REMARK    5  A    between atoms: N_10  and  N_11
REMARK    6  A    between atoms: C_12  and  C_14
REMARK    7  A    between atoms: N_22  and  C_23
REMARK                            x       y       z     vdW  Elec       q    Type
REMARK                         _______ _______ _______ _____ _____    ______ ____
ROOT
ATOM      1  C   UNL     1      -0.366  12.376  21.895  0.00  0.00    +0.000 A 
ATOM      2  C   UNL     1      -0.510  11.050  22.300  0.00  0.00    +0.000 A 
ATOM      3  C   UNL     1       0.055  10.018  21.549  0.00  0.00    +0.000 A 
ATOM      4  C   UNL     1       0.755  10.309  20.373  0.00  0.00    +0.000 A 
ATOM      5  C   UNL     1       0.860  11.629  19.932  0.00  0.00    +0.000 A 
ATOM      6  C   UNL     1       0.290  12.662  20.692  0.00  0.00    +0.000 A 
ENDROOT
BRANCH   4   7
ATOM      7  C   UNL     1       1.399   9.222  19.604  0.00  0.00    +0.000 C 
ATOM      8  N   UNL     1       1.662   8.091  20.173  0.00  0.00    +0.000 NA
BRANCH   8   9
ATOM      9  N   UNL     1       2.259   7.126  19.420  0.00  0.00    +0.000 N 
ATOM     10  C   UNL     1       2.230   5.824  19.897  0.00  0.00    +0.000 C 
ATOM     11  O   UNL     1       1.692   5.471  20.945  0.00  0.00    +0.000 OA
ATOM     12  H   UNL     1       2.613   7.359  18.503  0.00  0.00    +0.000 HD
BRANCH  10  13
ATOM     13  C   UNL     1       2.874   4.782  19.053  0.00  0.00    +0.000 A 
ATOM     14  C   UNL     1       3.321   5.033  17.756  0.00  0.00    +0.000 A 
ATOM     15  C   UNL     1       3.939   3.997  17.078  0.00  0.00    +0.000 A 
ATOM     16  N   UNL     1       4.131   2.765  17.595  0.00  0.00    +0.000 NA
ATOM     17  C   UNL     1       3.706   2.555  18.859  0.00  0.00    +0.000 A 
ATOM     18  C   UNL     1       3.082   3.523  19.622  0.00  0.00    +0.000 A 
ENDBRANCH  10  13
ENDBRANCH   8   9
ENDBRANCH   4   7
BRANCH   1  19
ATOM     19  O   UNL     1      -0.895  13.302  22.759  0.00  0.00    +0.000 OA
BRANCH  19  20
ATOM     20  C   UNL     1      -2.314  13.333  22.796  0.00  0.00    +0.000 C 
BRANCH  20  22
ATOM     21  O   UNL     1      -2.826  14.612  20.857  0.00  0.00    +0.000 OA
ATOM     22  C   UNL     1      -2.985  13.536  21.437  0.00  0.00    +0.000 C 
ATOM     23  N   UNL     1      -3.755  12.473  20.990  0.00  0.00    +0.000 N 
ATOM     24  H   UNL     1      -3.941  11.750  21.675  0.00  0.00    +0.000 HD
BRANCH  23  25
ATOM     25  C   UNL     1      -4.418  12.398  19.732  0.00  0.00    +0.000 A 
ATOM     26  C   UNL     1      -5.705  12.938  19.589  0.00  0.00    +0.000 A 
ATOM     27  C   UNL     1      -6.391  12.876  18.382  0.00  0.00    +0.000 A 
ATOM     28  C   UNL     1      -5.804  12.257  17.287  0.00  0.00    +0.000 A 
ATOM     29  C   UNL     1      -4.524  11.700  17.383  0.00  0.00    +0.000 A 
ATOM     30  C   UNL     1      -3.993  11.045  16.264  0.00  0.00    +0.000 A 
ATOM     31  C   UNL     1      -2.730  10.464  16.307  0.00  0.00    +0.000 A 
ATOM     32  C   UNL     1      -1.975  10.554  17.467  0.00  0.00    +0.000 A 
ATOM     33  C   UNL     1      -2.492  11.206  18.596  0.00  0.00    +0.000 A 
ATOM     34  C   UNL     1      -3.790  11.783  18.601  0.00  0.00    +0.000 A 
ENDBRANCH  23  25
ENDBRANCH  20  22
ENDBRANCH  19  20
ENDBRANCH   1  19
TORSDOF 7
ENDMDL
MODEL 8
REMARK VINA RESULT:      -7.4      8.993     11.037
REMARK  Name = 
REMARK  7 active torsions:
REMARK  status: ('A' for Active; 'I' for Inactive)
REMARK    1  A    between atoms: C_2  and  C_3
REMARK    2  A    between atoms: C_3  and  O_4
REMARK    3  A    between atoms: O_4  and  C_5
REMARK    4  A    between atoms: C_8  and  C_9
REMARK    5  A    between atoms: N_10  and  N_11
REMARK    6  A    between atoms: C_12  and  C_14
REMARK    7  A    between atoms: N_22  and  C_23
REMARK                            x       y       z     vdW  Elec       q    Type
REMARK                         _______ _______ _______ _____ _____    ______ ____
ROOT
ATOM      1  C   UNL     1      10.733  12.653  18.613  0.00  0.00    +0.000 A 
ATOM      2  C   UNL     1      10.872  11.472  19.341  0.00  0.00    +0.000 A 
ATOM      3  C   UNL     1       9.941  10.442  19.197  0.00  0.00    +0.000 A 
ATOM      4  C   UNL     1       8.851  10.597  18.334  0.00  0.00    +0.000 A 
ATOM      5  C   UNL     1       8.676  11.796  17.641  0.00  0.00    +0.000 A 
ATOM      6  C   UNL     1       9.615  12.827  17.789  0.00  0.00    +0.000 A 
ENDROOT
BRANCH   4   7
ATOM      7  C   UNL     1       7.893   9.487  18.142  0.00  0.00    +0.000 C 
ATOM      8  N   UNL     1       8.135   8.564  17.270  0.00  0.00    +0.000 NA
BRANCH   8   9
ATOM      9  N   UNL     1       7.217   7.567  17.130  0.00  0.00    +0.000 N 
ATOM     10  C   UNL     1       7.292   6.491  18.002  0.00  0.00    +0.000 C 
ATOM     11  O   UNL     1       8.121   6.373  18.904  0.00  0.00    +0.000 OA
ATOM     12  H   UNL     1       6.457   7.681  16.474  0.00  0.00    +0.000 HD
BRANCH  10  13
ATOM     13  C   UNL     1       6.273   5.421  17.842  0.00  0.00    +0.000 A 
ATOM     14  C   UNL     1       5.677   4.779  18.927  0.00  0.00    +0.000 A 
ATOM     15  C   UNL     1       4.714   3.822  18.658  0.00  0.00    +0.000 A 
ATOM     16  N   UNL     1       4.321   3.475  17.414  0.00  0.00    +0.000 NA
ATOM     17  C   UNL     1       4.900   4.126  16.383  0.00  0.00    +0.000 A 
ATOM     18  C   UNL     1       5.868   5.098  16.544  0.00  0.00    +0.000 A 
ENDBRANCH  10  13
ENDBRANCH   8   9
ENDBRANCH   4   7
BRANCH   1  19
ATOM     19  O   UNL     1      11.755  13.555  18.779  0.00  0.00    +0.000 OA
BRANCH  19  20
ATOM     20  C   UNL     1      11.344  14.914  18.797  0.00  0.00    +0.000 C 
BRANCH  20  22
ATOM     21  O   UNL     1       9.375  15.940  19.648  0.00  0.00    +0.000 OA
ATOM     22  C   UNL     1      10.374  15.273  19.923  0.00  0.00    +0.000 C 
ATOM     23  N   UNL     1      10.739  14.830  21.185  0.00  0.00    +0.000 N 
ATOM     24  H   UNL     1      11.683  14.473  21.266  0.00  0.00    +0.000 HD
BRANCH  23  25
ATOM     25  C   UNL     1       9.969  14.980  22.373  0.00  0.00    +0.000 A 
ATOM     26  C   UNL     1      10.030  16.180  23.097  0.00  0.00    +0.000 A 
ATOM     27  C   UNL     1       9.303  16.364  24.267  0.00  0.00    +0.000 A 
ATOM     28  C   UNL     1       8.502  15.338  24.748  0.00  0.00    +0.000 A 
ATOM     29  C   UNL     1       8.412  14.121  24.064  0.00  0.00    +0.000 A 
ATOM     30  C   UNL     1       7.627  13.099  24.613  0.00  0.00    +0.000 A 
ATOM     31  C   UNL     1       7.511  11.866  23.981  0.00  0.00    +0.000 A 
ATOM     32  C   UNL     1       8.163  11.653  22.775  0.00  0.00    +0.000 A 
ATOM     33  C   UNL     1       8.953  12.665  22.212  0.00  0.00    +0.000 A 
ATOM     34  C   UNL     1       9.122  13.925  22.844  0.00  0.00    +0.000 A 
ENDBRANCH  23  25
ENDBRANCH  20  22
ENDBRANCH  19  20
ENDBRANCH   1  19
TORSDOF 7
ENDMDL
MODEL 9
REMARK VINA RESULT:      -7.4      5.540      9.042
REMARK  Name = 
REMARK  7 active torsions:
REMARK  status: ('A' for Active; 'I' for Inactive)
REMARK    1  A    between atoms: C_2  and  C_3
REMARK    2  A    between atoms: C_3  and  O_4
REMARK    3  A    between atoms: O_4  and  C_5
REMARK    4  A    between atoms: C_8  and  C_9
REMARK    5  A    between atoms: N_10  and  N_11
REMARK    6  A    between atoms: C_12  and  C_14
REMARK    7  A    between atoms: N_22  and  C_23
REMARK                            x       y       z     vdW  Elec       q    Type
REMARK                         _______ _______ _______ _____ _____    ______ ____
ROOT
ATOM      1  C   UNL     1       4.806   4.757  18.136  0.00  0.00    +0.000 A 
ATOM      2  C   UNL     1       5.954   4.994  18.891  0.00  0.00    +0.000 A 
ATOM      3  C   UNL     1       6.765   6.095  18.614  0.00  0.00    +0.000 A 
ATOM      4  C   UNL     1       6.440   6.958  17.563  0.00  0.00    +0.000 A 
ATOM      5  C   UNL     1       5.322   6.700  16.768  0.00  0.00    +0.000 A 
ATOM      6  C   UNL     1       4.510   5.592  17.051  0.00  0.00    +0.000 A 
ENDROOT
BRANCH   4   7
ATOM      7  C   UNL     1       7.270   8.155  17.301  0.00  0.00    +0.000 C 
ATOM      8  N   UNL     1       8.101   8.577  18.196  0.00  0.00    +0.000 NA
BRANCH   8   9
ATOM      9  N   UNL     1       8.837   9.686  17.905  0.00  0.00    +0.000 N 
ATOM     10  C   UNL     1       9.276  10.467  18.964  0.00  0.00    +0.000 C 
ATOM     11  O   UNL     1       9.060  10.227  20.151  0.00  0.00    +0.000 OA
ATOM     12  H   UNL     1       9.127   9.854  16.952  0.00  0.00    +0.000 HD
BRANCH  10  13
ATOM     13  C   UNL     1      10.090  11.664  18.627  0.00  0.00    +0.000 A 
ATOM     14  C   UNL     1      11.303  11.583  17.944  0.00  0.00    +0.000 A 
ATOM     15  C   UNL     1      11.957  12.767  17.653  0.00  0.00    +0.000 A 
ATOM     16  N   UNL     1      11.493  13.989  17.992  0.00  0.00    +0.000 NA
ATOM     17  C   UNL     1      10.308  14.039  18.636  0.00  0.00    +0.000 A 
ATOM     18  C   UNL     1       9.575  12.917  18.969  0.00  0.00    +0.000 A 
ENDBRANCH  10  13
ENDBRANCH   8   9
ENDBRANCH   4   7
BRANCH   1  19
ATOM     19  O   UNL     1       4.049   3.692  18.556  0.00  0.00    +0.000 OA
BRANCH  19  20
ATOM     20  C   UNL     1       3.529   3.820  19.871  0.00  0.00    +0.000 C 
BRANCH  20  22
ATOM     21  O   UNL     1       1.214   4.362  19.917  0.00  0.00    +0.000 OA
ATOM     22  C   UNL     1       2.362   4.799  20.004  0.00  0.00    +0.000 C 
ATOM     23  N   UNL     1       2.719   6.127  20.182  0.00  0.00    +0.000 N 
ATOM     24  H   UNL     1       3.698   6.340  20.030  0.00  0.00    +0.000 HD
BRANCH  23  25
ATOM     25  C   UNL     1       1.818   7.208  20.398  0.00  0.00    +0.000 A 
ATOM     26  C   UNL     1       0.954   7.185  21.504  0.00  0.00    +0.000 A 
ATOM     27  C   UNL     1       0.053   8.215  21.745  0.00  0.00    +0.000 A 
ATOM     28  C   UNL     1      -0.014   9.291  20.872  0.00  0.00    +0.000 A 
ATOM     29  C   UNL     1       0.824   9.356  19.753  0.00  0.00    +0.000 A 
ATOM     30  C   UNL     1       0.688  10.440  18.876  0.00  0.00    +0.000 A 
ATOM     31  C   UNL     1       1.487  10.549  17.743  0.00  0.00    +0.000 A 
ATOM     32  C   UNL     1       2.450   9.583  17.490  0.00  0.00    +0.000 A 
ATOM     33  C   UNL     1       2.598   8.492  18.358  0.00  0.00    +0.000 A 
ATOM     34  C   UNL     1       1.780   8.328  19.507  0.00  0.00    +0.000 A 
ENDBRANCH  23  25
ENDBRANCH  20  22
ENDBRANCH  19  20
ENDBRANCH   1  19
TORSDOF 7
ENDMDL
