MODEL 1
REMARK VINA RESULT:      -8.4      0.000      0.000
REMARK  Name = 
REMARK  7 active torsions:
REMARK  status: ('A' for Active; 'I' for Inactive)
REMARK    1  A    between atoms: C_1  and  C_2
REMARK    2  A    between atoms: N_4  and  C_5
REMARK    3  A    between atoms: C_5  and  C_6
REMARK    4  A    between atoms: C_6  and  C_7
REMARK    5  A    between atoms: C_7  and  C_8
REMARK    6  A    between atoms: N_16  and  C_17
REMARK    7  A    between atoms: C_17  and  C_18
REMARK                            x       y       z     vdW  Elec       q    Type
REMARK                         _______ _______ _______ _____ _____    ______ ____
ROOT
ATOM      1  C   UNL     1       3.602   7.251  17.519  0.00  0.00    +0.000 A 
ATOM      2  N   UNL     1       2.827   8.280  17.241  0.00  0.00    +0.000 NA
ATOM      3  C   UNL     1       2.091   8.513  18.371  0.00  0.00    +0.000 A 
ATOM      4  C   UNL     1       1.148   9.521  18.623  0.00  0.00    +0.000 A 
ATOM      5  C   UNL     1       0.545   9.578  19.884  0.00  0.00    +0.000 A 
ATOM      6  C   UNL     1       0.880   8.652  20.874  0.00  0.00    +0.000 A 
ATOM      7  C   UNL     1       1.805   7.628  20.635  0.00  0.00    +0.000 A 
ATOM      8  C   UNL     1       2.388   7.582  19.362  0.00  0.00    +0.000 A 
ATOM      9  N   UNL     1       3.303   6.741  18.767  0.00  0.00    +0.000 N 
ENDROOT
BRANCH   1  10
ATOM     10  C   UNL     1       4.692   6.730  16.636  0.00  0.00    +0.000 C 
BRANCH  10  11
ATOM     11  C   UNL     1       6.082   6.942  17.244  0.00  0.00    +0.000 C 
BRANCH  11  12
ATOM     12  C   UNL     1       6.994   5.727  17.060  0.00  0.00    +0.000 C 
BRANCH  12  16
ATOM     13  C   UNL     1       6.289   3.786  13.893  0.00  0.00    +0.000 C 
ATOM     14  C   UNL     1       6.948   4.822  14.760  0.00  0.00    +0.000 C 
ATOM     15  O   UNL     1       7.810   5.586  14.339  0.00  0.00    +0.000 OA
ATOM     16  N   UNL     1       6.477   4.826  16.050  0.00  0.00    +0.000 N 
ATOM     17  H   UNL     1       5.827   4.111  16.348  0.00  0.00    +0.000 HD
ENDBRANCH  12  16
ENDBRANCH  11  12
ENDBRANCH  10  11
ENDBRANCH   1  10
BRANCH   9  18
ATOM     18  C   UNL     1       3.766   5.468  19.306  0.00  0.00    +0.000 C 
BRANCH  18  19
ATOM     19  C   UNL     1       2.737   4.371  19.449  0.00  0.00    +0.000 A 
ATOM     20  C   UNL     1       2.048   4.095  20.636  0.00  0.00    +0.000 A 
ATOM     21  F   UNL     1       2.281   4.801  21.750  0.00  0.00    +0.000 F 
ATOM     22  C   UNL     1       1.100   3.077  20.723  0.00  0.00    +0.000 A 
ATOM     23  C   UNL     1       0.809   2.296  19.612  0.00  0.00    +0.000 A 
ATOM     24  C   UNL     1       1.473   2.544  18.414  0.00  0.00    +0.000 A 
ATOM     25  C   UNL     1       2.422   3.570  18.332  0.00  0.00    +0.000 A 
ATOM     26 CL   UNL     1       3.192   3.805  16.800  0.00  0.00    +0.000 Cl
ENDBRANCH  18  19
ENDBRANCH   9  18
TORSDOF 6
ENDMDL
MODEL 2
REMARK VINA RESULT:      -8.0      1.465      1.726
REMARK  Name = 
REMARK  7 active torsions:
REMARK  status: ('A' for Active; 'I' for Inactive)
REMARK    1  A    between atoms: C_1  and  C_2
REMARK    2  A    between atoms: N_4  and  C_5
REMARK    3  A    between atoms: C_5  and  C_6
REMARK    4  A    between atoms: C_6  and  C_7
REMARK    5  A    between atoms: C_7  and  C_8
REMARK    6  A    between atoms: N_16  and  C_17
REMARK    7  A    between atoms: C_17  and  C_18
REMARK                            x       y       z     vdW  Elec       q    Type
REMARK                         _______ _______ _______ _____ _____    ______ ____
ROOT
ATOM      1  C   UNL     1       3.504   7.032  17.650  0.00  0.00    +0.000 A 
ATOM      2  N   UNL     1       2.771   8.044  17.229  0.00  0.00    +0.000 NA
ATOM      3  C   UNL     1       2.037   8.451  18.310  0.00  0.00    +0.000 A 
ATOM      4  C   UNL     1       1.132   9.517  18.417  0.00  0.00    +0.000 A 
ATOM      5  C   UNL     1       0.523   9.762  19.653  0.00  0.00    +0.000 A 
ATOM      6  C   UNL     1       0.815   8.963  20.759  0.00  0.00    +0.000 A 
ATOM      7  C   UNL     1       1.702   7.883  20.668  0.00  0.00    +0.000 A 
ATOM      8  C   UNL     1       2.291   7.648  19.418  0.00  0.00    +0.000 A 
ATOM      9  N   UNL     1       3.177   6.703  18.949  0.00  0.00    +0.000 N 
ENDROOT
BRANCH   1  10
ATOM     10  C   UNL     1       4.579   6.360  16.855  0.00  0.00    +0.000 C 
BRANCH  10  11
ATOM     11  C   UNL     1       5.982   6.756  17.326  0.00  0.00    +0.000 C 
BRANCH  11  12
ATOM     12  C   UNL     1       7.082   5.936  16.647  0.00  0.00    +0.000 C 
BRANCH  12  16
ATOM     13  C   UNL     1       6.280   3.819  13.618  0.00  0.00    +0.000 C 
ATOM     14  C   UNL     1       6.978   4.891  14.409  0.00  0.00    +0.000 C 
ATOM     15  O   UNL     1       7.851   5.604  13.929  0.00  0.00    +0.000 OA
ATOM     16  N   UNL     1       6.527   4.987  15.703  0.00  0.00    +0.000 N 
ATOM     17  H   UNL     1       5.864   4.309  16.054  0.00  0.00    +0.000 HD
ENDBRANCH  12  16
ENDBRANCH  11  12
ENDBRANCH  10  11
ENDBRANCH   1  10
BRANCH   9  18
ATOM     18  C   UNL     1       3.587   5.495  19.657  0.00  0.00    +0.000 C 
BRANCH  18  19
ATOM     19  C   UNL     1       3.049   4.182  19.137  0.00  0.00    +0.000 A 
ATOM     20  C   UNL     1       3.779   3.304  18.326  0.00  0.00    +0.000 A 
ATOM     21  F   UNL     1       5.028   3.594  17.943  0.00  0.00    +0.000 F 
ATOM     22  C   UNL     1       3.245   2.099  17.873  0.00  0.00    +0.000 A 
ATOM     23  C   UNL     1       1.952   1.731  18.221  0.00  0.00    +0.000 A 
ATOM     24  C   UNL     1       1.198   2.578  19.028  0.00  0.00    +0.000 A 
ATOM     25  C   UNL     1       1.741   3.787  19.483  0.00  0.00    +0.000 A 
ATOM     26 CL   UNL     1       0.729   4.772  20.484  0.00  0.00    +0.000 Cl
ENDBRANCH  18  19
ENDBRANCH   9  18
TORSDOF 6
ENDMDL
MODEL 3
REMARK VINA RESULT:      -8.0      2.448      4.799
REMARK  Name = 
REMARK  7 active torsions:
REMARK  status: ('A' for Active; 'I' for Inactive)
REMARK    1  A    between atoms: C_1  and  C_2
REMARK    2  A    between atoms: N_4  and  C_5
REMARK    3  A    between atoms: C_5  and  C_6
REMARK    4  A    between atoms: C_6  and  C_7
REMARK    5  A    between atoms: C_7  and  C_8
REMARK    6  A    between atoms: N_16  and  C_17
REMARK    7  A    between atoms: C_17  and  C_18
REMARK                            x       y       z     vdW  Elec       q    Type
REMARK                         _______ _______ _______ _____ _____    ______ ____
ROOT
ATOM      1  C   UNL     1       2.153   5.797  20.030  0.00  0.00    +0.000 A 
ATOM      2  N   UNL     1       1.605   6.773  20.726  0.00  0.00    +0.000 NA
ATOM      3  C   UNL     1       1.639   7.877  19.918  0.00  0.00    +0.000 A 
ATOM      4  C   UNL     1       1.145   9.167  20.157  0.00  0.00    +0.000 A 
ATOM      5  C   UNL     1       1.266  10.132  19.151  0.00  0.00    +0.000 A 
ATOM      6  C   UNL     1       1.863   9.814  17.930  0.00  0.00    +0.000 A 
ATOM      7  C   UNL     1       2.379   8.536  17.679  0.00  0.00    +0.000 A 
ATOM      8  C   UNL     1       2.258   7.589  18.705  0.00  0.00    +0.000 A 
ATOM      9  N   UNL     1       2.643   6.272  18.830  0.00  0.00    +0.000 N 
ENDROOT
BRANCH   1  10
ATOM     10  C   UNL     1       2.197   4.360  20.448  0.00  0.00    +0.000 C 
BRANCH  10  11
ATOM     11  C   UNL     1       0.809   3.712  20.441  0.00  0.00    +0.000 C 
BRANCH  11  12
ATOM     12  C   UNL     1       0.685   2.606  19.390  0.00  0.00    +0.000 C 
BRANCH  12  16
ATOM     13  C   UNL     1       3.949   1.235  18.060  0.00  0.00    +0.000 C 
ATOM     14  C   UNL     1       2.658   2.007  18.027  0.00  0.00    +0.000 C 
ATOM     15  O   UNL     1       2.290   2.638  17.042  0.00  0.00    +0.000 OA
ATOM     16  N   UNL     1       1.945   1.917  19.197  0.00  0.00    +0.000 N 
ATOM     17  H   UNL     1       2.351   1.449  19.996  0.00  0.00    +0.000 HD
ENDBRANCH  12  16
ENDBRANCH  11  12
ENDBRANCH  10  11
ENDBRANCH   1  10
BRANCH   9  18
ATOM     18  C   UNL     1       3.527   5.553  17.920  0.00  0.00    +0.000 C 
BRANCH  18  19
ATOM     19  C   UNL     1       5.010   5.806  18.065  0.00  0.00    +0.000 A 
ATOM     20  C   UNL     1       5.777   5.358  19.148  0.00  0.00    +0.000 A 
ATOM     21  F   UNL     1       5.219   4.671  20.152  0.00  0.00    +0.000 F 
ATOM     22  C   UNL     1       7.145   5.609  19.240  0.00  0.00    +0.000 A 
ATOM     23  C   UNL     1       7.794   6.323  18.240  0.00  0.00    +0.000 A 
ATOM     24  C   UNL     1       7.063   6.781  17.148  0.00  0.00    +0.000 A 
ATOM     25  C   UNL     1       5.689   6.524  17.060  0.00  0.00    +0.000 A 
ATOM     26 CL   UNL     1       4.867   7.130  15.663  0.00  0.00    +0.000 Cl
ENDBRANCH  18  19
ENDBRANCH   9  18
TORSDOF 6
ENDMDL
MODEL 4
REMARK VINA RESULT:      -7.9      2.810      4.690
REMARK  Name = 
REMARK  7 active torsions:
REMARK  status: ('A' for Active; 'I' for Inactive)
REMARK    1  A    between atoms: C_1  and  C_2
REMARK    2  A    between atoms: N_4  and  C_5
REMARK    3  A    between atoms: C_5  and  C_6
REMARK    4  A    between atoms: C_6  and  C_7
REMARK    5  A    between atoms: C_7  and  C_8
REMARK    6  A    between atoms: N_16  and  C_17
REMARK    7  A    between atoms: C_17  and  C_18
REMARK                            x       y       z     vdW  Elec       q    Type
REMARK                         _______ _______ _______ _____ _____    ______ ____
ROOT
ATOM      1  C   UNL     1       5.576   4.960  15.385  0.00  0.00    +0.000 A 
ATOM      2  N   UNL     1       6.498   5.897  15.481  0.00  0.00    +0.000 NA
ATOM      3  C   UNL     1       6.827   5.965  16.808  0.00  0.00    +0.000 A 
ATOM      4  C   UNL     1       7.788   6.765  17.443  0.00  0.00    +0.000 A 
ATOM      5  C   UNL     1       7.971   6.629  18.824  0.00  0.00    +0.000 A 
ATOM      6  C   UNL     1       7.215   5.710  19.554  0.00  0.00    +0.000 A 
ATOM      7  C   UNL     1       6.239   4.914  18.940  0.00  0.00    +0.000 A 
ATOM      8  C   UNL     1       6.064   5.076  17.559  0.00  0.00    +0.000 A 
ATOM      9  N   UNL     1       5.220   4.498  16.635  0.00  0.00    +0.000 N 
ENDROOT
BRANCH   1  10
ATOM     10  C   UNL     1       5.022   4.427  14.100  0.00  0.00    +0.000 C 
BRANCH  10  11
ATOM     11  C   UNL     1       6.097   3.756  13.240  0.00  0.00    +0.000 C 
BRANCH  11  12
ATOM     12  C   UNL     1       5.579   3.365  11.854  0.00  0.00    +0.000 C 
BRANCH  12  16
ATOM     13  C   UNL     1       6.150  -0.321  11.227  0.00  0.00    +0.000 C 
ATOM     14  C   UNL     1       6.486   1.145  11.252  0.00  0.00    +0.000 C 
ATOM     15  O   UNL     1       7.568   1.582  10.876  0.00  0.00    +0.000 OA
ATOM     16  N   UNL     1       5.459   1.927  11.721  0.00  0.00    +0.000 N 
ATOM     17  H   UNL     1       4.626   1.489  12.093  0.00  0.00    +0.000 HD
ENDBRANCH  12  16
ENDBRANCH  11  12
ENDBRANCH  10  11
ENDBRANCH   1  10
BRANCH   9  18
ATOM     18  C   UNL     1       4.069   3.657  16.943  0.00  0.00    +0.000 C 
BRANCH  18  19
ATOM     19  C   UNL     1       3.329   3.954  18.227  0.00  0.00    +0.000 A 
ATOM     20  C   UNL     1       2.739   5.189  18.520  0.00  0.00    +0.000 A 
ATOM     21  F   UNL     1       2.811   6.211  17.659  0.00  0.00    +0.000 F 
ATOM     22  C   UNL     1       2.059   5.420  19.716  0.00  0.00    +0.000 A 
ATOM     23  C   UNL     1       1.948   4.410  20.663  0.00  0.00    +0.000 A 
ATOM     24  C   UNL     1       2.520   3.168  20.403  0.00  0.00    +0.000 A 
ATOM     25  C   UNL     1       3.200   2.942  19.199  0.00  0.00    +0.000 A 
ATOM     26 CL   UNL     1       3.874   1.365  18.965  0.00  0.00    +0.000 Cl
ENDBRANCH  18  19
ENDBRANCH   9  18
TORSDOF 6
ENDMDL
MODEL 5
REMARK VINA RESULT:      -7.8      2.966      5.770
REMARK  Name = 
REMARK  7 active torsions:
REMARK  status: ('A' for Active; 'I' for Inactive)
REMARK    1  A    between atoms: C_1  and  C_2
REMARK    2  A    between atoms: N_4  and  C_5
REMARK    3  A    between atoms: C_5  and  C_6
REMARK    4  A    between atoms: C_6  and  C_7
REMARK    5  A    between atoms: C_7  and  C_8
REMARK    6  A    between atoms: N_16  and  C_17
REMARK    7  A    between atoms: C_17  and  C_18
REMARK                            x       y       z     vdW  Elec       q    Type
REMARK                         _______ _______ _______ _____ _____    ______ ____
ROOT
ATOM      1  C   UNL     1       3.087   7.255  17.771  0.00  0.00    +0.000 A 
ATOM      2  N   UNL     1       4.307   7.739  17.652  0.00  0.00    +0.000 NA
ATOM      3  C   UNL     1       5.094   6.686  17.272  0.00  0.00    +0.000 A 
ATOM      4  C   UNL     1       6.463   6.666  16.966  0.00  0.00    +0.000 A 
ATOM      5  C   UNL     1       7.044   5.461  16.560  0.00  0.00    +0.000 A 
ATOM      6  C   UNL     1       6.275   4.300  16.455  0.00  0.00    +0.000 A 
ATOM      7  C   UNL     1       4.911   4.296  16.773  0.00  0.00    +0.000 A 
ATOM      8  C   UNL     1       4.352   5.512  17.189  0.00  0.00    +0.000 A 
ATOM      9  N   UNL     1       3.086   5.888  17.585  0.00  0.00    +0.000 N 
ENDROOT
BRANCH   1  10
ATOM     10  C   UNL     1       1.858   8.072  18.022  0.00  0.00    +0.000 C 
BRANCH  10  11
ATOM     11  C   UNL     1       2.139   9.576  17.958  0.00  0.00    +0.000 C 
BRANCH  11  12
ATOM     12  C   UNL     1       0.950  10.415  18.433  0.00  0.00    +0.000 C 
BRANCH  12  16
ATOM     13  C   UNL     1      -2.642   9.916  17.361  0.00  0.00    +0.000 C 
ATOM     14  C   UNL     1      -1.511  10.442  18.202  0.00  0.00    +0.000 C 
ATOM     15  O   UNL     1      -1.691  11.176  19.168  0.00  0.00    +0.000 OA
ATOM     16  N   UNL     1      -0.279  10.007  17.781  0.00  0.00    +0.000 N 
ATOM     17  H   UNL     1      -0.201   9.473  16.926  0.00  0.00    +0.000 HD
ENDBRANCH  12  16
ENDBRANCH  11  12
ENDBRANCH  10  11
ENDBRANCH   1  10
BRANCH   9  18
ATOM     18  C   UNL     1       1.984   4.982  17.886  0.00  0.00    +0.000 C 
BRANCH  18  19
ATOM     19  C   UNL     1       2.080   4.191  19.170  0.00  0.00    +0.000 A 
ATOM     20  C   UNL     1       1.966   4.755  20.446  0.00  0.00    +0.000 A 
ATOM     21  F   UNL     1       1.773   6.070  20.605  0.00  0.00    +0.000 F 
ATOM     22  C   UNL     1       2.055   3.987  21.607  0.00  0.00    +0.000 A 
ATOM     23  C   UNL     1       2.262   2.616  21.523  0.00  0.00    +0.000 A 
ATOM     24  C   UNL     1       2.378   2.021  20.271  0.00  0.00    +0.000 A 
ATOM     25  C   UNL     1       2.285   2.797  19.109  0.00  0.00    +0.000 A 
ATOM     26 CL   UNL     1       2.437   1.967  17.597  0.00  0.00    +0.000 Cl
ENDBRANCH  18  19
ENDBRANCH   9  18
TORSDOF 6
ENDMDL
MODEL 6
REMARK VINA RESULT:      -7.8      3.117      6.127
REMARK  Name = 
REMARK  7 active torsions:
REMARK  status: ('A' for Active; 'I' for Inactive)
REMARK    1  A    between atoms: C_1  and  C_2
REMARK    2  A    between atoms: N_4  and  C_5
REMARK    3  A    between atoms: C_5  and  C_6
REMARK    4  A    between atoms: C_6  and  C_7
REMARK    5  A    between atoms: C_7  and  C_8
REMARK    6  A    between atoms: N_16  and  C_17
REMARK    7  A    between atoms: C_17  and  C_18
REMARK                            x       y       z     vdW  Elec       q    Type
REMARK                         _______ _______ _______ _____ _____    ______ ____
ROOT
ATOM      1  C   UNL     1       3.031   6.187  18.675  0.00  0.00    +0.000 A 
ATOM      2  N   UNL     1       1.795   5.799  18.921  0.00  0.00    +0.000 NA
ATOM      3  C   UNL     1       1.900   4.691  19.717  0.00  0.00    +0.000 A 
ATOM      4  C   UNL     1       0.885   3.918  20.299  0.00  0.00    +0.000 A 
ATOM      5  C   UNL     1       1.245   2.839  21.114  0.00  0.00    +0.000 A 
ATOM      6  C   UNL     1       2.589   2.541  21.347  0.00  0.00    +0.000 A 
ATOM      7  C   UNL     1       3.616   3.291  20.761  0.00  0.00    +0.000 A 
ATOM      8  C   UNL     1       3.233   4.359  19.938  0.00  0.00    +0.000 A 
ATOM      9  N   UNL     1       3.936   5.288  19.201  0.00  0.00    +0.000 N 
ENDROOT
BRANCH   1  10
ATOM     10  C   UNL     1       3.412   7.451  17.969  0.00  0.00    +0.000 C 
BRANCH  10  11
ATOM     11  C   UNL     1       2.190   8.288  17.579  0.00  0.00    +0.000 C 
BRANCH  11  12
ATOM     12  C   UNL     1       1.910   9.415  18.576  0.00  0.00    +0.000 C 
BRANCH  12  16
ATOM     13  C   UNL     1      -0.237   8.762  21.620  0.00  0.00    +0.000 C 
ATOM     14  C   UNL     1       0.214   9.473  20.373  0.00  0.00    +0.000 C 
ATOM     15  O   UNL     1      -0.359  10.465  19.934  0.00  0.00    +0.000 OA
ATOM     16  N   UNL     1       1.325   8.905  19.800  0.00  0.00    +0.000 N 
ATOM     17  H   UNL     1       1.692   8.039  20.169  0.00  0.00    +0.000 HD
ENDBRANCH  12  16
ENDBRANCH  11  12
ENDBRANCH  10  11
ENDBRANCH   1  10
BRANCH   9  18
ATOM     18  C   UNL     1       5.366   5.244  18.916  0.00  0.00    +0.000 C 
BRANCH  18  19
ATOM     19  C   UNL     1       5.770   4.938  17.493  0.00  0.00    +0.000 A 
ATOM     20  C   UNL     1       5.223   3.897  16.732  0.00  0.00    +0.000 A 
ATOM     21  F   UNL     1       4.293   3.082  17.243  0.00  0.00    +0.000 F 
ATOM     22  C   UNL     1       5.621   3.653  15.418  0.00  0.00    +0.000 A 
ATOM     23  C   UNL     1       6.587   4.452  14.819  0.00  0.00    +0.000 A 
ATOM     24  C   UNL     1       7.150   5.497  15.545  0.00  0.00    +0.000 A 
ATOM     25  C   UNL     1       6.745   5.739  16.864  0.00  0.00    +0.000 A 
ATOM     26 CL   UNL     1       7.499   7.064  17.684  0.00  0.00    +0.000 Cl
ENDBRANCH  18  19
ENDBRANCH   9  18
TORSDOF 6
ENDMDL
MODEL 7
REMARK VINA RESULT:      -7.7      3.167      6.149
REMARK  Name = 
REMARK  7 active torsions:
REMARK  status: ('A' for Active; 'I' for Inactive)
REMARK    1  A    between atoms: C_1  and  C_2
REMARK    2  A    between atoms: N_4  and  C_5
REMARK    3  A    between atoms: C_5  and  C_6
REMARK    4  A    between atoms: C_6  and  C_7
REMARK    5  A    between atoms: C_7  and  C_8
REMARK    6  A    between atoms: N_16  and  C_17
REMARK    7  A    between atoms: C_17  and  C_18
REMARK                            x       y       z     vdW  Elec       q    Type
REMARK                         _______ _______ _______ _____ _____    ______ ____
ROOT
ATOM      1  C   UNL     1       3.104   6.290  18.694  0.00  0.00    +0.000 A 
ATOM      2  N   UNL     1       1.860   5.938  18.948  0.00  0.00    +0.000 NA
ATOM      3  C   UNL     1       1.938   4.800  19.704  0.00  0.00    +0.000 A 
ATOM      4  C   UNL     1       0.906   4.043  20.278  0.00  0.00    +0.000 A 
ATOM      5  C   UNL     1       1.240   2.925  21.050  0.00  0.00    +0.000 A 
ATOM      6  C   UNL     1       2.576   2.573  21.250  0.00  0.00    +0.000 A 
ATOM      7  C   UNL     1       3.620   3.306  20.671  0.00  0.00    +0.000 A 
ATOM      8  C   UNL     1       3.262   4.414  19.891  0.00  0.00    +0.000 A 
ATOM      9  N   UNL     1       3.985   5.342  19.173  0.00  0.00    +0.000 N 
ENDROOT
BRANCH   1  10
ATOM     10  C   UNL     1       3.519   7.563  18.024  0.00  0.00    +0.000 C 
BRANCH  10  11
ATOM     11  C   UNL     1       2.332   8.301  17.398  0.00  0.00    +0.000 C 
BRANCH  11  12
ATOM     12  C   UNL     1       1.817   9.440  18.282  0.00  0.00    +0.000 C 
BRANCH  12  16
ATOM     13  C   UNL     1      -1.741  10.713  18.138  0.00  0.00    +0.000 C 
ATOM     14  C   UNL     1      -0.448  10.293  18.783  0.00  0.00    +0.000 C 
ATOM     15  O   UNL     1      -0.272  10.327  19.996  0.00  0.00    +0.000 OA
ATOM     16  N   UNL     1       0.492   9.864  17.878  0.00  0.00    +0.000 N 
ATOM     17  H   UNL     1       0.306   9.945  16.887  0.00  0.00    +0.000 HD
ENDBRANCH  12  16
ENDBRANCH  11  12
ENDBRANCH  10  11
ENDBRANCH   1  10
BRANCH   9  18
ATOM     18  C   UNL     1       5.408   5.258  18.862  0.00  0.00    +0.000 C 
BRANCH  18  19
ATOM     19  C   UNL     1       5.777   4.958  17.428  0.00  0.00    +0.000 A 
ATOM     20  C   UNL     1       5.231   3.904  16.685  0.00  0.00    +0.000 A 
ATOM     21  F   UNL     1       4.334   3.070  17.224  0.00  0.00    +0.000 F 
ATOM     22  C   UNL     1       5.595   3.665  15.360  0.00  0.00    +0.000 A 
ATOM     23  C   UNL     1       6.527   4.483  14.733  0.00  0.00    +0.000 A 
ATOM     24  C   UNL     1       7.088   5.542  15.441  0.00  0.00    +0.000 A 
ATOM     25  C   UNL     1       6.716   5.778  16.771  0.00  0.00    +0.000 A 
ATOM     26 CL   UNL     1       7.465   7.120  17.567  0.00  0.00    +0.000 Cl
ENDBRANCH  18  19
ENDBRANCH   9  18
TORSDOF 6
ENDMDL
MODEL 8
REMARK VINA RESULT:      -7.7      2.153      4.736
REMARK  Name = 
REMARK  7 active torsions:
REMARK  status: ('A' for Active; 'I' for Inactive)
REMARK    1  A    between atoms: C_1  and  C_2
REMARK    2  A    between atoms: N_4  and  C_5
REMARK    3  A    between atoms: C_5  and  C_6
REMARK    4  A    between atoms: C_6  and  C_7
REMARK    5  A    between atoms: C_7  and  C_8
REMARK    6  A    between atoms: N_16  and  C_17
REMARK    7  A    between atoms: C_17  and  C_18
REMARK                            x       y       z     vdW  Elec       q    Type
REMARK                         _______ _______ _______ _____ _____    ______ ____
ROOT
ATOM      1  C   UNL     1       4.708   4.678  19.295  0.00  0.00    +0.000 A 
ATOM      2  N   UNL     1       4.723   3.422  18.896  0.00  0.00    +0.000 NA
ATOM      3  C   UNL     1       3.414   3.027  18.849  0.00  0.00    +0.000 A 
ATOM      4  C   UNL     1       2.872   1.798  18.445  0.00  0.00    +0.000 A 
ATOM      5  C   UNL     1       1.482   1.641  18.449  0.00  0.00    +0.000 A 
ATOM      6  C   UNL     1       0.650   2.690  18.843  0.00  0.00    +0.000 A 
ATOM      7  C   UNL     1       1.172   3.919  19.266  0.00  0.00    +0.000 A 
ATOM      8  C   UNL     1       2.568   4.050  19.266  0.00  0.00    +0.000 A 
ATOM      9  N   UNL     1       3.425   5.070  19.617  0.00  0.00    +0.000 N 
ENDROOT
BRANCH   1  10
ATOM     10  C   UNL     1       5.903   5.579  19.348  0.00  0.00    +0.000 C 
BRANCH  10  11
ATOM     11  C   UNL     1       6.451   5.897  17.954  0.00  0.00    +0.000 C 
BRANCH  11  12
ATOM     12  C   UNL     1       7.302   4.759  17.386  0.00  0.00    +0.000 C 
BRANCH  12  16
ATOM     13  C   UNL     1       6.175   3.795  13.907  0.00  0.00    +0.000 C 
ATOM     14  C   UNL     1       6.913   4.588  14.950  0.00  0.00    +0.000 C 
ATOM     15  O   UNL     1       7.645   5.531  14.669  0.00  0.00    +0.000 OA
ATOM     16  N   UNL     1       6.671   4.153  16.230  0.00  0.00    +0.000 N 
ATOM     17  H   UNL     1       6.124   3.316  16.380  0.00  0.00    +0.000 HD
ENDBRANCH  12  16
ENDBRANCH  11  12
ENDBRANCH  10  11
ENDBRANCH   1  10
BRANCH   9  18
ATOM     18  C   UNL     1       3.053   6.289  20.326  0.00  0.00    +0.000 C 
BRANCH  18  19
ATOM     19  C   UNL     1       2.430   7.394  19.505  0.00  0.00    +0.000 A 
ATOM     20  C   UNL     1       2.629   7.553  18.128  0.00  0.00    +0.000 A 
ATOM     21  F   UNL     1       3.419   6.716  17.444  0.00  0.00    +0.000 F 
ATOM     22  C   UNL     1       2.030   8.584  17.407  0.00  0.00    +0.000 A 
ATOM     23  C   UNL     1       1.203   9.497  18.048  0.00  0.00    +0.000 A 
ATOM     24  C   UNL     1       0.979   9.368  19.416  0.00  0.00    +0.000 A 
ATOM     25  C   UNL     1       1.583   8.329  20.135  0.00  0.00    +0.000 A 
ATOM     26 CL   UNL     1       1.242   8.248  21.830  0.00  0.00    +0.000 Cl
ENDBRANCH  18  19
ENDBRANCH   9  18
TORSDOF 6
ENDMDL
MODEL 9
REMARK VINA RESULT:      -7.7      2.043      4.574
REMARK  Name = 
REMARK  7 active torsions:
REMARK  status: ('A' for Active; 'I' for Inactive)
REMARK    1  A    between atoms: C_1  and  C_2
REMARK    2  A    between atoms: N_4  and  C_5
REMARK    3  A    between atoms: C_5  and  C_6
REMARK    4  A    between atoms: C_6  and  C_7
REMARK    5  A    between atoms: C_7  and  C_8
REMARK    6  A    between atoms: N_16  and  C_17
REMARK    7  A    between atoms: C_17  and  C_18
REMARK                            x       y       z     vdW  Elec       q    Type
REMARK                         _______ _______ _______ _____ _____    ______ ____
ROOT
ATOM      1  C   UNL     1       3.805   5.316  17.685  0.00  0.00    +0.000 A 
ATOM      2  N   UNL     1       3.602   4.039  17.425  0.00  0.00    +0.000 NA
ATOM      3  C   UNL     1       2.596   3.640  18.262  0.00  0.00    +0.000 A 
ATOM      4  C   UNL     1       1.968   2.390  18.361  0.00  0.00    +0.000 A 
ATOM      5  C   UNL     1       0.924   2.232  19.279  0.00  0.00    +0.000 A 
ATOM      6  C   UNL     1       0.512   3.300  20.077  0.00  0.00    +0.000 A 
ATOM      7  C   UNL     1       1.137   4.551  20.004  0.00  0.00    +0.000 A 
ATOM      8  C   UNL     1       2.188   4.684  19.088  0.00  0.00    +0.000 A 
ATOM      9  N   UNL     1       3.028   5.724  18.750  0.00  0.00    +0.000 N 
ENDROOT
BRANCH   1  10
ATOM     10  C   UNL     1       4.709   6.220  16.907  0.00  0.00    +0.000 C 
BRANCH  10  11
ATOM     11  C   UNL     1       6.133   6.240  17.472  0.00  0.00    +0.000 C 
BRANCH  11  12
ATOM     12  C   UNL     1       6.937   4.998  17.081  0.00  0.00    +0.000 C 
BRANCH  12  16
ATOM     13  C   UNL     1       6.195   3.864  13.550  0.00  0.00    +0.000 C 
ATOM     14  C   UNL     1       6.883   4.648  14.634  0.00  0.00    +0.000 C 
ATOM     15  O   UNL     1       7.777   5.455  14.401  0.00  0.00    +0.000 OA
ATOM     16  N   UNL     1       6.398   4.374  15.889  0.00  0.00    +0.000 N 
ATOM     17  H   UNL     1       5.719   3.634  16.013  0.00  0.00    +0.000 HD
ENDBRANCH  12  16
ENDBRANCH  11  12
ENDBRANCH  10  11
ENDBRANCH   1  10
BRANCH   9  18
ATOM     18  C   UNL     1       3.163   6.980  19.479  0.00  0.00    +0.000 C 
BRANCH  18  19
ATOM     19  C   UNL     1       2.132   8.048  19.196  0.00  0.00    +0.000 A 
ATOM     20  C   UNL     1       1.944   8.640  17.941  0.00  0.00    +0.000 A 
ATOM     21  F   UNL     1       2.701   8.293  16.893  0.00  0.00    +0.000 F 
ATOM     22  C   UNL     1       0.976   9.620  17.722  0.00  0.00    +0.000 A 
ATOM     23  C   UNL     1       0.158  10.039  18.763  0.00  0.00    +0.000 A 
ATOM     24  C   UNL     1       0.314   9.470  20.023  0.00  0.00    +0.000 A 
ATOM     25  C   UNL     1       1.287   8.485  20.236  0.00  0.00    +0.000 A 
ATOM     26 CL   UNL     1       1.404   7.833  21.836  0.00  0.00    +0.000 Cl
ENDBRANCH  18  19
ENDBRANCH   9  18
TORSDOF 6
ENDMDL
