MODEL 1
REMARK VINA RESULT:      -8.0      0.000      0.000
REMARK  Name = 
REMARK  5 active torsions:
REMARK  status: ('A' for Active; 'I' for Inactive)
REMARK    1  A    between atoms: C_1  and  C_2
REMARK    2  A    between atoms: N_7  and  C_8
REMARK    3  A    between atoms: C_8  and  C_9
REMARK    4  A    between atoms: C_11  and  C_12
REMARK    5  A    between atoms: C_23  and  C_24
REMARK                            x       y       z     vdW  Elec       q    Type
REMARK                         _______ _______ _______ _____ _____    ______ ____
ROOT
ATOM      1  C   UNL     1       1.984   8.331  18.771  0.00  0.00    +0.000 C 
ATOM      2  C   UNL     1       1.446   9.266  17.960  0.00  0.00    +0.000 C 
ENDROOT
BRANCH   1   9
ATOM      3  C   UNL     1       3.262   1.700  18.059  0.00  0.00    +0.000 C 
ATOM      4  C   UNL     1       3.054   3.184  18.166  0.00  0.00    +0.000 A 
ATOM      5  C   UNL     1       3.893   4.051  17.434  0.00  0.00    +0.000 A 
ATOM      6  C   UNL     1       3.731   5.438  17.561  0.00  0.00    +0.000 A 
ATOM      7  N   UNL     1       4.423   6.458  16.991  0.00  0.00    +0.000 NA
ATOM      8  N   UNL     1       3.931   7.595  17.450  0.00  0.00    +0.000 NA
ATOM      9  N   UNL     1       2.848   7.338  18.259  0.00  0.00    +0.000 N 
ATOM     10  C   UNL     1       2.743   5.947  18.391  0.00  0.00    +0.000 A 
ATOM     11  C   UNL     1       1.899   5.104  19.126  0.00  0.00    +0.000 A 
ATOM     12  C   UNL     1       2.051   3.716  18.998  0.00  0.00    +0.000 A 
ATOM     13  C   UNL     1       1.118   2.831  19.782  0.00  0.00    +0.000 C 
ENDBRANCH   1   9
BRANCH   2  14
ATOM     14  C   UNL     1       0.267  10.055  18.315  0.00  0.00    +0.000 A 
ATOM     15  C   UNL     1       0.284  11.158  19.197  0.00  0.00    +0.000 A 
ATOM     16  C   UNL     1      -0.901  11.857  19.470  0.00  0.00    +0.000 A 
ATOM     17  C   UNL     1      -2.050  11.444  18.828  0.00  0.00    +0.000 A 
ATOM     18  C   UNL     1      -2.064  10.349  17.999  0.00  0.00    +0.000 A 
ATOM     19  C   UNL     1      -0.931   9.623  17.739  0.00  0.00    +0.000 A 
ATOM     20  O   UNL     1      -3.287  10.119  17.449  0.00  0.00    +0.000 OA
ATOM     21  C   UNL     1      -3.942  11.348  17.809  0.00  0.00    +0.000 C 
ATOM     22  O   UNL     1      -3.270  12.048  18.880  0.00  0.00    +0.000 OA
ENDBRANCH   2  14
BRANCH   1  23
ATOM     23  C   UNL     1       1.583   8.288  20.133  0.00  0.00    +0.000 C 
ATOM     24  N   UNL     1       1.280   8.244  21.257  0.00  0.00    +0.000 NA
ENDBRANCH   1  23
TORSDOF 3
ENDMDL
MODEL 2
REMARK VINA RESULT:      -7.8      0.903      1.679
REMARK  Name = 
REMARK  5 active torsions:
REMARK  status: ('A' for Active; 'I' for Inactive)
REMARK    1  A    between atoms: C_1  and  C_2
REMARK    2  A    between atoms: N_7  and  C_8
REMARK    3  A    between atoms: C_8  and  C_9
REMARK    4  A    between atoms: C_11  and  C_12
REMARK    5  A    between atoms: C_23  and  C_24
REMARK                            x       y       z     vdW  Elec       q    Type
REMARK                         _______ _______ _______ _____ _____    ______ ____
ROOT
ATOM      1  C   UNL     1       2.165   8.172  18.672  0.00  0.00    +0.000 C 
ATOM      2  C   UNL     1       1.700   9.136  17.850  0.00  0.00    +0.000 C 
ENDROOT
BRANCH   1   9
ATOM      3  C   UNL     1       3.376   1.504  18.235  0.00  0.00    +0.000 C 
ATOM      4  C   UNL     1       3.181   2.993  18.278  0.00  0.00    +0.000 A 
ATOM      5  C   UNL     1       4.006   3.818  17.484  0.00  0.00    +0.000 A 
ATOM      6  C   UNL     1       3.857   5.211  17.551  0.00  0.00    +0.000 A 
ATOM      7  N   UNL     1       4.541   6.197  16.916  0.00  0.00    +0.000 NA
ATOM      8  N   UNL     1       4.070   7.359  17.334  0.00  0.00    +0.000 NA
ATOM      9  N   UNL     1       3.008   7.148  18.184  0.00  0.00    +0.000 N 
ATOM     10  C   UNL     1       2.896   5.766  18.383  0.00  0.00    +0.000 A 
ATOM     11  C   UNL     1       2.067   4.965  19.179  0.00  0.00    +0.000 A 
ATOM     12  C   UNL     1       2.206   3.571  19.111  0.00  0.00    +0.000 A 
ATOM     13  C   UNL     1       1.288   2.732  19.961  0.00  0.00    +0.000 C 
ENDBRANCH   1   9
BRANCH   2  14
ATOM     14  C   UNL     1       0.540   9.970  18.168  0.00  0.00    +0.000 A 
ATOM     15  C   UNL     1      -0.785   9.670  17.782  0.00  0.00    +0.000 A 
ATOM     16  C   UNL     1      -1.833  10.530  18.141  0.00  0.00    +0.000 A 
ATOM     17  C   UNL     1      -1.518  11.641  18.898  0.00  0.00    +0.000 A 
ATOM     18  C   UNL     1      -0.221  11.942  19.240  0.00  0.00    +0.000 A 
ATOM     19  C   UNL     1       0.828  11.141  18.874  0.00  0.00    +0.000 A 
ATOM     20  O   UNL     1      -0.125  13.064  20.002  0.00  0.00    +0.000 OA
ATOM     21  C   UNL     1      -1.515  13.254  20.320  0.00  0.00    +0.000 C 
ATOM     22  O   UNL     1      -2.397  12.536  19.429  0.00  0.00    +0.000 OA
ENDBRANCH   2  14
BRANCH   1  23
ATOM     23  C   UNL     1       1.708   8.132  20.016  0.00  0.00    +0.000 C 
ATOM     24  N   UNL     1       1.352   8.117  21.125  0.00  0.00    +0.000 NA
ENDBRANCH   1  23
TORSDOF 3
ENDMDL
MODEL 3
REMARK VINA RESULT:      -7.7      3.988      7.839
REMARK  Name = 
REMARK  5 active torsions:
REMARK  status: ('A' for Active; 'I' for Inactive)
REMARK    1  A    between atoms: C_1  and  C_2
REMARK    2  A    between atoms: N_7  and  C_8
REMARK    3  A    between atoms: C_8  and  C_9
REMARK    4  A    between atoms: C_11  and  C_12
REMARK    5  A    between atoms: C_23  and  C_24
REMARK                            x       y       z     vdW  Elec       q    Type
REMARK                         _______ _______ _______ _____ _____    ______ ____
ROOT
ATOM      1  C   UNL     1       2.605   7.247  18.583  0.00  0.00    +0.000 C 
ATOM      2  C   UNL     1       2.067   6.218  19.270  0.00  0.00    +0.000 C 
ENDROOT
BRANCH   1   9
ATOM      3  C   UNL     1      -0.632  12.006  22.187  0.00  0.00    +0.000 C 
ATOM      4  C   UNL     1       0.082  11.010  21.318  0.00  0.00    +0.000 A 
ATOM      5  C   UNL     1       0.465  11.385  20.012  0.00  0.00    +0.000 A 
ATOM      6  C   UNL     1       1.094  10.448  19.181  0.00  0.00    +0.000 A 
ATOM      7  N   UNL     1       1.522  10.561  17.897  0.00  0.00    +0.000 NA
ATOM      8  N   UNL     1       2.013   9.393  17.523  0.00  0.00    +0.000 NA
ATOM      9  N   UNL     1       1.994   8.521  18.587  0.00  0.00    +0.000 N 
ATOM     10  C   UNL     1       1.348   9.166  19.649  0.00  0.00    +0.000 A 
ATOM     11  C   UNL     1       0.976   8.774  20.942  0.00  0.00    +0.000 A 
ATOM     12  C   UNL     1       0.353   9.709  21.780  0.00  0.00    +0.000 A 
ATOM     13  C   UNL     1      -0.017   9.268  23.172  0.00  0.00    +0.000 C 
ENDBRANCH   1   9
BRANCH   2  14
ATOM     14  C   UNL     1       2.393   4.817  19.004  0.00  0.00    +0.000 A 
ATOM     15  C   UNL     1       1.839   4.057  17.951  0.00  0.00    +0.000 A 
ATOM     16  C   UNL     1       2.221   2.720  17.773  0.00  0.00    +0.000 A 
ATOM     17  C   UNL     1       3.165   2.204  18.637  0.00  0.00    +0.000 A 
ATOM     18  C   UNL     1       3.673   2.940  19.680  0.00  0.00    +0.000 A 
ATOM     19  C   UNL     1       3.293   4.238  19.902  0.00  0.00    +0.000 A 
ATOM     20  O   UNL     1       4.603   2.260  20.402  0.00  0.00    +0.000 OA
ATOM     21  C   UNL     1       4.810   1.139  19.524  0.00  0.00    +0.000 C 
ATOM     22  O   UNL     1       3.738   0.970  18.570  0.00  0.00    +0.000 OA
ENDBRANCH   2  14
BRANCH   1  23
ATOM     23  C   UNL     1       3.738   7.008  17.760  0.00  0.00    +0.000 C 
ATOM     24  N   UNL     1       4.682   6.805  17.107  0.00  0.00    +0.000 NA
ENDBRANCH   1  23
TORSDOF 3
ENDMDL
MODEL 4
REMARK VINA RESULT:      -7.6      5.225      7.373
REMARK  Name = 
REMARK  5 active torsions:
REMARK  status: ('A' for Active; 'I' for Inactive)
REMARK    1  A    between atoms: C_1  and  C_2
REMARK    2  A    between atoms: N_7  and  C_8
REMARK    3  A    between atoms: C_8  and  C_9
REMARK    4  A    between atoms: C_11  and  C_12
REMARK    5  A    between atoms: C_23  and  C_24
REMARK                            x       y       z     vdW  Elec       q    Type
REMARK                         _______ _______ _______ _____ _____    ______ ____
ROOT
ATOM      1  C   UNL     1       4.631   5.025  16.666  0.00  0.00    +0.000 C 
ATOM      2  C   UNL     1       4.033   3.848  16.941  0.00  0.00    +0.000 C 
ENDROOT
BRANCH   1   9
ATOM      3  C   UNL     1       7.553   3.567  10.711  0.00  0.00    +0.000 C 
ATOM      4  C   UNL     1       6.984   3.930  12.054  0.00  0.00    +0.000 A 
ATOM      5  C   UNL     1       7.746   4.733  12.929  0.00  0.00    +0.000 A 
ATOM      6  C   UNL     1       7.240   5.041  14.200  0.00  0.00    +0.000 A 
ATOM      7  N   UNL     1       7.790   5.760  15.212  0.00  0.00    +0.000 NA
ATOM      8  N   UNL     1       6.951   5.737  16.234  0.00  0.00    +0.000 NA
ATOM      9  N   UNL     1       5.799   5.078  15.873  0.00  0.00    +0.000 N 
ATOM     10  C   UNL     1       5.993   4.568  14.582  0.00  0.00    +0.000 A 
ATOM     11  C   UNL     1       5.220   3.770  13.728  0.00  0.00    +0.000 A 
ATOM     12  C   UNL     1       5.718   3.464  12.454  0.00  0.00    +0.000 A 
ATOM     13  C   UNL     1       4.859   2.622  11.548  0.00  0.00    +0.000 C 
ENDBRANCH   1   9
BRANCH   2  14
ATOM     14  C   UNL     1       3.091   3.664  18.045  0.00  0.00    +0.000 A 
ATOM     15  C   UNL     1       1.698   3.869  17.945  0.00  0.00    +0.000 A 
ATOM     16  C   UNL     1       0.874   3.660  19.060  0.00  0.00    +0.000 A 
ATOM     17  C   UNL     1       1.474   3.225  20.225  0.00  0.00    +0.000 A 
ATOM     18  C   UNL     1       2.835   3.061  20.323  0.00  0.00    +0.000 A 
ATOM     19  C   UNL     1       3.670   3.292  19.261  0.00  0.00    +0.000 A 
ATOM     20  O   UNL     1       3.224   2.608  21.545  0.00  0.00    +0.000 OA
ATOM     21  C   UNL     1       1.939   2.249  22.084  0.00  0.00    +0.000 C 
ATOM     22  O   UNL     1       0.842   2.870  21.378  0.00  0.00    +0.000 OA
ENDBRANCH   2  14
BRANCH   1  23
ATOM     23  C   UNL     1       4.135   6.209  17.275  0.00  0.00    +0.000 C 
ATOM     24  N   UNL     1       3.703   7.172  17.769  0.00  0.00    +0.000 NA
ENDBRANCH   1  23
TORSDOF 3
ENDMDL
MODEL 5
REMARK VINA RESULT:      -7.5      3.431      7.976
REMARK  Name = 
REMARK  5 active torsions:
REMARK  status: ('A' for Active; 'I' for Inactive)
REMARK    1  A    between atoms: C_1  and  C_2
REMARK    2  A    between atoms: N_7  and  C_8
REMARK    3  A    between atoms: C_8  and  C_9
REMARK    4  A    between atoms: C_11  and  C_12
REMARK    5  A    between atoms: C_23  and  C_24
REMARK                            x       y       z     vdW  Elec       q    Type
REMARK                         _______ _______ _______ _____ _____    ______ ____
ROOT
ATOM      1  C   UNL     1       1.677   7.741  20.489  0.00  0.00    +0.000 C 
ATOM      2  C   UNL     1       1.714   6.542  21.105  0.00  0.00    +0.000 C 
ENDROOT
BRANCH   1   9
ATOM      3  C   UNL     1      -2.573  13.032  20.208  0.00  0.00    +0.000 C 
ATOM      4  C   UNL     1      -1.612  11.886  20.356  0.00  0.00    +0.000 A 
ATOM      5  C   UNL     1      -1.011  11.649  21.611  0.00  0.00    +0.000 A 
ATOM      6  C   UNL     1      -0.082  10.607  21.746  0.00  0.00    +0.000 A 
ATOM      7  N   UNL     1       0.638  10.210  22.826  0.00  0.00    +0.000 NA
ATOM      8  N   UNL     1       1.417   9.208  22.454  0.00  0.00    +0.000 NA
ATOM      9  N   UNL     1       1.151   8.877  21.145  0.00  0.00    +0.000 N 
ATOM     10  C   UNL     1       0.229   9.810  20.654  0.00  0.00    +0.000 A 
ATOM     11  C   UNL     1      -0.357  10.028  19.400  0.00  0.00    +0.000 A 
ATOM     12  C   UNL     1      -1.291  11.064  19.260  0.00  0.00    +0.000 A 
ATOM     13  C   UNL     1      -1.922  11.263  17.907  0.00  0.00    +0.000 C 
ENDBRANCH   1   9
BRANCH   2  14
ATOM     14  C   UNL     1       1.860   5.275  20.388  0.00  0.00    +0.000 A 
ATOM     15  C   UNL     1       0.816   4.346  20.193  0.00  0.00    +0.000 A 
ATOM     16  C   UNL     1       1.053   3.160  19.483  0.00  0.00    +0.000 A 
ATOM     17  C   UNL     1       2.319   2.964  18.970  0.00  0.00    +0.000 A 
ATOM     18  C   UNL     1       3.339   3.858  19.194  0.00  0.00    +0.000 A 
ATOM     19  C   UNL     1       3.147   5.009  19.913  0.00  0.00    +0.000 A 
ATOM     20  O   UNL     1       4.501   3.494  18.588  0.00  0.00    +0.000 OA
ATOM     21  C   UNL     1       4.008   2.437  17.747  0.00  0.00    +0.000 C 
ATOM     22  O   UNL     1       2.721   1.935  18.173  0.00  0.00    +0.000 OA
ENDBRANCH   2  14
BRANCH   1  23
ATOM     23  C   UNL     1       2.072   7.830  19.128  0.00  0.00    +0.000 C 
ATOM     24  N   UNL     1       2.370   7.903  18.004  0.00  0.00    +0.000 NA
ENDBRANCH   1  23
TORSDOF 3
ENDMDL
MODEL 6
REMARK VINA RESULT:      -7.4      2.132      3.398
REMARK  Name = 
REMARK  5 active torsions:
REMARK  status: ('A' for Active; 'I' for Inactive)
REMARK    1  A    between atoms: C_1  and  C_2
REMARK    2  A    between atoms: N_7  and  C_8
REMARK    3  A    between atoms: C_8  and  C_9
REMARK    4  A    between atoms: C_11  and  C_12
REMARK    5  A    between atoms: C_23  and  C_24
REMARK                            x       y       z     vdW  Elec       q    Type
REMARK                         _______ _______ _______ _____ _____    ______ ____
ROOT
ATOM      1  C   UNL     1       2.080   7.880  18.676  0.00  0.00    +0.000 C 
ATOM      2  C   UNL     1       1.835   8.914  17.846  0.00  0.00    +0.000 C 
ENDROOT
BRANCH   1   9
ATOM      3  C   UNL     1       7.595   4.417  16.747  0.00  0.00    +0.000 C 
ATOM      4  C   UNL     1       6.325   5.108  17.159  0.00  0.00    +0.000 A 
ATOM      5  C   UNL     1       5.134   4.357  17.256  0.00  0.00    +0.000 A 
ATOM      6  C   UNL     1       3.937   5.003  17.600  0.00  0.00    +0.000 A 
ATOM      7  N   UNL     1       2.679   4.508  17.725  0.00  0.00    +0.000 NA
ATOM      8  N   UNL     1       1.872   5.511  18.023  0.00  0.00    +0.000 NA
ATOM      9  N   UNL     1       2.606   6.664  18.184  0.00  0.00    +0.000 N 
ATOM     10  C   UNL     1       3.934   6.366  17.855  0.00  0.00    +0.000 A 
ATOM     11  C   UNL     1       5.106   7.130  17.765  0.00  0.00    +0.000 A 
ATOM     12  C   UNL     1       6.306   6.489  17.428  0.00  0.00    +0.000 A 
ATOM     13  C   UNL     1       7.555   7.328  17.359  0.00  0.00    +0.000 C 
ENDBRANCH   1   9
BRANCH   2  14
ATOM     14  C   UNL     1       0.946  10.025  18.187  0.00  0.00    +0.000 A 
ATOM     15  C   UNL     1      -0.463   9.970  18.106  0.00  0.00    +0.000 A 
ATOM     16  C   UNL     1      -1.231  11.088  18.464  0.00  0.00    +0.000 A 
ATOM     17  C   UNL     1      -0.561  12.206  18.917  0.00  0.00    +0.000 A 
ATOM     18  C   UNL     1       0.812  12.262  18.959  0.00  0.00    +0.000 A 
ATOM     19  C   UNL     1       1.591  11.199  18.583  0.00  0.00    +0.000 A 
ATOM     20  O   UNL     1       1.276  13.441  19.453  0.00  0.00    +0.000 OA
ATOM     21  C   UNL     1       0.046  13.984  19.965  0.00  0.00    +0.000 C 
ATOM     22  O   UNL     1      -1.124  13.347  19.403  0.00  0.00    +0.000 OA
ENDBRANCH   2  14
BRANCH   1  23
ATOM     23  C   UNL     1       1.699   7.986  20.040  0.00  0.00    +0.000 C 
ATOM     24  N   UNL     1       1.375   8.097  21.154  0.00  0.00    +0.000 NA
ENDBRANCH   1  23
TORSDOF 3
ENDMDL
MODEL 7
REMARK VINA RESULT:      -7.4      3.779      7.796
REMARK  Name = 
REMARK  5 active torsions:
REMARK  status: ('A' for Active; 'I' for Inactive)
REMARK    1  A    between atoms: C_1  and  C_2
REMARK    2  A    between atoms: N_7  and  C_8
REMARK    3  A    between atoms: C_8  and  C_9
REMARK    4  A    between atoms: C_11  and  C_12
REMARK    5  A    between atoms: C_23  and  C_24
REMARK                            x       y       z     vdW  Elec       q    Type
REMARK                         _______ _______ _______ _____ _____    ______ ____
ROOT
ATOM      1  C   UNL     1       1.879   7.354  19.911  0.00  0.00    +0.000 C 
ATOM      2  C   UNL     1       2.338   7.486  18.649  0.00  0.00    +0.000 C 
ENDROOT
BRANCH   1   9
ATOM      3  C   UNL     1      -2.178  12.797  20.091  0.00  0.00    +0.000 C 
ATOM      4  C   UNL     1      -1.254  11.613  20.136  0.00  0.00    +0.000 A 
ATOM      5  C   UNL     1      -0.594  11.301  21.344  0.00  0.00    +0.000 A 
ATOM      6  C   UNL     1       0.301  10.222  21.383  0.00  0.00    +0.000 A 
ATOM      7  N   UNL     1       1.065   9.753  22.403  0.00  0.00    +0.000 NA
ATOM      8  N   UNL     1       1.783   8.742  21.946  0.00  0.00    +0.000 NA
ATOM      9  N   UNL     1       1.433   8.477  20.642  0.00  0.00    +0.000 N 
ATOM     10  C   UNL     1       0.521   9.463  20.243  0.00  0.00    +0.000 A 
ATOM     11  C   UNL     1      -0.124   9.756  19.034  0.00  0.00    +0.000 A 
ATOM     12  C   UNL     1      -1.026  10.828  18.991  0.00  0.00    +0.000 A 
ATOM     13  C   UNL     1      -1.722  11.108  17.685  0.00  0.00    +0.000 C 
ENDBRANCH   1   9
BRANCH   2  14
ATOM     14  C   UNL     1       3.168   6.480  17.987  0.00  0.00    +0.000 A 
ATOM     15  C   UNL     1       2.788   5.132  17.802  0.00  0.00    +0.000 A 
ATOM     16  C   UNL     1       3.651   4.242  17.147  0.00  0.00    +0.000 A 
ATOM     17  C   UNL     1       4.848   4.742  16.675  0.00  0.00    +0.000 A 
ATOM     18  C   UNL     1       5.224   6.047  16.890  0.00  0.00    +0.000 A 
ATOM     19  C   UNL     1       4.418   6.932  17.557  0.00  0.00    +0.000 A 
ATOM     20  O   UNL     1       6.427   6.347  16.330  0.00  0.00    +0.000 OA
ATOM     21  C   UNL     1       6.609   5.173  15.518  0.00  0.00    +0.000 C 
ATOM     22  O   UNL     1       5.770   4.071  15.931  0.00  0.00    +0.000 OA
ENDBRANCH   2  14
BRANCH   1  23
ATOM     23  C   UNL     1       1.952   6.083  20.540  0.00  0.00    +0.000 C 
ATOM     24  N   UNL     1       1.986   5.043  21.065  0.00  0.00    +0.000 NA
ENDBRANCH   1  23
TORSDOF 3
ENDMDL
MODEL 8
REMARK VINA RESULT:      -7.3      1.806      2.809
REMARK  Name = 
REMARK  5 active torsions:
REMARK  status: ('A' for Active; 'I' for Inactive)
REMARK    1  A    between atoms: C_1  and  C_2
REMARK    2  A    between atoms: N_7  and  C_8
REMARK    3  A    between atoms: C_8  and  C_9
REMARK    4  A    between atoms: C_11  and  C_12
REMARK    5  A    between atoms: C_23  and  C_24
REMARK                            x       y       z     vdW  Elec       q    Type
REMARK                         _______ _______ _______ _____ _____    ______ ____
ROOT
ATOM      1  C   UNL     1       2.097   7.762  18.676  0.00  0.00    +0.000 C 
ATOM      2  C   UNL     1       1.800   8.797  17.863  0.00  0.00    +0.000 C 
ENDROOT
BRANCH   1   9
ATOM      3  C   UNL     1       7.649   4.409  16.662  0.00  0.00    +0.000 C 
ATOM      4  C   UNL     1       6.372   5.075  17.092  0.00  0.00    +0.000 A 
ATOM      5  C   UNL     1       5.190   4.308  17.173  0.00  0.00    +0.000 A 
ATOM      6  C   UNL     1       3.986   4.932  17.533  0.00  0.00    +0.000 A 
ATOM      7  N   UNL     1       2.734   4.420  17.649  0.00  0.00    +0.000 NA
ATOM      8  N   UNL     1       1.916   5.407  17.970  0.00  0.00    +0.000 NA
ATOM      9  N   UNL     1       2.636   6.564  18.156  0.00  0.00    +0.000 N 
ATOM     10  C   UNL     1       3.968   6.290  17.818  0.00  0.00    +0.000 A 
ATOM     11  C   UNL     1       5.130   7.068  17.744  0.00  0.00    +0.000 A 
ATOM     12  C   UNL     1       6.338   6.449  17.391  0.00  0.00    +0.000 A 
ATOM     13  C   UNL     1       7.576   7.305  17.339  0.00  0.00    +0.000 C 
ENDBRANCH   1   9
BRANCH   2  14
ATOM     14  C   UNL     1       0.895   9.882  18.243  0.00  0.00    +0.000 A 
ATOM     15  C   UNL     1       1.318  11.122  18.770  0.00  0.00    +0.000 A 
ATOM     16  C   UNL     1       0.373  12.105  19.098  0.00  0.00    +0.000 A 
ATOM     17  C   UNL     1      -0.956  11.820  18.859  0.00  0.00    +0.000 A 
ATOM     18  C   UNL     1      -1.361  10.597  18.379  0.00  0.00    +0.000 A 
ATOM     19  C   UNL     1      -0.465   9.604  18.082  0.00  0.00    +0.000 A 
ATOM     20  O   UNL     1      -2.706  10.523  18.194  0.00  0.00    +0.000 OA
ATOM     21  C   UNL     1      -3.043  11.913  18.345  0.00  0.00    +0.000 C 
ATOM     22  O   UNL     1      -2.008  12.670  19.013  0.00  0.00    +0.000 OA
ENDBRANCH   2  14
BRANCH   1  23
ATOM     23  C   UNL     1       1.758   7.847  20.052  0.00  0.00    +0.000 C 
ATOM     24  N   UNL     1       1.466   7.940  21.176  0.00  0.00    +0.000 NA
ENDBRANCH   1  23
TORSDOF 3
ENDMDL
MODEL 9
REMARK VINA RESULT:      -7.3      2.865      3.714
REMARK  Name = 
REMARK  5 active torsions:
REMARK  status: ('A' for Active; 'I' for Inactive)
REMARK    1  A    between atoms: C_1  and  C_2
REMARK    2  A    between atoms: N_7  and  C_8
REMARK    3  A    between atoms: C_8  and  C_9
REMARK    4  A    between atoms: C_11  and  C_12
REMARK    5  A    between atoms: C_23  and  C_24
REMARK                            x       y       z     vdW  Elec       q    Type
REMARK                         _______ _______ _______ _____ _____    ______ ____
ROOT
ATOM      1  C   UNL     1       0.461   9.941  19.700  0.00  0.00    +0.000 C 
ATOM      2  C   UNL     1       0.712  10.349  20.961  0.00  0.00    +0.000 C 
ENDROOT
BRANCH   1   9
ATOM      3  C   UNL     1       3.928   4.167  18.825  0.00  0.00    +0.000 C 
ATOM      4  C   UNL     1       3.203   5.478  18.945  0.00  0.00    +0.000 A 
ATOM      5  C   UNL     1       3.369   6.450  17.935  0.00  0.00    +0.000 A 
ATOM      6  C   UNL     1       2.728   7.691  18.061  0.00  0.00    +0.000 A 
ATOM      7  N   UNL     1       2.757   8.779  17.249  0.00  0.00    +0.000 NA
ATOM      8  N   UNL     1       2.030   9.730  17.809  0.00  0.00    +0.000 NA
ATOM      9  N   UNL     1       1.440   9.246  18.954  0.00  0.00    +0.000 N 
ATOM     10  C   UNL     1       1.929   7.950  19.165  0.00  0.00    +0.000 A 
ATOM     11  C   UNL     1       1.752   6.999  20.178  0.00  0.00    +0.000 A 
ATOM     12  C   UNL     1       2.383   5.753  20.055  0.00  0.00    +0.000 A 
ATOM     13  C   UNL     1       2.159   4.741  21.147  0.00  0.00    +0.000 C 
ENDBRANCH   1   9
BRANCH   2  14
ATOM     14  C   UNL     1      -0.063  11.390  21.637  0.00  0.00    +0.000 A 
ATOM     15  C   UNL     1       0.218  12.771  21.555  0.00  0.00    +0.000 A 
ATOM     16  C   UNL     1      -0.590  13.694  22.235  0.00  0.00    +0.000 A 
ATOM     17  C   UNL     1      -1.664  13.200  22.947  0.00  0.00    +0.000 A 
ATOM     18  C   UNL     1      -1.909  11.852  23.050  0.00  0.00    +0.000 A 
ATOM     19  C   UNL     1      -1.118  10.923  22.426  0.00  0.00    +0.000 A 
ATOM     20  O   UNL     1      -3.024  11.573  23.778  0.00  0.00    +0.000 OA
ATOM     21  C   UNL     1      -3.584  12.895  23.869  0.00  0.00    +0.000 C 
ATOM     22  O   UNL     1      -2.618  13.933  23.587  0.00  0.00    +0.000 OA
ENDBRANCH   2  14
BRANCH   1  23
ATOM     23  C   UNL     1      -0.763  10.315  19.085  0.00  0.00    +0.000 C 
ATOM     24  N   UNL     1      -1.757  10.616  18.557  0.00  0.00    +0.000 NA
ENDBRANCH   1  23
TORSDOF 3
ENDMDL
