MODEL 1
REMARK VINA RESULT:      -8.2      0.000      0.000
REMARK  Name = 
REMARK  7 active torsions:
REMARK  status: ('A' for Active; 'I' for Inactive)
REMARK    1  A    between atoms: C_1  and  O_2
REMARK    2  A    between atoms: O_2  and  C_3
REMARK    3  A    between atoms: C_6  and  C_7
REMARK    4  A    between atoms: C_9  and  S_10
REMARK    5  A    between atoms: S_10  and  N_13
REMARK    6  A    between atoms: C_16  and  O_17
REMARK    7  A    between atoms: O_17  and  C_18
REMARK                            x       y       z     vdW  Elec       q    Type
REMARK                         _______ _______ _______ _____ _____    ______ ____
ROOT
ATOM      1  S   UNL     1       4.848   3.786  18.507  0.00  0.00    +0.000 S 
ATOM      2  O   UNL     1       4.746   2.657  19.412  0.00  0.00    +0.000 OA
ATOM      3  O   UNL     1       4.531   3.627  17.103  0.00  0.00    +0.000 OA
ENDROOT
BRANCH   1  10
ATOM      4  C   UNL     1       2.857   4.841  20.262  0.00  0.00    +0.000 A 
ATOM      5  C   UNL     1       2.019   5.924  20.600  0.00  0.00    +0.000 A 
ATOM      6  C   UNL     1       1.932   7.075  19.806  0.00  0.00    +0.000 A 
ATOM      7  C   UNL     1       2.696   7.182  18.650  0.00  0.00    +0.000 A 
ATOM      8  C   UNL     1       2.558   8.365  17.738  0.00  0.00    +0.000 C 
ATOM      9  C   UNL     1       3.572   6.137  18.336  0.00  0.00    +0.000 A 
ATOM     10  C   UNL     1       3.675   4.975  19.140  0.00  0.00    +0.000 A 
BRANCH   4  12
ATOM     11  C   UNL     1       1.694   2.939  21.042  0.00  0.00    +0.000 C 
ATOM     12  O   UNL     1       2.896   3.714  21.026  0.00  0.00    +0.000 OA
ENDBRANCH   4  12
ENDBRANCH   1  10
BRANCH   1  13
ATOM     13  N   UNL     1       6.459   4.347  18.605  0.00  0.00    +0.000 NA
ATOM     14  C   UNL     1       6.648   5.730  19.113  0.00  0.00    +0.000 C 
ATOM     15  C   UNL     1       6.618   6.631  17.879  0.00  0.00    +0.000 C 
ATOM     16  C   UNL     1       7.097   5.770  16.711  0.00  0.00    +0.000 C 
ATOM     17  C   UNL     1       7.191   4.347  17.290  0.00  0.00    +0.000 C 
BRANCH  16  18
ATOM     18  O   UNL     1       6.136   5.723  15.647  0.00  0.00    +0.000 OA
BRANCH  18  19
ATOM     19  C   UNL     1       6.536   5.104  14.480  0.00  0.00    +0.000 A 
ATOM     20  C   UNL     1       5.674   4.148  13.989  0.00  0.00    +0.000 A 
ATOM     21  C   UNL     1       6.013   3.597  12.778  0.00  0.00    +0.000 A 
ATOM     22  N   UNL     1       7.107   3.961  12.086  0.00  0.00    +0.000 NA
ATOM     23  C   UNL     1       7.869   4.909  12.659  0.00  0.00    +0.000 A 
ATOM     24  N   UNL     1       7.649   5.508  13.846  0.00  0.00    +0.000 NA
ENDBRANCH  18  19
ENDBRANCH  16  18
ENDBRANCH   1  13
TORSDOF 5
ENDMDL
MODEL 2
REMARK VINA RESULT:      -7.9      1.360      1.888
REMARK  Name = 
REMARK  7 active torsions:
REMARK  status: ('A' for Active; 'I' for Inactive)
REMARK    1  A    between atoms: C_1  and  O_2
REMARK    2  A    between atoms: O_2  and  C_3
REMARK    3  A    between atoms: C_6  and  C_7
REMARK    4  A    between atoms: C_9  and  S_10
REMARK    5  A    between atoms: S_10  and  N_13
REMARK    6  A    between atoms: C_16  and  O_17
REMARK    7  A    between atoms: O_17  and  C_18
REMARK                            x       y       z     vdW  Elec       q    Type
REMARK                         _______ _______ _______ _____ _____    ______ ____
ROOT
ATOM      1  S   UNL     1       4.895   4.540  18.530  0.00  0.00    +0.000 S 
ATOM      2  O   UNL     1       5.846   3.950  19.454  0.00  0.00    +0.000 OA
ATOM      3  O   UNL     1       4.644   3.920  17.246  0.00  0.00    +0.000 OA
ENDROOT
BRANCH   1  10
ATOM      4  C   UNL     1       2.522   3.389  19.627  0.00  0.00    +0.000 A 
ATOM      5  C   UNL     1       1.339   3.580  20.372  0.00  0.00    +0.000 A 
ATOM      6  C   UNL     1       0.933   4.846  20.814  0.00  0.00    +0.000 A 
ATOM      7  C   UNL     1       1.710   5.964  20.534  0.00  0.00    +0.000 A 
ATOM      8  C   UNL     1       1.256   7.340  20.923  0.00  0.00    +0.000 C 
ATOM      9  C   UNL     1       2.914   5.777  19.844  0.00  0.00    +0.000 A 
ATOM     10  C   UNL     1       3.338   4.500  19.404  0.00  0.00    +0.000 A 
BRANCH   4  12
ATOM     11  C   UNL     1       2.256   1.750  17.948  0.00  0.00    +0.000 C 
ATOM     12  O   UNL     1       2.877   2.156  19.171  0.00  0.00    +0.000 OA
ENDBRANCH   4  12
ENDBRANCH   1  10
BRANCH   1  13
ATOM     13  N   UNL     1       5.430   6.135  18.230  0.00  0.00    +0.000 NA
ATOM     14  C   UNL     1       4.735   6.872  17.145  0.00  0.00    +0.000 C 
ATOM     15  C   UNL     1       5.527   6.578  15.872  0.00  0.00    +0.000 C 
ATOM     16  C   UNL     1       6.960   6.291  16.319  0.00  0.00    +0.000 C 
ATOM     17  C   UNL     1       6.884   6.235  17.855  0.00  0.00    +0.000 C 
BRANCH  16  18
ATOM     18  O   UNL     1       7.413   5.003  15.878  0.00  0.00    +0.000 OA
BRANCH  18  19
ATOM     19  C   UNL     1       7.305   4.739  14.527  0.00  0.00    +0.000 A 
ATOM     20  C   UNL     1       6.369   3.789  14.182  0.00  0.00    +0.000 A 
ATOM     21  C   UNL     1       6.183   3.591  12.835  0.00  0.00    +0.000 A 
ATOM     22  N   UNL     1       6.851   4.278  11.892  0.00  0.00    +0.000 NA
ATOM     23  C   UNL     1       7.732   5.185  12.349  0.00  0.00    +0.000 A 
ATOM     24  N   UNL     1       8.013   5.456  13.639  0.00  0.00    +0.000 NA
ENDBRANCH  18  19
ENDBRANCH  16  18
ENDBRANCH   1  13
TORSDOF 5
ENDMDL
MODEL 3
REMARK VINA RESULT:      -7.6      2.410      4.221
REMARK  Name = 
REMARK  7 active torsions:
REMARK  status: ('A' for Active; 'I' for Inactive)
REMARK    1  A    between atoms: C_1  and  O_2
REMARK    2  A    between atoms: O_2  and  C_3
REMARK    3  A    between atoms: C_6  and  C_7
REMARK    4  A    between atoms: C_9  and  S_10
REMARK    5  A    between atoms: S_10  and  N_13
REMARK    6  A    between atoms: C_16  and  O_17
REMARK    7  A    between atoms: O_17  and  C_18
REMARK                            x       y       z     vdW  Elec       q    Type
REMARK                         _______ _______ _______ _____ _____    ______ ____
ROOT
ATOM      1  S   UNL     1       2.423   5.513  19.948  0.00  0.00    +0.000 S 
ATOM      2  O   UNL     1       3.861   5.638  19.810  0.00  0.00    +0.000 OA
ATOM      3  O   UNL     1       1.854   4.895  21.127  0.00  0.00    +0.000 OA
ENDROOT
BRANCH   1  10
ATOM      4  C   UNL     1       1.845   8.098  18.878  0.00  0.00    +0.000 A 
ATOM      5  C   UNL     1       1.289   9.378  19.087  0.00  0.00    +0.000 A 
ATOM      6  C   UNL     1       0.800   9.783  20.336  0.00  0.00    +0.000 A 
ATOM      7  C   UNL     1       0.841   8.909  21.416  0.00  0.00    +0.000 A 
ATOM      8  C   UNL     1       0.402   9.347  22.782  0.00  0.00    +0.000 C 
ATOM      9  C   UNL     1       1.339   7.618  21.205  0.00  0.00    +0.000 A 
ATOM     10  C   UNL     1       1.824   7.197  19.943  0.00  0.00    +0.000 A 
BRANCH   4  12
ATOM     11  C   UNL     1       3.720   8.094  17.442  0.00  0.00    +0.000 C 
ATOM     12  O   UNL     1       2.353   7.739  17.666  0.00  0.00    +0.000 OA
ENDBRANCH   4  12
ENDBRANCH   1  10
BRANCH   1  13
ATOM     13  N   UNL     1       1.876   4.626  18.594  0.00  0.00    +0.000 NA
ATOM     14  C   UNL     1       1.525   3.203  18.833  0.00  0.00    +0.000 C 
ATOM     15  C   UNL     1       2.809   2.413  18.584  0.00  0.00    +0.000 C 
ATOM     16  C   UNL     1       3.627   3.234  17.588  0.00  0.00    +0.000 C 
ATOM     17  C   UNL     1       2.864   4.564  17.460  0.00  0.00    +0.000 C 
BRANCH  16  18
ATOM     18  O   UNL     1       4.932   3.550  18.094  0.00  0.00    +0.000 OA
BRANCH  18  19
ATOM     19  C   UNL     1       5.780   4.222  17.237  0.00  0.00    +0.000 A 
ATOM     20  C   UNL     1       5.859   3.713  15.959  0.00  0.00    +0.000 A 
ATOM     21  C   UNL     1       6.622   4.431  15.071  0.00  0.00    +0.000 A 
ATOM     22  N   UNL     1       7.253   5.572  15.401  0.00  0.00    +0.000 NA
ATOM     23  C   UNL     1       7.096   5.977  16.673  0.00  0.00    +0.000 A 
ATOM     24  N   UNL     1       6.390   5.350  17.635  0.00  0.00    +0.000 NA
ENDBRANCH  18  19
ENDBRANCH  16  18
ENDBRANCH   1  13
TORSDOF 5
ENDMDL
MODEL 4
REMARK VINA RESULT:      -7.5      1.474      2.292
REMARK  Name = 
REMARK  7 active torsions:
REMARK  status: ('A' for Active; 'I' for Inactive)
REMARK    1  A    between atoms: C_1  and  O_2
REMARK    2  A    between atoms: O_2  and  C_3
REMARK    3  A    between atoms: C_6  and  C_7
REMARK    4  A    between atoms: C_9  and  S_10
REMARK    5  A    between atoms: S_10  and  N_13
REMARK    6  A    between atoms: C_16  and  O_17
REMARK    7  A    between atoms: O_17  and  C_18
REMARK                            x       y       z     vdW  Elec       q    Type
REMARK                         _______ _______ _______ _____ _____    ______ ____
ROOT
ATOM      1  S   UNL     1       5.239   4.583  18.375  0.00  0.00    +0.000 S 
ATOM      2  O   UNL     1       6.408   4.240  19.162  0.00  0.00    +0.000 OA
ATOM      3  O   UNL     1       4.938   3.856  17.160  0.00  0.00    +0.000 OA
ENDROOT
BRANCH   1  10
ATOM      4  C   UNL     1       3.423   3.066  19.974  0.00  0.00    +0.000 A 
ATOM      5  C   UNL     1       2.320   3.070  20.855  0.00  0.00    +0.000 A 
ATOM      6  C   UNL     1       1.618   4.242  21.165  0.00  0.00    +0.000 A 
ATOM      7  C   UNL     1       2.010   5.455  20.612  0.00  0.00    +0.000 A 
ATOM      8  C   UNL     1       1.225   6.709  20.861  0.00  0.00    +0.000 C 
ATOM      9  C   UNL     1       3.137   5.471  19.781  0.00  0.00    +0.000 A 
ATOM     10  C   UNL     1       3.859   4.293  19.472  0.00  0.00    +0.000 A 
BRANCH   4  12
ATOM     11  C   UNL     1       3.537   1.204  18.525  0.00  0.00    +0.000 C 
ATOM     12  O   UNL     1       4.065   1.909  19.653  0.00  0.00    +0.000 OA
ENDBRANCH   4  12
ENDBRANCH   1  10
BRANCH   1  13
ATOM     13  N   UNL     1       5.398   6.232  17.955  0.00  0.00    +0.000 NA
ATOM     14  C   UNL     1       4.502   6.731  16.881  0.00  0.00    +0.000 C 
ATOM     15  C   UNL     1       5.270   6.529  15.575  0.00  0.00    +0.000 C 
ATOM     16  C   UNL     1       6.753   6.584  15.941  0.00  0.00    +0.000 C 
ATOM     17  C   UNL     1       6.773   6.615  17.480  0.00  0.00    +0.000 C 
BRANCH  16  18
ATOM     18  O   UNL     1       7.451   5.396  15.540  0.00  0.00    +0.000 OA
BRANCH  18  19
ATOM     19  C   UNL     1       7.115   4.869  14.309  0.00  0.00    +0.000 A 
ATOM     20  C   UNL     1       7.815   5.375  13.236  0.00  0.00    +0.000 A 
ATOM     21  C   UNL     1       7.560   4.788  12.020  0.00  0.00    +0.000 A 
ATOM     22  N   UNL     1       6.695   3.770  11.864  0.00  0.00    +0.000 NA
ATOM     23  C   UNL     1       6.078   3.354  12.983  0.00  0.00    +0.000 A 
ATOM     24  N   UNL     1       6.233   3.860  14.223  0.00  0.00    +0.000 NA
ENDBRANCH  18  19
ENDBRANCH  16  18
ENDBRANCH   1  13
TORSDOF 5
ENDMDL
MODEL 5
REMARK VINA RESULT:      -7.5      1.119      2.463
REMARK  Name = 
REMARK  7 active torsions:
REMARK  status: ('A' for Active; 'I' for Inactive)
REMARK    1  A    between atoms: C_1  and  O_2
REMARK    2  A    between atoms: O_2  and  C_3
REMARK    3  A    between atoms: C_6  and  C_7
REMARK    4  A    between atoms: C_9  and  S_10
REMARK    5  A    between atoms: S_10  and  N_13
REMARK    6  A    between atoms: C_16  and  O_17
REMARK    7  A    between atoms: O_17  and  C_18
REMARK                            x       y       z     vdW  Elec       q    Type
REMARK                         _______ _______ _______ _____ _____    ______ ____
ROOT
ATOM      1  S   UNL     1       4.348   4.129  17.663  0.00  0.00    +0.000 S 
ATOM      2  O   UNL     1       4.091   2.711  17.494  0.00  0.00    +0.000 OA
ATOM      3  O   UNL     1       4.114   5.048  16.569  0.00  0.00    +0.000 OA
ENDROOT
BRANCH   1  10
ATOM      4  C   UNL     1       2.852   5.934  19.295  0.00  0.00    +0.000 A 
ATOM      5  C   UNL     1       1.937   6.103  20.355  0.00  0.00    +0.000 A 
ATOM      6  C   UNL     1       1.481   5.025  21.125  0.00  0.00    +0.000 A 
ATOM      7  C   UNL     1       1.918   3.736  20.846  0.00  0.00    +0.000 A 
ATOM      8  C   UNL     1       1.511   2.576  21.707  0.00  0.00    +0.000 C 
ATOM      9  C   UNL     1       2.782   3.550  19.760  0.00  0.00    +0.000 A 
ATOM     10  C   UNL     1       3.239   4.633  18.969  0.00  0.00    +0.000 A 
BRANCH   4  12
ATOM     11  C   UNL     1       2.310   7.847  18.021  0.00  0.00    +0.000 C 
ATOM     12  O   UNL     1       3.315   7.000  18.586  0.00  0.00    +0.000 OA
ENDBRANCH   4  12
ENDBRANCH   1  10
BRANCH   1  13
ATOM     13  N   UNL     1       5.990   4.279  18.111  0.00  0.00    +0.000 NA
ATOM     14  C   UNL     1       6.360   5.499  18.871  0.00  0.00    +0.000 C 
ATOM     15  C   UNL     1       6.757   6.536  17.822  0.00  0.00    +0.000 C 
ATOM     16  C   UNL     1       7.264   5.747  16.615  0.00  0.00    +0.000 C 
ATOM     17  C   UNL     1       6.947   4.279  16.950  0.00  0.00    +0.000 C 
BRANCH  16  18
ATOM     18  O   UNL     1       6.539   6.067  15.419  0.00  0.00    +0.000 OA
BRANCH  18  19
ATOM     19  C   UNL     1       6.799   5.286  14.311  0.00  0.00    +0.000 A 
ATOM     20  C   UNL     1       5.880   4.290  14.059  0.00  0.00    +0.000 A 
ATOM     21  C   UNL     1       6.075   3.571  12.905  0.00  0.00    +0.000 A 
ATOM     22  N   UNL     1       7.085   3.814  12.050  0.00  0.00    +0.000 NA
ATOM     23  C   UNL     1       7.912   4.815  12.397  0.00  0.00    +0.000 A 
ATOM     24  N   UNL     1       7.833   5.576  13.506  0.00  0.00    +0.000 NA
ENDBRANCH  18  19
ENDBRANCH  16  18
ENDBRANCH   1  13
TORSDOF 5
ENDMDL
MODEL 6
REMARK VINA RESULT:      -7.4      2.802      6.367
REMARK  Name = 
REMARK  7 active torsions:
REMARK  status: ('A' for Active; 'I' for Inactive)
REMARK    1  A    between atoms: C_1  and  O_2
REMARK    2  A    between atoms: O_2  and  C_3
REMARK    3  A    between atoms: C_6  and  C_7
REMARK    4  A    between atoms: C_9  and  S_10
REMARK    5  A    between atoms: S_10  and  N_13
REMARK    6  A    between atoms: C_16  and  O_17
REMARK    7  A    between atoms: O_17  and  C_18
REMARK                            x       y       z     vdW  Elec       q    Type
REMARK                         _______ _______ _______ _____ _____    ______ ____
ROOT
ATOM      1  S   UNL     1       3.645   3.516  18.054  0.00  0.00    +0.000 S 
ATOM      2  O   UNL     1       2.575   4.275  17.437  0.00  0.00    +0.000 OA
ATOM      3  O   UNL     1       3.605   2.068  18.058  0.00  0.00    +0.000 OA
ENDROOT
BRANCH   1  10
ATOM      4  C   UNL     1       6.316   4.436  17.629  0.00  0.00    +0.000 A 
ATOM      5  C   UNL     1       7.354   4.699  16.711  0.00  0.00    +0.000 A 
ATOM      6  C   UNL     1       7.175   4.573  15.327  0.00  0.00    +0.000 A 
ATOM      7  C   UNL     1       5.947   4.164  14.819  0.00  0.00    +0.000 A 
ATOM      8  C   UNL     1       5.703   4.102  13.340  0.00  0.00    +0.000 C 
ATOM      9  C   UNL     1       4.928   3.846  15.724  0.00  0.00    +0.000 A 
ATOM     10  C   UNL     1       5.105   3.960  17.125  0.00  0.00    +0.000 A 
BRANCH   4  12
ATOM     11  C   UNL     1       7.483   5.575  19.337  0.00  0.00    +0.000 C 
ATOM     12  O   UNL     1       6.499   4.605  18.968  0.00  0.00    +0.000 OA
ENDBRANCH   4  12
ENDBRANCH   1  10
BRANCH   1  13
ATOM     13  N   UNL     1       3.732   4.027  19.683  0.00  0.00    +0.000 NA
ATOM     14  C   UNL     1       2.574   3.685  20.546  0.00  0.00    +0.000 C 
ATOM     15  C   UNL     1       1.611   4.866  20.434  0.00  0.00    +0.000 C 
ATOM     16  C   UNL     1       2.471   6.087  20.110  0.00  0.00    +0.000 C 
ATOM     17  C   UNL     1       3.877   5.515  19.852  0.00  0.00    +0.000 C 
BRANCH  16  18
ATOM     18  O   UNL     1       2.056   6.733  18.899  0.00  0.00    +0.000 OA
BRANCH  18  19
ATOM     19  C   UNL     1       1.841   8.095  18.967  0.00  0.00    +0.000 A 
ATOM     20  C   UNL     1       2.194   8.808  17.842  0.00  0.00    +0.000 A 
ATOM     21  C   UNL     1       1.892  10.149  17.861  0.00  0.00    +0.000 A 
ATOM     22  N   UNL     1       1.278  10.749  18.897  0.00  0.00    +0.000 NA
ATOM     23  C   UNL     1       0.974   9.950  19.934  0.00  0.00    +0.000 A 
ATOM     24  N   UNL     1       1.233   8.631  20.038  0.00  0.00    +0.000 NA
ENDBRANCH  18  19
ENDBRANCH  16  18
ENDBRANCH   1  13
TORSDOF 5
ENDMDL
MODEL 7
REMARK VINA RESULT:      -7.4      2.872      3.656
REMARK  Name = 
REMARK  7 active torsions:
REMARK  status: ('A' for Active; 'I' for Inactive)
REMARK    1  A    between atoms: C_1  and  O_2
REMARK    2  A    between atoms: O_2  and  C_3
REMARK    3  A    between atoms: C_6  and  C_7
REMARK    4  A    between atoms: C_9  and  S_10
REMARK    5  A    between atoms: S_10  and  N_13
REMARK    6  A    between atoms: C_16  and  O_17
REMARK    7  A    between atoms: O_17  and  C_18
REMARK                            x       y       z     vdW  Elec       q    Type
REMARK                         _______ _______ _______ _____ _____    ______ ____
ROOT
ATOM      1  S   UNL     1       1.875   3.120  17.911  0.00  0.00    +0.000 S 
ATOM      2  O   UNL     1       0.746   2.354  18.403  0.00  0.00    +0.000 OA
ATOM      3  O   UNL     1       1.906   3.573  16.536  0.00  0.00    +0.000 OA
ENDROOT
BRANCH   1  10
ATOM      4  C   UNL     1       1.468   4.727  20.238  0.00  0.00    +0.000 A 
ATOM      5  C   UNL     1       1.588   5.993  20.848  0.00  0.00    +0.000 A 
ATOM      6  C   UNL     1       2.026   7.122  20.142  0.00  0.00    +0.000 A 
ATOM      7  C   UNL     1       2.373   7.013  18.801  0.00  0.00    +0.000 A 
ATOM      8  C   UNL     1       2.764   8.220  18.001  0.00  0.00    +0.000 C 
ATOM      9  C   UNL     1       2.312   5.749  18.201  0.00  0.00    +0.000 A 
ATOM     10  C   UNL     1       1.882   4.601  18.911  0.00  0.00    +0.000 A 
BRANCH   4  12
ATOM     11  C   UNL     1       1.884   3.132  21.930  0.00  0.00    +0.000 C 
ATOM     12  O   UNL     1       1.001   3.651  20.931  0.00  0.00    +0.000 OA
ENDBRANCH   4  12
ENDBRANCH   1  10
BRANCH   1  13
ATOM     13  N   UNL     1       3.266   2.160  18.163  0.00  0.00    +0.000 NA
ATOM     14  C   UNL     1       3.772   2.082  19.556  0.00  0.00    +0.000 C 
ATOM     15  C   UNL     1       4.777   3.224  19.696  0.00  0.00    +0.000 C 
ATOM     16  C   UNL     1       5.330   3.478  18.294  0.00  0.00    +0.000 C 
ATOM     17  C   UNL     1       4.467   2.600  17.371  0.00  0.00    +0.000 C 
BRANCH  16  18
ATOM     18  O   UNL     1       5.137   4.836  17.877  0.00  0.00    +0.000 OA
BRANCH  18  19
ATOM     19  C   UNL     1       6.222   5.681  17.999  0.00  0.00    +0.000 A 
ATOM     20  C   UNL     1       6.178   6.819  17.224  0.00  0.00    +0.000 A 
ATOM     21  C   UNL     1       7.204   7.714  17.412  0.00  0.00    +0.000 A 
ATOM     22  N   UNL     1       8.194   7.520  18.301  0.00  0.00    +0.000 NA
ATOM     23  C   UNL     1       8.127   6.378  19.006  0.00  0.00    +0.000 A 
ATOM     24  N   UNL     1       7.184   5.421  18.899  0.00  0.00    +0.000 NA
ENDBRANCH  18  19
ENDBRANCH  16  18
ENDBRANCH   1  13
TORSDOF 5
ENDMDL
MODEL 8
REMARK VINA RESULT:      -7.3      1.004      1.327
REMARK  Name = 
REMARK  7 active torsions:
REMARK  status: ('A' for Active; 'I' for Inactive)
REMARK    1  A    between atoms: C_1  and  O_2
REMARK    2  A    between atoms: O_2  and  C_3
REMARK    3  A    between atoms: C_6  and  C_7
REMARK    4  A    between atoms: C_9  and  S_10
REMARK    5  A    between atoms: S_10  and  N_13
REMARK    6  A    between atoms: C_16  and  O_17
REMARK    7  A    between atoms: O_17  and  C_18
REMARK                            x       y       z     vdW  Elec       q    Type
REMARK                         _______ _______ _______ _____ _____    ______ ____
ROOT
ATOM      1  S   UNL     1       4.095   5.082  17.624  0.00  0.00    +0.000 S 
ATOM      2  O   UNL     1       3.414   3.986  16.964  0.00  0.00    +0.000 OA
ATOM      3  O   UNL     1       4.349   6.318  16.914  0.00  0.00    +0.000 OA
ENDROOT
BRANCH   1  10
ATOM      4  C   UNL     1       2.508   4.659  19.962  0.00  0.00    +0.000 A 
ATOM      5  C   UNL     1       1.704   5.224  20.974  0.00  0.00    +0.000 A 
ATOM      6  C   UNL     1       1.356   6.581  20.981  0.00  0.00    +0.000 A 
ATOM      7  C   UNL     1       1.817   7.422  19.975  0.00  0.00    +0.000 A 
ATOM      8  C   UNL     1       1.390   8.859  19.911  0.00  0.00    +0.000 C 
ATOM      9  C   UNL     1       2.661   6.884  18.997  0.00  0.00    +0.000 A 
ATOM     10  C   UNL     1       3.028   5.516  18.990  0.00  0.00    +0.000 A 
BRANCH   4  12
ATOM     11  C   UNL     1       1.684   2.455  19.763  0.00  0.00    +0.000 C 
ATOM     12  O   UNL     1       2.801   3.330  19.952  0.00  0.00    +0.000 OA
ENDBRANCH   4  12
ENDBRANCH   1  10
BRANCH   1  13
ATOM     13  N   UNL     1       5.605   4.477  18.147  0.00  0.00    +0.000 NA
ATOM     14  C   UNL     1       6.412   5.372  19.015  0.00  0.00    +0.000 C 
ATOM     15  C   UNL     1       7.290   6.186  18.066  0.00  0.00    +0.000 C 
ATOM     16  C   UNL     1       7.489   5.321  16.822  0.00  0.00    +0.000 C 
ATOM     17  C   UNL     1       6.546   4.122  17.028  0.00  0.00    +0.000 C 
BRANCH  16  18
ATOM     18  O   UNL     1       7.058   5.988  15.627  0.00  0.00    +0.000 OA
BRANCH  18  19
ATOM     19  C   UNL     1       7.054   5.238  14.468  0.00  0.00    +0.000 A 
ATOM     20  C   UNL     1       6.032   4.319  14.361  0.00  0.00    +0.000 A 
ATOM     21  C   UNL     1       5.959   3.638  13.170  0.00  0.00    +0.000 A 
ATOM     22  N   UNL     1       6.812   3.846  12.151  0.00  0.00    +0.000 NA
ATOM     23  C   UNL     1       7.762   4.773  12.368  0.00  0.00    +0.000 A 
ATOM     24  N   UNL     1       7.943   5.490  13.495  0.00  0.00    +0.000 NA
ENDBRANCH  18  19
ENDBRANCH  16  18
ENDBRANCH   1  13
TORSDOF 5
ENDMDL
MODEL 9
REMARK VINA RESULT:      -7.2      1.475      1.909
REMARK  Name = 
REMARK  7 active torsions:
REMARK  status: ('A' for Active; 'I' for Inactive)
REMARK    1  A    between atoms: C_1  and  O_2
REMARK    2  A    between atoms: O_2  and  C_3
REMARK    3  A    between atoms: C_6  and  C_7
REMARK    4  A    between atoms: C_9  and  S_10
REMARK    5  A    between atoms: S_10  and  N_13
REMARK    6  A    between atoms: C_16  and  O_17
REMARK    7  A    between atoms: O_17  and  C_18
REMARK                            x       y       z     vdW  Elec       q    Type
REMARK                         _______ _______ _______ _____ _____    ______ ____
ROOT
ATOM      1  S   UNL     1       3.801   6.132  17.650  0.00  0.00    +0.000 S 
ATOM      2  O   UNL     1       3.116   4.882  17.385  0.00  0.00    +0.000 OA
ATOM      3  O   UNL     1       4.036   7.077  16.578  0.00  0.00    +0.000 OA
ENDROOT
BRANCH   1  10
ATOM      4  C   UNL     1       2.303   6.498  20.054  0.00  0.00    +0.000 A 
ATOM      5  C   UNL     1       1.500   7.352  20.840  0.00  0.00    +0.000 A 
ATOM      6  C   UNL     1       1.086   8.612  20.388  0.00  0.00    +0.000 A 
ATOM      7  C   UNL     1       1.477   9.063  19.133  0.00  0.00    +0.000 A 
ATOM      8  C   UNL     1       0.980  10.371  18.590  0.00  0.00    +0.000 C 
ATOM      9  C   UNL     1       2.320   8.248  18.368  0.00  0.00    +0.000 A 
ATOM     10  C   UNL     1       2.753   6.978  18.823  0.00  0.00    +0.000 A 
BRANCH   4  12
ATOM     11  C   UNL     1       1.574   4.379  20.798  0.00  0.00    +0.000 C 
ATOM     12  O   UNL     1       2.659   5.261  20.496  0.00  0.00    +0.000 OA
ENDBRANCH   4  12
ENDBRANCH   1  10
BRANCH   1  13
ATOM     13  N   UNL     1       5.323   5.726  18.314  0.00  0.00    +0.000 NA
ATOM     14  C   UNL     1       6.465   6.595  17.931  0.00  0.00    +0.000 C 
ATOM     15  C   UNL     1       7.064   5.961  16.677  0.00  0.00    +0.000 C 
ATOM     16  C   UNL     1       6.744   4.469  16.759  0.00  0.00    +0.000 C 
ATOM     17  C   UNL     1       5.795   4.341  17.965  0.00  0.00    +0.000 C 
BRANCH  16  18
ATOM     18  O   UNL     1       6.020   4.010  15.609  0.00  0.00    +0.000 OA
BRANCH  18  19
ATOM     19  C   UNL     1       6.611   4.225  14.381  0.00  0.00    +0.000 A 
ATOM     20  C   UNL     1       6.089   3.493  13.336  0.00  0.00    +0.000 A 
ATOM     21  C   UNL     1       6.602   3.772  12.092  0.00  0.00    +0.000 A 
ATOM     22  N   UNL     1       7.546   4.706  11.879  0.00  0.00    +0.000 NA
ATOM     23  C   UNL     1       7.972   5.361  12.973  0.00  0.00    +0.000 A 
ATOM     24  N   UNL     1       7.558   5.165  14.240  0.00  0.00    +0.000 NA
ENDBRANCH  18  19
ENDBRANCH  16  18
ENDBRANCH   1  13
TORSDOF 5
ENDMDL
