MODEL 1
REMARK VINA RESULT:      -7.9      0.000      0.000
REMARK  Name = 
REMARK  4 active torsions:
REMARK  status: ('A' for Active; 'I' for Inactive)
REMARK    1  A    between atoms: C_2  and  C_3
REMARK    2  A    between atoms: C_3  and  C_4
REMARK    3  A    between atoms: C_4  and  N_5
REMARK    4  A    between atoms: C_19  and  N_20
REMARK                            x       y       z     vdW  Elec       q    Type
REMARK                         _______ _______ _______ _____ _____    ______ ____
ROOT
ATOM      1  O   UNL     1       1.102   2.594  19.749  0.00  0.00    +0.000 OA
ATOM      2  C   UNL     1       1.549   3.393  18.928  0.00  0.00    +0.000 C 
ATOM      3  N   UNL     1       1.676   4.766  19.180  0.00  0.00    +0.000 N 
ATOM      4  C   UNL     1       2.002   5.742  18.138  0.00  0.00    +0.000 C 
ATOM      5  C   UNL     1       2.998   6.759  18.658  0.00  0.00    +0.000 C 
ATOM      6  C   UNL     1       2.462   7.482  19.895  0.00  0.00    +0.000 C 
ATOM      7  C   UNL     1       1.988   6.477  20.954  0.00  0.00    +0.000 C 
ATOM      8  C   UNL     1       1.147   5.312  20.430  0.00  0.00    +0.000 C 
ENDROOT
BRANCH   6   9
ATOM      9  N   UNL     1       1.521   8.560  19.546  0.00  0.00    +0.000 N 
ATOM     10  C   UNL     1       1.516   9.117  18.304  0.00  0.00    +0.000 C 
ATOM     11  O   UNL     1       2.291   8.888  17.388  0.00  0.00    +0.000 OA
ATOM     12  C   UNL     1       0.353  10.049  18.223  0.00  0.00    +0.000 C 
ATOM     13  O   UNL     1      -0.281   9.886  19.484  0.00  0.00    +0.000 OA
ATOM     14  C   UNL     1       0.408   8.965  20.207  0.00  0.00    +0.000 C 
ATOM     15  O   UNL     1      -0.000   8.579  21.289  0.00  0.00    +0.000 OA
ENDBRANCH   6   9
BRANCH   2  16
ATOM     16  C   UNL     1       2.060   2.958  17.576  0.00  0.00    +0.000 C 
BRANCH  16  17
ATOM     17  C   UNL     1       3.464   2.385  17.591  0.00  0.00    +0.000 C 
BRANCH  17  18
ATOM     18  N   UNL     1       4.444   3.463  17.440  0.00  0.00    +0.000 N 
ATOM     19  C   UNL     1       4.630   4.045  16.207  0.00  0.00    +0.000 A 
ATOM     20  N   UNL     1       5.473   4.988  15.950  0.00  0.00    +0.000 NA
ATOM     21  C   UNL     1       6.242   5.475  17.016  0.00  0.00    +0.000 A 
ATOM     22  C   UNL     1       7.056   6.592  16.808  0.00  0.00    +0.000 A 
ATOM     23  C   UNL     1       7.816   7.123  17.854  0.00  0.00    +0.000 A 
ATOM     24  C   UNL     1       7.791   6.522  19.113  0.00  0.00    +0.000 A 
ATOM     25  C   UNL     1       6.993   5.399  19.330  0.00  0.00    +0.000 A 
ATOM     26  C   UNL     1       6.209   4.897  18.287  0.00  0.00    +0.000 A 
ATOM     27  C   UNL     1       5.283   3.766  18.506  0.00  0.00    +0.000 A 
ATOM     28  O   UNL     1       5.294   3.155  19.567  0.00  0.00    +0.000 OA
ENDBRANCH  17  18
ENDBRANCH  16  17
ENDBRANCH   2  16
TORSDOF 4
ENDMDL
MODEL 2
REMARK VINA RESULT:      -7.9      3.070      6.164
REMARK  Name = 
REMARK  4 active torsions:
REMARK  status: ('A' for Active; 'I' for Inactive)
REMARK    1  A    between atoms: C_2  and  C_3
REMARK    2  A    between atoms: C_3  and  C_4
REMARK    3  A    between atoms: C_4  and  N_5
REMARK    4  A    between atoms: C_19  and  N_20
REMARK                            x       y       z     vdW  Elec       q    Type
REMARK                         _______ _______ _______ _____ _____    ______ ____
ROOT
ATOM      1  O   UNL     1       2.742  11.190  17.824  0.00  0.00    +0.000 OA
ATOM      2  C   UNL     1       1.732  10.571  18.157  0.00  0.00    +0.000 C 
ATOM      3  N   UNL     1       0.662  11.157  18.847  0.00  0.00    +0.000 N 
ATOM      4  C   UNL     1      -0.433  10.379  19.430  0.00  0.00    +0.000 C 
ATOM      5  C   UNL     1      -1.761  11.067  19.182  0.00  0.00    +0.000 C 
ATOM      6  C   UNL     1      -1.770  12.485  19.756  0.00  0.00    +0.000 C 
ATOM      7  C   UNL     1      -0.554  13.283  19.264  0.00  0.00    +0.000 C 
ATOM      8  C   UNL     1       0.783  12.541  19.305  0.00  0.00    +0.000 C 
ENDROOT
BRANCH   6   9
ATOM      9  N   UNL     1      -2.018  12.497  21.208  0.00  0.00    +0.000 N 
ATOM     10  C   UNL     1      -3.281  12.591  21.707  0.00  0.00    +0.000 C 
ATOM     11  O   UNL     1      -4.314  12.759  21.076  0.00  0.00    +0.000 OA
ATOM     12  C   UNL     1      -3.206  12.411  23.187  0.00  0.00    +0.000 C 
ATOM     13  O   UNL     1      -1.827  12.151  23.411  0.00  0.00    +0.000 OA
ATOM     14  C   UNL     1      -1.178  12.159  22.218  0.00  0.00    +0.000 C 
ATOM     15  O   UNL     1       0.001  11.860  22.140  0.00  0.00    +0.000 OA
ENDBRANCH   6   9
BRANCH   2  16
ATOM     16  C   UNL     1       1.525   9.119  17.804  0.00  0.00    +0.000 C 
BRANCH  16  17
ATOM     17  C   UNL     1       2.772   8.264  17.910  0.00  0.00    +0.000 C 
BRANCH  17  18
ATOM     18  N   UNL     1       2.489   7.065  18.704  0.00  0.00    +0.000 N 
ATOM     19  C   UNL     1       1.939   7.195  19.959  0.00  0.00    +0.000 A 
ATOM     20  N   UNL     1       1.661   6.216  20.752  0.00  0.00    +0.000 NA
ATOM     21  C   UNL     1       1.916   4.917  20.290  0.00  0.00    +0.000 A 
ATOM     22  C   UNL     1       1.492   3.830  21.061  0.00  0.00    +0.000 A 
ATOM     23  C   UNL     1       1.704   2.521  20.620  0.00  0.00    +0.000 A 
ATOM     24  C   UNL     1       2.368   2.286  19.416  0.00  0.00    +0.000 A 
ATOM     25  C   UNL     1       2.808   3.362  18.644  0.00  0.00    +0.000 A 
ATOM     26  C   UNL     1       2.559   4.669  19.077  0.00  0.00    +0.000 A 
ATOM     27  C   UNL     1       2.928   5.830  18.241  0.00  0.00    +0.000 A 
ATOM     28  O   UNL     1       3.590   5.673  17.223  0.00  0.00    +0.000 OA
ENDBRANCH  17  18
ENDBRANCH  16  17
ENDBRANCH   2  16
TORSDOF 4
ENDMDL
MODEL 3
REMARK VINA RESULT:      -7.8      2.461      7.469
REMARK  Name = 
REMARK  4 active torsions:
REMARK  status: ('A' for Active; 'I' for Inactive)
REMARK    1  A    between atoms: C_2  and  C_3
REMARK    2  A    between atoms: C_3  and  C_4
REMARK    3  A    between atoms: C_4  and  N_5
REMARK    4  A    between atoms: C_19  and  N_20
REMARK                            x       y       z     vdW  Elec       q    Type
REMARK                         _______ _______ _______ _____ _____    ______ ____
ROOT
ATOM      1  O   UNL     1       2.179   4.469  21.703  0.00  0.00    +0.000 OA
ATOM      2  C   UNL     1       2.259   5.116  20.660  0.00  0.00    +0.000 C 
ATOM      3  N   UNL     1       3.045   4.723  19.568  0.00  0.00    +0.000 N 
ATOM      4  C   UNL     1       3.308   5.594  18.421  0.00  0.00    +0.000 C 
ATOM      5  C   UNL     1       3.224   4.806  17.129  0.00  0.00    +0.000 C 
ATOM      6  C   UNL     1       4.204   3.633  17.125  0.00  0.00    +0.000 C 
ATOM      7  C   UNL     1       4.038   2.776  18.388  0.00  0.00    +0.000 C 
ATOM      8  C   UNL     1       3.911   3.551  19.700  0.00  0.00    +0.000 C 
ENDROOT
BRANCH   6   9
ATOM      9  N   UNL     1       5.577   4.055  16.795  0.00  0.00    +0.000 N 
ATOM     10  C   UNL     1       5.945   4.311  15.509  0.00  0.00    +0.000 C 
ATOM     11  O   UNL     1       5.271   4.156  14.502  0.00  0.00    +0.000 OA
ATOM     12  C   UNL     1       7.330   4.868  15.531  0.00  0.00    +0.000 C 
ATOM     13  O   UNL     1       7.627   4.944  16.918  0.00  0.00    +0.000 OA
ATOM     14  C   UNL     1       6.551   4.506  17.623  0.00  0.00    +0.000 C 
ATOM     15  O   UNL     1       6.526   4.570  18.840  0.00  0.00    +0.000 OA
ENDBRANCH   6   9
BRANCH   2  16
ATOM     16  C   UNL     1       1.467   6.380  20.435  0.00  0.00    +0.000 C 
BRANCH  16  17
ATOM     17  C   UNL     1       1.990   7.590  21.183  0.00  0.00    +0.000 C 
BRANCH  17  18
ATOM     18  N   UNL     1       1.106   8.736  20.958  0.00  0.00    +0.000 N 
ATOM     19  C   UNL     1       0.863   9.166  19.674  0.00  0.00    +0.000 A 
ATOM     20  N   UNL     1       0.117  10.170  19.355  0.00  0.00    +0.000 NA
ATOM     21  C   UNL     1      -0.516  10.862  20.398  0.00  0.00    +0.000 A 
ATOM     22  C   UNL     1      -1.444  11.858  20.083  0.00  0.00    +0.000 A 
ATOM     23  C   UNL     1      -2.115  12.550  21.094  0.00  0.00    +0.000 A 
ATOM     24  C   UNL     1      -1.842  12.271  22.434  0.00  0.00    +0.000 A 
ATOM     25  C   UNL     1      -0.908  11.289  22.762  0.00  0.00    +0.000 A 
ATOM     26  C   UNL     1      -0.268  10.577  21.742  0.00  0.00    +0.000 A 
ATOM     27  C   UNL     1       0.658   9.467  22.052  0.00  0.00    +0.000 A 
ATOM     28  O   UNL     1       0.993   9.249  23.209  0.00  0.00    +0.000 OA
ENDBRANCH  17  18
ENDBRANCH  16  17
ENDBRANCH   2  16
TORSDOF 4
ENDMDL
MODEL 4
REMARK VINA RESULT:      -7.7      3.174      8.658
REMARK  Name = 
REMARK  4 active torsions:
REMARK  status: ('A' for Active; 'I' for Inactive)
REMARK    1  A    between atoms: C_2  and  C_3
REMARK    2  A    between atoms: C_3  and  C_4
REMARK    3  A    between atoms: C_4  and  N_5
REMARK    4  A    between atoms: C_19  and  N_20
REMARK                            x       y       z     vdW  Elec       q    Type
REMARK                         _______ _______ _______ _____ _____    ______ ____
ROOT
ATOM      1  O   UNL     1       2.085   9.666  17.463  0.00  0.00    +0.000 OA
ATOM      2  C   UNL     1       1.882   8.882  18.390  0.00  0.00    +0.000 C 
ATOM      3  N   UNL     1       2.457   7.606  18.460  0.00  0.00    +0.000 N 
ATOM      4  C   UNL     1       2.050   6.600  19.442  0.00  0.00    +0.000 C 
ATOM      5  C   UNL     1       3.263   5.882  19.999  0.00  0.00    +0.000 C 
ATOM      6  C   UNL     1       4.078   5.220  18.887  0.00  0.00    +0.000 C 
ATOM      7  C   UNL     1       4.406   6.226  17.775  0.00  0.00    +0.000 C 
ATOM      8  C   UNL     1       3.247   7.119  17.329  0.00  0.00    +0.000 C 
ENDROOT
BRANCH   6   9
ATOM      9  N   UNL     1       3.496   3.936  18.459  0.00  0.00    +0.000 N 
ATOM     10  C   UNL     1       3.930   2.757  18.982  0.00  0.00    +0.000 C 
ATOM     11  O   UNL     1       4.857   2.589  19.760  0.00  0.00    +0.000 OA
ATOM     12  C   UNL     1       3.040   1.672  18.472  0.00  0.00    +0.000 C 
ATOM     13  O   UNL     1       2.077   2.380  17.703  0.00  0.00    +0.000 OA
ATOM     14  C   UNL     1       2.353   3.708  17.766  0.00  0.00    +0.000 C 
ATOM     15  O   UNL     1       1.606   4.532  17.267  0.00  0.00    +0.000 OA
ENDBRANCH   6   9
BRANCH   2  16
ATOM     16  C   UNL     1       1.027   9.246  19.579  0.00  0.00    +0.000 C 
BRANCH  16  17
ATOM     17  C   UNL     1       1.234  10.657  20.092  0.00  0.00    +0.000 C 
BRANCH  17  18
ATOM     18  N   UNL     1      -0.062  11.287  20.357  0.00  0.00    +0.000 N 
ATOM     19  C   UNL     1      -0.755  11.878  19.325  0.00  0.00    +0.000 A 
ATOM     20  N   UNL     1      -1.893  12.474  19.441  0.00  0.00    +0.000 NA
ATOM     21  C   UNL     1      -2.484  12.500  20.712  0.00  0.00    +0.000 A 
ATOM     22  C   UNL     1      -3.780  13.005  20.846  0.00  0.00    +0.000 A 
ATOM     23  C   UNL     1      -4.412  13.022  22.092  0.00  0.00    +0.000 A 
ATOM     24  C   UNL     1      -3.740  12.558  23.224  0.00  0.00    +0.000 A 
ATOM     25  C   UNL     1      -2.441  12.064  23.106  0.00  0.00    +0.000 A 
ATOM     26  C   UNL     1      -1.831  12.019  21.848  0.00  0.00    +0.000 A 
ATOM     27  C   UNL     1      -0.493  11.417  21.672  0.00  0.00    +0.000 A 
ATOM     28  O   UNL     1       0.166  11.081  22.648  0.00  0.00    +0.000 OA
ENDBRANCH  17  18
ENDBRANCH  16  17
ENDBRANCH   2  16
TORSDOF 4
ENDMDL
MODEL 5
REMARK VINA RESULT:      -7.6      2.169      7.196
REMARK  Name = 
REMARK  4 active torsions:
REMARK  status: ('A' for Active; 'I' for Inactive)
REMARK    1  A    between atoms: C_2  and  C_3
REMARK    2  A    between atoms: C_3  and  C_4
REMARK    3  A    between atoms: C_4  and  N_5
REMARK    4  A    between atoms: C_19  and  N_20
REMARK                            x       y       z     vdW  Elec       q    Type
REMARK                         _______ _______ _______ _____ _____    ______ ____
ROOT
ATOM      1  O   UNL     1       2.264   4.048  21.759  0.00  0.00    +0.000 OA
ATOM      2  C   UNL     1       2.290   4.736  20.740  0.00  0.00    +0.000 C 
ATOM      3  N   UNL     1       3.069   4.422  19.618  0.00  0.00    +0.000 N 
ATOM      4  C   UNL     1       3.265   5.346  18.499  0.00  0.00    +0.000 C 
ATOM      5  C   UNL     1       3.188   4.604  17.180  0.00  0.00    +0.000 C 
ATOM      6  C   UNL     1       4.222   3.479  17.111  0.00  0.00    +0.000 C 
ATOM      7  C   UNL     1       4.124   2.569  18.344  0.00  0.00    +0.000 C 
ATOM      8  C   UNL     1       3.991   3.288  19.687  0.00  0.00    +0.000 C 
ENDROOT
BRANCH   6   9
ATOM      9  N   UNL     1       5.565   3.977  16.768  0.00  0.00    +0.000 N 
ATOM     10  C   UNL     1       5.892   4.297  15.486  0.00  0.00    +0.000 C 
ATOM     11  O   UNL     1       5.204   4.147  14.488  0.00  0.00    +0.000 OA
ATOM     12  C   UNL     1       7.249   4.918  15.499  0.00  0.00    +0.000 C 
ATOM     13  O   UNL     1       7.574   4.957  16.882  0.00  0.00    +0.000 OA
ATOM     14  C   UNL     1       6.536   4.444  17.592  0.00  0.00    +0.000 C 
ATOM     15  O   UNL     1       6.535   4.462  18.811  0.00  0.00    +0.000 OA
ENDBRANCH   6   9
BRANCH   2  16
ATOM     16  C   UNL     1       1.435   5.969  20.579  0.00  0.00    +0.000 C 
BRANCH  16  17
ATOM     17  C   UNL     1       2.217   7.256  20.404  0.00  0.00    +0.000 C 
BRANCH  17  18
ATOM     18  N   UNL     1       1.316   8.406  20.511  0.00  0.00    +0.000 N 
ATOM     19  C   UNL     1       0.526   8.549  21.630  0.00  0.00    +0.000 A 
ATOM     20  N   UNL     1      -0.314   9.508  21.828  0.00  0.00    +0.000 NA
ATOM     21  C   UNL     1      -0.411  10.497  20.838  0.00  0.00    +0.000 A 
ATOM     22  C   UNL     1      -1.199  11.624  21.084  0.00  0.00    +0.000 A 
ATOM     23  C   UNL     1      -1.299  12.643  20.133  0.00  0.00    +0.000 A 
ATOM     24  C   UNL     1      -0.634  12.529  18.912  0.00  0.00    +0.000 A 
ATOM     25  C   UNL     1       0.145  11.403  18.649  0.00  0.00    +0.000 A 
ATOM     26  C   UNL     1       0.267  10.405  19.622  0.00  0.00    +0.000 A 
ATOM     27  C   UNL     1       1.156   9.243  19.413  0.00  0.00    +0.000 A 
ATOM     28  O   UNL     1       1.687   9.059  18.326  0.00  0.00    +0.000 OA
ENDBRANCH  17  18
ENDBRANCH  16  17
ENDBRANCH   2  16
TORSDOF 4
ENDMDL
MODEL 6
REMARK VINA RESULT:      -7.6      2.952      8.522
REMARK  Name = 
REMARK  4 active torsions:
REMARK  status: ('A' for Active; 'I' for Inactive)
REMARK    1  A    between atoms: C_2  and  C_3
REMARK    2  A    between atoms: C_3  and  C_4
REMARK    3  A    between atoms: C_4  and  N_5
REMARK    4  A    between atoms: C_19  and  N_20
REMARK                            x       y       z     vdW  Elec       q    Type
REMARK                         _______ _______ _______ _____ _____    ______ ____
ROOT
ATOM      1  O   UNL     1       2.770   9.214  17.158  0.00  0.00    +0.000 OA
ATOM      2  C   UNL     1       2.382   8.469  18.057  0.00  0.00    +0.000 C 
ATOM      3  N   UNL     1       2.931   7.202  18.298  0.00  0.00    +0.000 N 
ATOM      4  C   UNL     1       2.331   6.235  19.219  0.00  0.00    +0.000 C 
ATOM      5  C   UNL     1       3.405   5.552  20.043  0.00  0.00    +0.000 C 
ATOM      6  C   UNL     1       4.430   4.850  19.151  0.00  0.00    +0.000 C 
ATOM      7  C   UNL     1       4.979   5.812  18.086  0.00  0.00    +0.000 C 
ATOM      8  C   UNL     1       3.935   6.674  17.375  0.00  0.00    +0.000 C 
ENDROOT
BRANCH   6   9
ATOM      9  N   UNL     1       3.949   3.545  18.668  0.00  0.00    +0.000 N 
ATOM     10  C   UNL     1       4.280   2.390  19.310  0.00  0.00    +0.000 C 
ATOM     11  O   UNL     1       5.042   2.263  20.257  0.00  0.00    +0.000 OA
ATOM     12  C   UNL     1       3.510   1.277  18.681  0.00  0.00    +0.000 C 
ATOM     13  O   UNL     1       2.709   1.944  17.714  0.00  0.00    +0.000 OA
ATOM     14  C   UNL     1       2.961   3.277  17.779  0.00  0.00    +0.000 C 
ATOM     15  O   UNL     1       2.319   4.072  17.114  0.00  0.00    +0.000 OA
ENDBRANCH   6   9
BRANCH   2  16
ATOM     16  C   UNL     1       1.302   8.875  19.029  0.00  0.00    +0.000 C 
BRANCH  16  17
ATOM     17  C   UNL     1       0.442  10.033  18.564  0.00  0.00    +0.000 C 
BRANCH  17  18
ATOM     18  N   UNL     1      -0.069  10.772  19.721  0.00  0.00    +0.000 N 
ATOM     19  C   UNL     1       0.629  10.745  20.907  0.00  0.00    +0.000 A 
ATOM     20  N   UNL     1       0.270  11.342  21.994  0.00  0.00    +0.000 NA
ATOM     21  C   UNL     1      -0.910  12.098  21.956  0.00  0.00    +0.000 A 
ATOM     22  C   UNL     1      -1.250  12.874  23.067  0.00  0.00    +0.000 A 
ATOM     23  C   UNL     1      -2.405  13.662  23.057  0.00  0.00    +0.000 A 
ATOM     24  C   UNL     1      -3.246  13.658  21.943  0.00  0.00    +0.000 A 
ATOM     25  C   UNL     1      -2.924  12.877  20.834  0.00  0.00    +0.000 A 
ATOM     26  C   UNL     1      -1.748  12.119  20.840  0.00  0.00    +0.000 A 
ATOM     27  C   UNL     1      -1.329  11.353  19.648  0.00  0.00    +0.000 A 
ATOM     28  O   UNL     1      -2.079  11.250  18.686  0.00  0.00    +0.000 OA
ENDBRANCH  17  18
ENDBRANCH  16  17
ENDBRANCH   2  16
TORSDOF 4
ENDMDL
MODEL 7
REMARK VINA RESULT:      -7.6      3.166      6.187
REMARK  Name = 
REMARK  4 active torsions:
REMARK  status: ('A' for Active; 'I' for Inactive)
REMARK    1  A    between atoms: C_2  and  C_3
REMARK    2  A    between atoms: C_3  and  C_4
REMARK    3  A    between atoms: C_4  and  N_5
REMARK    4  A    between atoms: C_19  and  N_20
REMARK                            x       y       z     vdW  Elec       q    Type
REMARK                         _______ _______ _______ _____ _____    ______ ____
ROOT
ATOM      1  O   UNL     1       1.478  11.261  21.385  0.00  0.00    +0.000 OA
ATOM      2  C   UNL     1       0.814  10.463  20.725  0.00  0.00    +0.000 C 
ATOM      3  N   UNL     1      -0.203  10.852  19.842  0.00  0.00    +0.000 N 
ATOM      4  C   UNL     1      -1.131   9.901  19.226  0.00  0.00    +0.000 C 
ATOM      5  C   UNL     1      -1.358  10.251  17.769  0.00  0.00    +0.000 C 
ATOM      6  C   UNL     1      -1.896  11.675  17.615  0.00  0.00    +0.000 C 
ATOM      7  C   UNL     1      -1.010  12.680  18.366  0.00  0.00    +0.000 C 
ATOM      8  C   UNL     1      -0.587  12.262  19.775  0.00  0.00    +0.000 C 
ENDROOT
BRANCH   6   9
ATOM      9  N   UNL     1      -3.343  11.755  17.874  0.00  0.00    +0.000 N 
ATOM     10  C   UNL     1      -4.247  11.255  16.987  0.00  0.00    +0.000 C 
ATOM     11  O   UNL     1      -4.017  10.783  15.884  0.00  0.00    +0.000 OA
ATOM     12  C   UNL     1      -5.600  11.342  17.611  0.00  0.00    +0.000 C 
ATOM     13  O   UNL     1      -5.327  11.858  18.906  0.00  0.00    +0.000 OA
ATOM     14  C   UNL     1      -3.986  12.035  19.035  0.00  0.00    +0.000 C 
ATOM     15  O   UNL     1      -3.494  12.375  20.097  0.00  0.00    +0.000 OA
ENDBRANCH   6   9
BRANCH   2  16
ATOM     16  C   UNL     1       1.070   8.976  20.765  0.00  0.00    +0.000 C 
BRANCH  16  17
ATOM     17  C   UNL     1       1.984   8.468  19.668  0.00  0.00    +0.000 C 
BRANCH  17  18
ATOM     18  N   UNL     1       1.945   7.004  19.625  0.00  0.00    +0.000 N 
ATOM     19  C   UNL     1       1.437   6.305  20.697  0.00  0.00    +0.000 A 
ATOM     20  N   UNL     1       1.367   5.020  20.779  0.00  0.00    +0.000 NA
ATOM     21  C   UNL     1       1.818   4.276  19.680  0.00  0.00    +0.000 A 
ATOM     22  C   UNL     1       1.622   2.892  19.673  0.00  0.00    +0.000 A 
ATOM     23  C   UNL     1       2.034   2.121  18.582  0.00  0.00    +0.000 A 
ATOM     24  C   UNL     1       2.674   2.725  17.499  0.00  0.00    +0.000 A 
ATOM     25  C   UNL     1       2.889   4.103  17.500  0.00  0.00    +0.000 A 
ATOM     26  C   UNL     1       2.440   4.871  18.581  0.00  0.00    +0.000 A 
ATOM     27  C   UNL     1       2.568   6.343  18.573  0.00  0.00    +0.000 A 
ATOM     28  O   UNL     1       3.201   6.903  17.688  0.00  0.00    +0.000 OA
ENDBRANCH  17  18
ENDBRANCH  16  17
ENDBRANCH   2  16
TORSDOF 4
ENDMDL
MODEL 8
REMARK VINA RESULT:      -7.6      2.975      8.194
REMARK  Name = 
REMARK  4 active torsions:
REMARK  status: ('A' for Active; 'I' for Inactive)
REMARK    1  A    between atoms: C_2  and  C_3
REMARK    2  A    between atoms: C_3  and  C_4
REMARK    3  A    between atoms: C_4  and  N_5
REMARK    4  A    between atoms: C_19  and  N_20
REMARK                            x       y       z     vdW  Elec       q    Type
REMARK                         _______ _______ _______ _____ _____    ______ ____
ROOT
ATOM      1  O   UNL     1       1.068   6.144  21.151  0.00  0.00    +0.000 OA
ATOM      2  C   UNL     1       1.784   6.777  20.377  0.00  0.00    +0.000 C 
ATOM      3  N   UNL     1       2.660   6.169  19.467  0.00  0.00    +0.000 N 
ATOM      4  C   UNL     1       3.662   6.916  18.704  0.00  0.00    +0.000 C 
ATOM      5  C   UNL     1       3.718   6.417  17.274  0.00  0.00    +0.000 C 
ATOM      6  C   UNL     1       4.031   4.921  17.216  0.00  0.00    +0.000 C 
ATOM      7  C   UNL     1       3.074   4.126  18.116  0.00  0.00    +0.000 C 
ATOM      8  C   UNL     1       2.831   4.717  19.506  0.00  0.00    +0.000 C 
ENDROOT
BRANCH   6   9
ATOM      9  N   UNL     1       5.469   4.646  17.384  0.00  0.00    +0.000 N 
ATOM     10  C   UNL     1       6.313   4.638  16.316  0.00  0.00    +0.000 C 
ATOM     11  O   UNL     1       6.016   4.758  15.137  0.00  0.00    +0.000 OA
ATOM     12  C   UNL     1       7.707   4.495  16.833  0.00  0.00    +0.000 C 
ATOM     13  O   UNL     1       7.530   4.497  18.243  0.00  0.00    +0.000 OA
ATOM     14  C   UNL     1       6.208   4.641  18.521  0.00  0.00    +0.000 C 
ATOM     15  O   UNL     1       5.815   4.772  19.667  0.00  0.00    +0.000 OA
ENDBRANCH   6   9
BRANCH   2  16
ATOM     16  C   UNL     1       1.749   8.283  20.296  0.00  0.00    +0.000 C 
BRANCH  16  17
ATOM     17  C   UNL     1       1.468   8.976  21.614  0.00  0.00    +0.000 C 
BRANCH  17  18
ATOM     18  N   UNL     1       0.426   9.991  21.433  0.00  0.00    +0.000 N 
ATOM     19  C   UNL     1       0.277  10.601  20.208  0.00  0.00    +0.000 A 
ATOM     20  N   UNL     1      -0.591  11.516  19.935  0.00  0.00    +0.000 NA
ATOM     21  C   UNL     1      -1.469  11.900  20.958  0.00  0.00    +0.000 A 
ATOM     22  C   UNL     1      -2.514  12.778  20.658  0.00  0.00    +0.000 A 
ATOM     23  C   UNL     1      -3.425  13.162  21.645  0.00  0.00    +0.000 A 
ATOM     24  C   UNL     1      -3.282  12.693  22.952  0.00  0.00    +0.000 A 
ATOM     25  C   UNL     1      -2.235  11.827  23.267  0.00  0.00    +0.000 A 
ATOM     26  C   UNL     1      -1.349  11.421  22.264  0.00  0.00    +0.000 A 
ATOM     27  C   UNL     1      -0.285  10.433  22.542  0.00  0.00    +0.000 A 
ATOM     28  O   UNL     1      -0.069  10.065  23.689  0.00  0.00    +0.000 OA
ENDBRANCH  17  18
ENDBRANCH  16  17
ENDBRANCH   2  16
TORSDOF 4
ENDMDL
MODEL 9
REMARK VINA RESULT:      -7.5      3.087      8.378
REMARK  Name = 
REMARK  4 active torsions:
REMARK  status: ('A' for Active; 'I' for Inactive)
REMARK    1  A    between atoms: C_2  and  C_3
REMARK    2  A    between atoms: C_3  and  C_4
REMARK    3  A    between atoms: C_4  and  N_5
REMARK    4  A    between atoms: C_19  and  N_20
REMARK                            x       y       z     vdW  Elec       q    Type
REMARK                         _______ _______ _______ _____ _____    ______ ____
ROOT
ATOM      1  O   UNL     1       2.239   9.496  17.605  0.00  0.00    +0.000 OA
ATOM      2  C   UNL     1       1.912   8.674  18.460  0.00  0.00    +0.000 C 
ATOM      3  N   UNL     1       2.518   7.417  18.591  0.00  0.00    +0.000 N 
ATOM      4  C   UNL     1       1.989   6.364  19.460  0.00  0.00    +0.000 C 
ATOM      5  C   UNL     1       3.117   5.668  20.195  0.00  0.00    +0.000 C 
ATOM      6  C   UNL     1       4.136   5.074  19.221  0.00  0.00    +0.000 C 
ATOM      7  C   UNL     1       4.609   6.130  18.211  0.00  0.00    +0.000 C 
ATOM      8  C   UNL     1       3.507   6.997  17.599  0.00  0.00    +0.000 C 
ENDROOT
BRANCH   6   9
ATOM      9  N   UNL     1       3.688   3.787  18.663  0.00  0.00    +0.000 N 
ATOM     10  C   UNL     1       4.127   2.605  19.175  0.00  0.00    +0.000 C 
ATOM     11  O   UNL     1       4.964   2.444  20.050  0.00  0.00    +0.000 OA
ATOM     12  C   UNL     1       3.370   1.505  18.508  0.00  0.00    +0.000 C 
ATOM     13  O   UNL     1       2.464   2.202  17.664  0.00  0.00    +0.000 OA
ATOM     14  C   UNL     1       2.650   3.537  17.826  0.00  0.00    +0.000 C 
ATOM     15  O   UNL     1       1.919   4.346  17.281  0.00  0.00    +0.000 OA
ENDBRANCH   6   9
BRANCH   2  16
ATOM     16  C   UNL     1       0.853   8.966  19.495  0.00  0.00    +0.000 C 
BRANCH  16  17
ATOM     17  C   UNL     1       1.395   9.385  20.847  0.00  0.00    +0.000 C 
BRANCH  17  18
ATOM     18  N   UNL     1       0.695  10.584  21.315  0.00  0.00    +0.000 N 
ATOM     19  C   UNL     1       1.195  11.829  21.007  0.00  0.00    +0.000 A 
ATOM     20  N   UNL     1       0.674  12.950  21.377  0.00  0.00    +0.000 NA
ATOM     21  C   UNL     1      -0.507  12.898  22.129  0.00  0.00    +0.000 A 
ATOM     22  C   UNL     1      -1.177  14.089  22.419  0.00  0.00    +0.000 A 
ATOM     23  C   UNL     1      -2.373  14.075  23.143  0.00  0.00    +0.000 A 
ATOM     24  C   UNL     1      -2.895  12.868  23.609  0.00  0.00    +0.000 A 
ATOM     25  C   UNL     1      -2.229  11.673  23.338  0.00  0.00    +0.000 A 
ATOM     26  C   UNL     1      -1.052  11.695  22.582  0.00  0.00    +0.000 A 
ATOM     27  C   UNL     1      -0.370  10.441  22.197  0.00  0.00    +0.000 A 
ATOM     28  O   UNL     1      -0.743   9.369  22.657  0.00  0.00    +0.000 OA
ENDBRANCH  17  18
ENDBRANCH  16  17
ENDBRANCH   2  16
TORSDOF 4
ENDMDL
