MODEL 1
REMARK VINA RESULT:      -6.5      0.000      0.000
REMARK  Name = 
REMARK  7 active torsions:
REMARK  status: ('A' for Active; 'I' for Inactive)
REMARK    1  A    between atoms: C_1  and  C_2
REMARK    2  A    between atoms: C_2  and  N_3
REMARK    3  A    between atoms: C_2  and  C_12
REMARK    4  A    between atoms: N_3  and  C_4
REMARK    5  A    between atoms: C_4  and  C_5
REMARK    6  A    between atoms: N_7  and  C_8
REMARK    7  A    between atoms: C_8  and  C_9
REMARK                            x       y       z     vdW  Elec       q    Type
REMARK                         _______ _______ _______ _____ _____    ______ ____
ROOT
ATOM      1  N   UNL     1       5.760   4.439  16.121  0.00  0.00    +0.000 NA
ATOM      2  H   UNL     1       5.800   3.598  16.703  0.00  0.00    +0.000 HD
ENDROOT
BRANCH   1   4
ATOM      3  C   UNL     1       4.753   6.745  16.228  0.00  0.00    +0.000 C 
ATOM      4  C   UNL     1       5.329   5.545  16.991  0.00  0.00    +0.000 C 
BRANCH   4   5
ATOM      5  C   UNL     1       4.285   4.994  17.948  0.00  0.00    +0.000 A 
ATOM      6  C   UNL     1       2.910   5.172  17.698  0.00  0.00    +0.000 A 
ATOM      7  C   UNL     1       1.953   4.619  18.546  0.00  0.00    +0.000 A 
ATOM      8  C   UNL     1       2.358   3.880  19.656  0.00  0.00    +0.000 A 
ATOM      9 BR   UNL     1       1.058   3.111  20.789  0.00  0.00    +0.000 Br
ATOM     10  C   UNL     1       3.711   3.698  19.928  0.00  0.00    +0.000 A 
ATOM     11  C   UNL     1       4.660   4.255  19.074  0.00  0.00    +0.000 A 
ATOM     12  F   UNL     1       5.958   4.055  19.341  0.00  0.00    +0.000 F 
ENDBRANCH   4   5
ENDBRANCH   1   4
BRANCH   1  13
ATOM     13  C   UNL     1       7.100   4.619  15.528  0.00  0.00    +0.000 C 
BRANCH  13  14
ATOM     14  C   UNL     1       6.992   4.562  13.995  0.00  0.00    +0.000 C 
ATOM     15  O   UNL     1       7.536   5.383  13.263  0.00  0.00    +0.000 OA
ATOM     16  N   UNL     1       6.193   3.541  13.535  0.00  0.00    +0.000 N 
ATOM     17  H   UNL     1       5.845   2.892  14.235  0.00  0.00    +0.000 HD
BRANCH  16  18
ATOM     18  C   UNL     1       5.901   3.353  12.139  0.00  0.00    +0.000 C 
BRANCH  18  19
ATOM     19  C   UNL     1       4.430   3.489  11.908  0.00  0.00    +0.000 C 
ATOM     20  C   UNL     1       3.901   4.027  10.599  0.00  0.00    +0.000 C 
ATOM     21  C   UNL     1       3.710   2.577  10.944  0.00  0.00    +0.000 C 
ENDBRANCH  18  19
ENDBRANCH  16  18
ENDBRANCH  13  14
ENDBRANCH   1  13
TORSDOF 6
ENDMDL
MODEL 2
REMARK VINA RESULT:      -6.5      3.706      5.020
REMARK  Name = 
REMARK  7 active torsions:
REMARK  status: ('A' for Active; 'I' for Inactive)
REMARK    1  A    between atoms: C_1  and  C_2
REMARK    2  A    between atoms: C_2  and  N_3
REMARK    3  A    between atoms: C_2  and  C_12
REMARK    4  A    between atoms: N_3  and  C_4
REMARK    5  A    between atoms: C_4  and  C_5
REMARK    6  A    between atoms: N_7  and  C_8
REMARK    7  A    between atoms: C_8  and  C_9
REMARK                            x       y       z     vdW  Elec       q    Type
REMARK                         _______ _______ _______ _____ _____    ______ ____
ROOT
ATOM      1  N   UNL     1       3.057   2.320  19.365  0.00  0.00    +0.000 NA
ATOM      2  H   UNL     1       2.885   1.315  19.452  0.00  0.00    +0.000 HD
ENDROOT
BRANCH   1   4
ATOM      3  C   UNL     1       1.950   2.960  21.535  0.00  0.00    +0.000 C 
ATOM      4  C   UNL     1       1.922   3.007  20.001  0.00  0.00    +0.000 C 
BRANCH   4   5
ATOM      5  C   UNL     1       1.939   4.452  19.530  0.00  0.00    +0.000 A 
ATOM      6  C   UNL     1       2.193   5.503  20.433  0.00  0.00    +0.000 A 
ATOM      7  C   UNL     1       2.263   6.822  19.990  0.00  0.00    +0.000 A 
ATOM      8  C   UNL     1       2.080   7.108  18.638  0.00  0.00    +0.000 A 
ATOM      9 BR   UNL     1       2.201   8.894  18.038  0.00  0.00    +0.000 Br
ATOM     10  C   UNL     1       1.819   6.086  17.729  0.00  0.00    +0.000 A 
ATOM     11  C   UNL     1       1.751   4.771  18.182  0.00  0.00    +0.000 A 
ATOM     12  F   UNL     1       1.516   3.798  17.291  0.00  0.00    +0.000 F 
ENDBRANCH   4   5
ENDBRANCH   1   4
BRANCH   1  13
ATOM     13  C   UNL     1       4.363   2.592  19.997  0.00  0.00    +0.000 C 
BRANCH  13  14
ATOM     14  C   UNL     1       5.194   3.504  19.078  0.00  0.00    +0.000 C 
ATOM     15  O   UNL     1       5.925   4.390  19.512  0.00  0.00    +0.000 OA
ATOM     16  N   UNL     1       5.000   3.263  17.737  0.00  0.00    +0.000 N 
ATOM     17  H   UNL     1       4.416   2.465  17.504  0.00  0.00    +0.000 HD
BRANCH  16  18
ATOM     18  C   UNL     1       5.626   4.050  16.709  0.00  0.00    +0.000 C 
BRANCH  18  19
ATOM     19  C   UNL     1       4.837   5.301  16.480  0.00  0.00    +0.000 C 
ATOM     20  C   UNL     1       5.392   6.647  16.879  0.00  0.00    +0.000 C 
ATOM     21  C   UNL     1       5.255   6.296  15.425  0.00  0.00    +0.000 C 
ENDBRANCH  18  19
ENDBRANCH  16  18
ENDBRANCH  13  14
ENDBRANCH   1  13
TORSDOF 6
ENDMDL
MODEL 3
REMARK VINA RESULT:      -6.5      2.207      2.968
REMARK  Name = 
REMARK  7 active torsions:
REMARK  status: ('A' for Active; 'I' for Inactive)
REMARK    1  A    between atoms: C_1  and  C_2
REMARK    2  A    between atoms: C_2  and  N_3
REMARK    3  A    between atoms: C_2  and  C_12
REMARK    4  A    between atoms: N_3  and  C_4
REMARK    5  A    between atoms: C_4  and  C_5
REMARK    6  A    between atoms: N_7  and  C_8
REMARK    7  A    between atoms: C_8  and  C_9
REMARK                            x       y       z     vdW  Elec       q    Type
REMARK                         _______ _______ _______ _____ _____    ______ ____
ROOT
ATOM      1  N   UNL     1       4.901   3.429  17.994  0.00  0.00    +0.000 NA
ATOM      2  H   UNL     1       4.787   3.095  18.955  0.00  0.00    +0.000 HD
ENDROOT
BRANCH   1   4
ATOM      3  C   UNL     1       2.563   2.633  17.496  0.00  0.00    +0.000 C 
ATOM      4  C   UNL     1       3.561   3.799  17.508  0.00  0.00    +0.000 C 
BRANCH   4   5
ATOM      5  C   UNL     1       3.041   4.912  18.402  0.00  0.00    +0.000 A 
ATOM      6  C   UNL     1       2.982   6.241  17.941  0.00  0.00    +0.000 A 
ATOM      7  C   UNL     1       2.453   7.251  18.742  0.00  0.00    +0.000 A 
ATOM      8  C   UNL     1       1.974   6.945  20.015  0.00  0.00    +0.000 A 
ATOM      9 BR   UNL     1       1.236   8.311  21.088  0.00  0.00    +0.000 Br
ATOM     10  C   UNL     1       2.030   5.639  20.495  0.00  0.00    +0.000 A 
ATOM     11  C   UNL     1       2.561   4.637  19.686  0.00  0.00    +0.000 A 
ATOM     12  F   UNL     1       2.592   3.382  20.157  0.00  0.00    +0.000 F 
ENDBRANCH   4   5
ENDBRANCH   1   4
BRANCH   1  13
ATOM     13  C   UNL     1       5.862   4.548  18.035  0.00  0.00    +0.000 C 
BRANCH  13  14
ATOM     14  C   UNL     1       6.680   4.567  16.733  0.00  0.00    +0.000 C 
ATOM     15  O   UNL     1       7.906   4.524  16.722  0.00  0.00    +0.000 OA
ATOM     16  N   UNL     1       5.910   4.686  15.599  0.00  0.00    +0.000 N 
ATOM     17  H   UNL     1       4.903   4.653  15.733  0.00  0.00    +0.000 HD
BRANCH  16  18
ATOM     18  C   UNL     1       6.480   4.794  14.282  0.00  0.00    +0.000 C 
BRANCH  18  19
ATOM     19  C   UNL     1       6.138   3.576  13.483  0.00  0.00    +0.000 C 
ATOM     20  C   UNL     1       5.080   3.632  12.407  0.00  0.00    +0.000 C 
ATOM     21  C   UNL     1       6.525   3.474  12.028  0.00  0.00    +0.000 C 
ENDBRANCH  18  19
ENDBRANCH  16  18
ENDBRANCH  13  14
ENDBRANCH   1  13
TORSDOF 6
ENDMDL
MODEL 4
REMARK VINA RESULT:      -6.5      3.926      6.130
REMARK  Name = 
REMARK  7 active torsions:
REMARK  status: ('A' for Active; 'I' for Inactive)
REMARK    1  A    between atoms: C_1  and  C_2
REMARK    2  A    between atoms: C_2  and  N_3
REMARK    3  A    between atoms: C_2  and  C_12
REMARK    4  A    between atoms: N_3  and  C_4
REMARK    5  A    between atoms: C_4  and  C_5
REMARK    6  A    between atoms: N_7  and  C_8
REMARK    7  A    between atoms: C_8  and  C_9
REMARK                            x       y       z     vdW  Elec       q    Type
REMARK                         _______ _______ _______ _____ _____    ______ ____
ROOT
ATOM      1  N   UNL     1       5.490   6.541  17.588  0.00  0.00    +0.000 NA
ATOM      2  H   UNL     1       4.974   7.424  17.544  0.00  0.00    +0.000 HD
ENDROOT
BRANCH   1   4
ATOM      3  C   UNL     1       5.457   4.519  16.085  0.00  0.00    +0.000 C 
ATOM      4  C   UNL     1       4.657   5.524  16.926  0.00  0.00    +0.000 C 
BRANCH   4   5
ATOM      5  C   UNL     1       3.885   4.788  18.008  0.00  0.00    +0.000 A 
ATOM      6  C   UNL     1       4.473   3.725  18.720  0.00  0.00    +0.000 A 
ATOM      7  C   UNL     1       3.784   3.088  19.750  0.00  0.00    +0.000 A 
ATOM      8  C   UNL     1       2.497   3.507  20.083  0.00  0.00    +0.000 A 
ATOM      9 BR   UNL     1       1.575   2.658  21.495  0.00  0.00    +0.000 Br
ATOM     10  C   UNL     1       1.892   4.549  19.387  0.00  0.00    +0.000 A 
ATOM     11  C   UNL     1       2.589   5.180  18.359  0.00  0.00    +0.000 A 
ATOM     12  F   UNL     1       1.998   6.194  17.711  0.00  0.00    +0.000 F 
ENDBRANCH   4   5
ENDBRANCH   1   4
BRANCH   1  13
ATOM     13  C   UNL     1       6.797   6.769  16.942  0.00  0.00    +0.000 C 
BRANCH  13  14
ATOM     14  C   UNL     1       7.768   7.392  17.959  0.00  0.00    +0.000 C 
ATOM     15  O   UNL     1       8.267   6.748  18.877  0.00  0.00    +0.000 OA
ATOM     16  N   UNL     1       7.977   8.739  17.770  0.00  0.00    +0.000 N 
ATOM     17  H   UNL     1       7.554   9.148  16.941  0.00  0.00    +0.000 HD
BRANCH  16  18
ATOM     18  C   UNL     1       8.793   9.529  18.653  0.00  0.00    +0.000 C 
BRANCH  18  19
ATOM     19  C   UNL     1       9.065  10.862  18.031  0.00  0.00    +0.000 C 
ATOM     20  C   UNL     1       9.295  12.082  18.892  0.00  0.00    +0.000 C 
ATOM     21  C   UNL     1      10.436  11.489  18.114  0.00  0.00    +0.000 C 
ENDBRANCH  18  19
ENDBRANCH  16  18
ENDBRANCH  13  14
ENDBRANCH   1  13
TORSDOF 6
ENDMDL
MODEL 5
REMARK VINA RESULT:      -6.4      3.870      6.649
REMARK  Name = 
REMARK  7 active torsions:
REMARK  status: ('A' for Active; 'I' for Inactive)
REMARK    1  A    between atoms: C_1  and  C_2
REMARK    2  A    between atoms: C_2  and  N_3
REMARK    3  A    between atoms: C_2  and  C_12
REMARK    4  A    between atoms: N_3  and  C_4
REMARK    5  A    between atoms: C_4  and  C_5
REMARK    6  A    between atoms: N_7  and  C_8
REMARK    7  A    between atoms: C_8  and  C_9
REMARK                            x       y       z     vdW  Elec       q    Type
REMARK                         _______ _______ _______ _____ _____    ______ ____
ROOT
ATOM      1  N   UNL     1       6.323   4.420  18.443  0.00  0.00    +0.000 NA
ATOM      2  H   UNL     1       6.034   3.605  17.895  0.00  0.00    +0.000 HD
ENDROOT
BRANCH   1   4
ATOM      3  C   UNL     1       7.474   6.541  17.721  0.00  0.00    +0.000 C 
ATOM      4  C   UNL     1       6.292   5.579  17.537  0.00  0.00    +0.000 C 
BRANCH   4   5
ATOM      5  C   UNL     1       6.278   5.048  16.113  0.00  0.00    +0.000 A 
ATOM      6  C   UNL     1       7.405   5.185  15.280  0.00  0.00    +0.000 A 
ATOM      7  C   UNL     1       7.412   4.649  13.995  0.00  0.00    +0.000 A 
ATOM      8  C   UNL     1       6.290   3.966  13.525  0.00  0.00    +0.000 A 
ATOM      9 BR   UNL     1       6.311   3.219  11.791  0.00  0.00    +0.000 Br
ATOM     10  C   UNL     1       5.162   3.826  14.327  0.00  0.00    +0.000 A 
ATOM     11  C   UNL     1       5.166   4.366  15.611  0.00  0.00    +0.000 A 
ATOM     12  F   UNL     1       4.077   4.207  16.377  0.00  0.00    +0.000 F 
ENDBRANCH   4   5
ENDBRANCH   1   4
BRANCH   1  13
ATOM     13  C   UNL     1       5.400   4.521  19.590  0.00  0.00    +0.000 C 
BRANCH  13  14
ATOM     14  C   UNL     1       4.520   3.260  19.650  0.00  0.00    +0.000 C 
ATOM     15  O   UNL     1       4.913   2.203  20.134  0.00  0.00    +0.000 OA
ATOM     16  N   UNL     1       3.284   3.421  19.068  0.00  0.00    +0.000 N 
ATOM     17  H   UNL     1       3.053   4.360  18.755  0.00  0.00    +0.000 HD
BRANCH  16  18
ATOM     18  C   UNL     1       2.335   2.346  18.954  0.00  0.00    +0.000 C 
BRANCH  18  19
ATOM     19  C   UNL     1       1.133   2.642  19.793  0.00  0.00    +0.000 C 
ATOM     20  C   UNL     1       1.248   2.746  21.295  0.00  0.00    +0.000 C 
ATOM     21  C   UNL     1       0.978   3.978  20.478  0.00  0.00    +0.000 C 
ENDBRANCH  18  19
ENDBRANCH  16  18
ENDBRANCH  13  14
ENDBRANCH   1  13
TORSDOF 6
ENDMDL
MODEL 6
REMARK VINA RESULT:      -6.4      0.988      1.014
REMARK  Name = 
REMARK  7 active torsions:
REMARK  status: ('A' for Active; 'I' for Inactive)
REMARK    1  A    between atoms: C_1  and  C_2
REMARK    2  A    between atoms: C_2  and  N_3
REMARK    3  A    between atoms: C_2  and  C_12
REMARK    4  A    between atoms: N_3  and  C_4
REMARK    5  A    between atoms: C_4  and  C_5
REMARK    6  A    between atoms: N_7  and  C_8
REMARK    7  A    between atoms: C_8  and  C_9
REMARK                            x       y       z     vdW  Elec       q    Type
REMARK                         _______ _______ _______ _____ _____    ______ ____
ROOT
ATOM      1  N   UNL     1       6.228   4.373  16.165  0.00  0.00    +0.000 NA
ATOM      2  H   UNL     1       6.543   3.577  16.725  0.00  0.00    +0.000 HD
ENDROOT
BRANCH   1   4
ATOM      3  C   UNL     1       5.165   6.642  16.432  0.00  0.00    +0.000 C 
ATOM      4  C   UNL     1       5.582   5.319  17.090  0.00  0.00    +0.000 C 
BRANCH   4   5
ATOM      5  C   UNL     1       4.361   4.627  17.673  0.00  0.00    +0.000 A 
ATOM      6  C   UNL     1       3.652   3.664  16.930  0.00  0.00    +0.000 A 
ATOM      7  C   UNL     1       2.567   2.990  17.485  0.00  0.00    +0.000 A 
ATOM      8  C   UNL     1       2.175   3.271  18.794  0.00  0.00    +0.000 A 
ATOM      9 BR   UNL     1       0.719   2.339  19.552  0.00  0.00    +0.000 Br
ATOM     10  C   UNL     1       2.855   4.226  19.544  0.00  0.00    +0.000 A 
ATOM     11  C   UNL     1       3.939   4.893  18.980  0.00  0.00    +0.000 A 
ATOM     12  F   UNL     1       4.594   5.797  19.723  0.00  0.00    +0.000 F 
ENDBRANCH   4   5
ENDBRANCH   1   4
BRANCH   1  13
ATOM     13  C   UNL     1       7.415   4.915  15.474  0.00  0.00    +0.000 C 
BRANCH  13  14
ATOM     14  C   UNL     1       7.267   4.697  13.959  0.00  0.00    +0.000 C 
ATOM     15  O   UNL     1       7.842   5.397  13.131  0.00  0.00    +0.000 OA
ATOM     16  N   UNL     1       6.396   3.684  13.629  0.00  0.00    +0.000 N 
ATOM     17  H   UNL     1       6.027   3.138  14.402  0.00  0.00    +0.000 HD
BRANCH  16  18
ATOM     18  C   UNL     1       6.060   3.363  12.267  0.00  0.00    +0.000 C 
BRANCH  18  19
ATOM     19  C   UNL     1       4.582   3.479  12.072  0.00  0.00    +0.000 C 
ATOM     20  C   UNL     1       4.016   4.075  10.805  0.00  0.00    +0.000 C 
ATOM     21  C   UNL     1       3.863   2.604  11.073  0.00  0.00    +0.000 C 
ENDBRANCH  18  19
ENDBRANCH  16  18
ENDBRANCH  13  14
ENDBRANCH   1  13
TORSDOF 6
ENDMDL
MODEL 7
REMARK VINA RESULT:      -6.4      2.290      3.053
REMARK  Name = 
REMARK  7 active torsions:
REMARK  status: ('A' for Active; 'I' for Inactive)
REMARK    1  A    between atoms: C_1  and  C_2
REMARK    2  A    between atoms: C_2  and  N_3
REMARK    3  A    between atoms: C_2  and  C_12
REMARK    4  A    between atoms: N_3  and  C_4
REMARK    5  A    between atoms: C_4  and  C_5
REMARK    6  A    between atoms: N_7  and  C_8
REMARK    7  A    between atoms: C_8  and  C_9
REMARK                            x       y       z     vdW  Elec       q    Type
REMARK                         _______ _______ _______ _____ _____    ______ ____
ROOT
ATOM      1  N   UNL     1       5.757   3.986  18.242  0.00  0.00    +0.000 NA
ATOM      2  H   UNL     1       5.472   3.834  19.214  0.00  0.00    +0.000 HD
ENDROOT
BRANCH   1   4
ATOM      3  C   UNL     1       3.719   3.025  17.116  0.00  0.00    +0.000 C 
ATOM      4  C   UNL     1       4.533   4.275  17.477  0.00  0.00    +0.000 C 
BRANCH   4   5
ATOM      5  C   UNL     1       3.683   5.219  18.311  0.00  0.00    +0.000 A 
ATOM      6  C   UNL     1       3.113   4.796  19.527  0.00  0.00    +0.000 A 
ATOM      7  C   UNL     1       2.381   5.678  20.317  0.00  0.00    +0.000 A 
ATOM      8  C   UNL     1       2.209   6.998  19.902  0.00  0.00    +0.000 A 
ATOM      9 BR   UNL     1       1.236   8.198  20.988  0.00  0.00    +0.000 Br
ATOM     10  C   UNL     1       2.755   7.437  18.700  0.00  0.00    +0.000 A 
ATOM     11  C   UNL     1       3.486   6.546  17.917  0.00  0.00    +0.000 A 
ATOM     12  F   UNL     1       4.020   6.990  16.770  0.00  0.00    +0.000 F 
ENDBRANCH   4   5
ENDBRANCH   1   4
BRANCH   1  13
ATOM     13  C   UNL     1       6.743   5.084  18.247  0.00  0.00    +0.000 C 
BRANCH  13  14
ATOM     14  C   UNL     1       7.047   5.503  16.799  0.00  0.00    +0.000 C 
ATOM     15  O   UNL     1       7.447   6.626  16.505  0.00  0.00    +0.000 OA
ATOM     16  N   UNL     1       6.780   4.522  15.872  0.00  0.00    +0.000 N 
ATOM     17  H   UNL     1       6.509   3.615  16.243  0.00  0.00    +0.000 HD
BRANCH  16  18
ATOM     18  C   UNL     1       6.927   4.731  14.456  0.00  0.00    +0.000 C 
BRANCH  18  19
ATOM     19  C   UNL     1       6.274   3.611  13.710  0.00  0.00    +0.000 C 
ATOM     20  C   UNL     1       5.133   3.880  12.759  0.00  0.00    +0.000 C 
ATOM     21  C   UNL     1       6.471   3.456  12.222  0.00  0.00    +0.000 C 
ENDBRANCH  18  19
ENDBRANCH  16  18
ENDBRANCH  13  14
ENDBRANCH   1  13
TORSDOF 6
ENDMDL
MODEL 8
REMARK VINA RESULT:      -6.3      1.988      2.501
REMARK  Name = 
REMARK  7 active torsions:
REMARK  status: ('A' for Active; 'I' for Inactive)
REMARK    1  A    between atoms: C_1  and  C_2
REMARK    2  A    between atoms: C_2  and  N_3
REMARK    3  A    between atoms: C_2  and  C_12
REMARK    4  A    between atoms: N_3  and  C_4
REMARK    5  A    between atoms: C_4  and  C_5
REMARK    6  A    between atoms: N_7  and  C_8
REMARK    7  A    between atoms: C_8  and  C_9
REMARK                            x       y       z     vdW  Elec       q    Type
REMARK                         _______ _______ _______ _____ _____    ______ ____
ROOT
ATOM      1  N   UNL     1       4.675   6.823  16.667  0.00  0.00    +0.000 NA
ATOM      2  H   UNL     1       4.351   5.917  16.319  0.00  0.00    +0.000 HD
ENDROOT
BRANCH   1   4
ATOM      3  C   UNL     1       2.877   8.323  17.593  0.00  0.00    +0.000 C 
ATOM      4  C   UNL     1       3.845   7.157  17.835  0.00  0.00    +0.000 C 
BRANCH   4   5
ATOM      5  C   UNL     1       3.063   5.910  18.213  0.00  0.00    +0.000 A 
ATOM      6  C   UNL     1       3.035   4.789  17.361  0.00  0.00    +0.000 A 
ATOM      7  C   UNL     1       2.364   3.626  17.733  0.00  0.00    +0.000 A 
ATOM      8  C   UNL     1       1.712   3.569  18.964  0.00  0.00    +0.000 A 
ATOM      9 BR   UNL     1       0.824   1.983  19.477  0.00  0.00    +0.000 Br
ATOM     10  C   UNL     1       1.718   4.668  19.818  0.00  0.00    +0.000 A 
ATOM     11  C   UNL     1       2.392   5.825  19.437  0.00  0.00    +0.000 A 
ATOM     12  F   UNL     1       2.403   6.868  20.279  0.00  0.00    +0.000 F 
ENDBRANCH   4   5
ENDBRANCH   1   4
BRANCH   1  13
ATOM     13  C   UNL     1       6.114   6.682  16.965  0.00  0.00    +0.000 C 
BRANCH  13  14
ATOM     14  C   UNL     1       6.638   5.374  16.348  0.00  0.00    +0.000 C 
ATOM     15  O   UNL     1       7.637   4.799  16.769  0.00  0.00    +0.000 OA
ATOM     16  N   UNL     1       5.912   4.947  15.260  0.00  0.00    +0.000 N 
ATOM     17  H   UNL     1       5.072   5.476  15.044  0.00  0.00    +0.000 HD
BRANCH  16  18
ATOM     18  C   UNL     1       6.275   3.785  14.494  0.00  0.00    +0.000 C 
BRANCH  18  19
ATOM     19  C   UNL     1       6.148   4.083  13.033  0.00  0.00    +0.000 C 
ATOM     20  C   UNL     1       6.522   3.049  11.999  0.00  0.00    +0.000 C 
ATOM     21  C   UNL     1       5.080   3.420  12.198  0.00  0.00    +0.000 C 
ENDBRANCH  18  19
ENDBRANCH  16  18
ENDBRANCH  13  14
ENDBRANCH   1  13
TORSDOF 6
ENDMDL
MODEL 9
REMARK VINA RESULT:      -6.3      4.293      6.827
REMARK  Name = 
REMARK  7 active torsions:
REMARK  status: ('A' for Active; 'I' for Inactive)
REMARK    1  A    between atoms: C_1  and  C_2
REMARK    2  A    between atoms: C_2  and  N_3
REMARK    3  A    between atoms: C_2  and  C_12
REMARK    4  A    between atoms: N_3  and  C_4
REMARK    5  A    between atoms: C_4  and  C_5
REMARK    6  A    between atoms: N_7  and  C_8
REMARK    7  A    between atoms: C_8  and  C_9
REMARK                            x       y       z     vdW  Elec       q    Type
REMARK                         _______ _______ _______ _____ _____    ______ ____
ROOT
ATOM      1  N   UNL     1       4.855   4.412  17.957  0.00  0.00    +0.000 NA
ATOM      2  H   UNL     1       4.866   3.874  18.828  0.00  0.00    +0.000 HD
ENDROOT
BRANCH   1   4
ATOM      3  C   UNL     1       6.322   4.102  15.933  0.00  0.00    +0.000 C 
ATOM      4  C   UNL     1       6.231   4.410  17.434  0.00  0.00    +0.000 C 
BRANCH   4   5
ATOM      5  C   UNL     1       6.831   5.778  17.716  0.00  0.00    +0.000 A 
ATOM      6  C   UNL     1       7.833   5.940  18.691  0.00  0.00    +0.000 A 
ATOM      7  C   UNL     1       8.421   7.184  18.909  0.00  0.00    +0.000 A 
ATOM      8  C   UNL     1       8.015   8.283  18.154  0.00  0.00    +0.000 A 
ATOM      9 BR   UNL     1       8.831   9.962  18.435  0.00  0.00    +0.000 Br
ATOM     10  C   UNL     1       7.019   8.148  17.191  0.00  0.00    +0.000 A 
ATOM     11  C   UNL     1       6.438   6.900  16.980  0.00  0.00    +0.000 A 
ATOM     12  F   UNL     1       5.492   6.784  16.036  0.00  0.00    +0.000 F 
ENDBRANCH   4   5
ENDBRANCH   1   4
BRANCH   1  13
ATOM     13  C   UNL     1       3.866   3.775  17.067  0.00  0.00    +0.000 C 
BRANCH  13  14
ATOM     14  C   UNL     1       2.990   2.810  17.884  0.00  0.00    +0.000 C 
ATOM     15  O   UNL     1       3.232   1.610  17.970  0.00  0.00    +0.000 OA
ATOM     16  N   UNL     1       1.894   3.411  18.458  0.00  0.00    +0.000 N 
ATOM     17  H   UNL     1       1.834   4.421  18.364  0.00  0.00    +0.000 HD
BRANCH  16  18
ATOM     18  C   UNL     1       0.908   2.675  19.204  0.00  0.00    +0.000 C 
BRANCH  18  19
ATOM     19  C   UNL     1       0.827   3.211  20.599  0.00  0.00    +0.000 C 
ATOM     20  C   UNL     1       1.640   2.593  21.711  0.00  0.00    +0.000 C 
ATOM     21  C   UNL     1       1.984   3.965  21.206  0.00  0.00    +0.000 C 
ENDBRANCH  18  19
ENDBRANCH  16  18
ENDBRANCH  13  14
ENDBRANCH   1  13
TORSDOF 6
ENDMDL
