MODEL 1
REMARK VINA RESULT:      -7.8      0.000      0.000
REMARK  Name = 
REMARK  8 active torsions:
REMARK  status: ('A' for Active; 'I' for Inactive)
REMARK    1  A    between atoms: C_1  and  C_2
REMARK    2  A    between atoms: C_2  and  C_3
REMARK    3  A    between atoms: C_2  and  N_4
REMARK    4  A    between atoms: C_8  and  C_9
REMARK    5  A    between atoms: C_9  and  N_10
REMARK    6  A    between atoms: N_10  and  C_11
REMARK    7  A    between atoms: C_11  and  C_12
REMARK    8  A    between atoms: C_11  and  C_17
REMARK                            x       y       z     vdW  Elec       q    Type
REMARK                         _______ _______ _______ _____ _____    ______ ____
ROOT
ATOM      1  N   UNL     1       6.248   3.808  16.339  0.00  0.00    +0.000 NA
ATOM      2  H   UNL     1       7.153   4.260  16.183  0.00  0.00    +0.000 HD
ENDROOT
BRANCH   1   3
ATOM      3  C   UNL     1       5.525   4.031  15.077  0.00  0.00    +0.000 C 
BRANCH   3   8
ATOM      4  N   UNL     1       6.397   3.757  12.665  0.00  0.00    +0.000 N 
ATOM      5  C   UNL     1       7.393   4.338  11.922  0.00  0.00    +0.000 A 
ATOM      6  C   UNL     1       7.974   5.270  12.739  0.00  0.00    +0.000 A 
ATOM      7  N   UNL     1       7.387   5.258  13.970  0.00  0.00    +0.000 NA
ATOM      8  C   UNL     1       6.424   4.351  13.917  0.00  0.00    +0.000 A 
BRANCH   4  10
ATOM      9  C   UNL     1       4.305   3.354  11.398  0.00  0.00    +0.000 C 
ATOM     10  C   UNL     1       5.485   2.734  12.156  0.00  0.00    +0.000 C 
ATOM     11  C   UNL     1       6.192   1.709  11.264  0.00  0.00    +0.000 C 
ENDBRANCH   4  10
ENDBRANCH   3   8
ENDBRANCH   1   3
BRANCH   1  12
ATOM     12  C   UNL     1       5.690   4.392  17.585  0.00  0.00    +0.000 C 
BRANCH  12  13
ATOM     13  C   UNL     1       6.334   5.722  18.073  0.00  0.00    +0.000 C 
ATOM     14  C   UNL     1       7.672   5.643  18.800  0.00  0.00    +0.000 C 
ATOM     15  C   UNL     1       8.215   7.063  18.779  0.00  0.00    +0.000 C 
ATOM     16  C   UNL     1       7.612   7.726  17.545  0.00  0.00    +0.000 C 
ATOM     17  C   UNL     1       6.578   6.758  16.977  0.00  0.00    +0.000 C 
ENDBRANCH  12  13
BRANCH  12  18
ATOM     18  C   UNL     1       4.157   4.609  17.322  0.00  0.00    +0.000 C 
ATOM     19  C   UNL     1       3.255   3.425  17.706  0.00  0.00    +0.000 C 
ATOM     20  C   UNL     1       1.848   4.011  17.715  0.00  0.00    +0.000 C 
ATOM     21  C   UNL     1       2.011   5.484  18.076  0.00  0.00    +0.000 C 
ATOM     22  C   UNL     1       3.515   5.744  18.135  0.00  0.00    +0.000 C 
ENDBRANCH  12  18
ENDBRANCH   1  12
TORSDOF 6
ENDMDL
MODEL 2
REMARK VINA RESULT:      -7.7      1.986      5.949
REMARK  Name = 
REMARK  8 active torsions:
REMARK  status: ('A' for Active; 'I' for Inactive)
REMARK    1  A    between atoms: C_1  and  C_2
REMARK    2  A    between atoms: C_2  and  C_3
REMARK    3  A    between atoms: C_2  and  N_4
REMARK    4  A    between atoms: C_8  and  C_9
REMARK    5  A    between atoms: C_9  and  N_10
REMARK    6  A    between atoms: N_10  and  C_11
REMARK    7  A    between atoms: C_11  and  C_12
REMARK    8  A    between atoms: C_11  and  C_17
REMARK                            x       y       z     vdW  Elec       q    Type
REMARK                         _______ _______ _______ _____ _____    ______ ____
ROOT
ATOM      1  N   UNL     1       5.084   3.681  16.901  0.00  0.00    +0.000 NA
ATOM      2  H   UNL     1       5.255   2.804  16.401  0.00  0.00    +0.000 HD
ENDROOT
BRANCH   1   3
ATOM      3  C   UNL     1       3.622   3.709  17.063  0.00  0.00    +0.000 C 
BRANCH   3   8
ATOM      4  N   UNL     1       2.417   4.219  19.285  0.00  0.00    +0.000 N 
ATOM      5  C   UNL     1       2.200   5.348  20.035  0.00  0.00    +0.000 A 
ATOM      6  C   UNL     1       2.826   6.366  19.366  0.00  0.00    +0.000 A 
ATOM      7  N   UNL     1       3.392   5.904  18.214  0.00  0.00    +0.000 NA
ATOM      8  C   UNL     1       3.155   4.602  18.177  0.00  0.00    +0.000 A 
BRANCH   4  10
ATOM      9  C   UNL     1       1.595   2.812  21.153  0.00  0.00    +0.000 C 
ATOM     10  C   UNL     1       1.960   2.883  19.666  0.00  0.00    +0.000 C 
ATOM     11  C   UNL     1       0.777   2.404  18.819  0.00  0.00    +0.000 C 
ENDBRANCH   4  10
ENDBRANCH   3   8
ENDBRANCH   1   3
BRANCH   1  12
ATOM     12  C   UNL     1       5.727   4.757  16.106  0.00  0.00    +0.000 C 
BRANCH  12  13
ATOM     13  C   UNL     1       6.884   5.533  16.802  0.00  0.00    +0.000 C 
ATOM     14  C   UNL     1       6.714   7.034  17.007  0.00  0.00    +0.000 C 
ATOM     15  C   UNL     1       7.771   7.411  18.033  0.00  0.00    +0.000 C 
ATOM     16  C   UNL     1       8.021   6.156  18.862  0.00  0.00    +0.000 C 
ATOM     17  C   UNL     1       7.259   5.017  18.189  0.00  0.00    +0.000 C 
ENDBRANCH  12  13
BRANCH  12  18
ATOM     18  C   UNL     1       6.256   4.079  14.793  0.00  0.00    +0.000 C 
ATOM     19  C   UNL     1       5.179   3.756  13.745  0.00  0.00    +0.000 C 
ATOM     20  C   UNL     1       5.966   3.475  12.470  0.00  0.00    +0.000 C 
ATOM     21  C   UNL     1       7.241   4.305  12.575  0.00  0.00    +0.000 C 
ATOM     22  C   UNL     1       7.224   4.939  13.964  0.00  0.00    +0.000 C 
ENDBRANCH  12  18
ENDBRANCH   1  12
TORSDOF 6
ENDMDL
MODEL 3
REMARK VINA RESULT:      -7.5      2.192      5.632
REMARK  Name = 
REMARK  8 active torsions:
REMARK  status: ('A' for Active; 'I' for Inactive)
REMARK    1  A    between atoms: C_1  and  C_2
REMARK    2  A    between atoms: C_2  and  C_3
REMARK    3  A    between atoms: C_2  and  N_4
REMARK    4  A    between atoms: C_8  and  C_9
REMARK    5  A    between atoms: C_9  and  N_10
REMARK    6  A    between atoms: N_10  and  C_11
REMARK    7  A    between atoms: C_11  and  C_12
REMARK    8  A    between atoms: C_11  and  C_17
REMARK                            x       y       z     vdW  Elec       q    Type
REMARK                         _______ _______ _______ _____ _____    ______ ____
ROOT
ATOM      1  N   UNL     1       6.241   3.928  18.401  0.00  0.00    +0.000 NA
ATOM      2  H   UNL     1       6.271   3.036  17.899  0.00  0.00    +0.000 HD
ENDROOT
BRANCH   1   3
ATOM      3  C   UNL     1       5.137   3.751  19.358  0.00  0.00    +0.000 C 
BRANCH   3   8
ATOM      4  N   UNL     1       2.832   4.722  18.728  0.00  0.00    +0.000 N 
ATOM      5  C   UNL     1       1.742   4.260  18.033  0.00  0.00    +0.000 A 
ATOM      6  C   UNL     1       2.074   3.002  17.610  0.00  0.00    +0.000 A 
ATOM      7  N   UNL     1       3.321   2.663  18.049  0.00  0.00    +0.000 NA
ATOM      8  C   UNL     1       3.782   3.712  18.713  0.00  0.00    +0.000 A 
BRANCH   4  10
ATOM      9  C   UNL     1       2.903   7.151  18.239  0.00  0.00    +0.000 C 
ATOM     10  C   UNL     1       2.925   6.058  19.314  0.00  0.00    +0.000 C 
ATOM     11  C   UNL     1       1.823   6.323  20.345  0.00  0.00    +0.000 C 
ENDBRANCH   4  10
ENDBRANCH   3   8
ENDBRANCH   1   3
BRANCH   1  12
ATOM     12  C   UNL     1       6.121   4.992  17.373  0.00  0.00    +0.000 C 
BRANCH  12  13
ATOM     13  C   UNL     1       7.167   6.143  17.444  0.00  0.00    +0.000 C 
ATOM     14  C   UNL     1       6.688   7.562  17.156  0.00  0.00    +0.000 C 
ATOM     15  C   UNL     1       7.790   8.463  17.688  0.00  0.00    +0.000 C 
ATOM     16  C   UNL     1       8.470   7.682  18.806  0.00  0.00    +0.000 C 
ATOM     17  C   UNL     1       7.892   6.270  18.781  0.00  0.00    +0.000 C 
ENDBRANCH  12  13
BRANCH  12  18
ATOM     18  C   UNL     1       6.216   4.272  15.980  0.00  0.00    +0.000 C 
ATOM     19  C   UNL     1       4.951   4.361  15.113  0.00  0.00    +0.000 C 
ATOM     20  C   UNL     1       5.416   3.938  13.724  0.00  0.00    +0.000 C 
ATOM     21  C   UNL     1       6.886   4.333  13.639  0.00  0.00    +0.000 C 
ATOM     22  C   UNL     1       7.270   4.850  15.023  0.00  0.00    +0.000 C 
ENDBRANCH  12  18
ENDBRANCH   1  12
TORSDOF 6
ENDMDL
MODEL 4
REMARK VINA RESULT:      -7.5      0.791      3.528
REMARK  Name = 
REMARK  8 active torsions:
REMARK  status: ('A' for Active; 'I' for Inactive)
REMARK    1  A    between atoms: C_1  and  C_2
REMARK    2  A    between atoms: C_2  and  C_3
REMARK    3  A    between atoms: C_2  and  N_4
REMARK    4  A    between atoms: C_8  and  C_9
REMARK    5  A    between atoms: C_9  and  N_10
REMARK    6  A    between atoms: N_10  and  C_11
REMARK    7  A    between atoms: C_11  and  C_12
REMARK    8  A    between atoms: C_11  and  C_17
REMARK                            x       y       z     vdW  Elec       q    Type
REMARK                         _______ _______ _______ _____ _____    ______ ____
ROOT
ATOM      1  N   UNL     1       5.989   3.990  16.618  0.00  0.00    +0.000 NA
ATOM      2  H   UNL     1       6.887   4.457  16.469  0.00  0.00    +0.000 HD
ENDROOT
BRANCH   1   3
ATOM      3  C   UNL     1       5.652   3.453  15.290  0.00  0.00    +0.000 C 
BRANCH   3   8
ATOM      4  N   UNL     1       6.406   3.700  12.836  0.00  0.00    +0.000 N 
ATOM      5  C   UNL     1       7.308   4.494  12.174  0.00  0.00    +0.000 A 
ATOM      6  C   UNL     1       7.856   5.311  13.125  0.00  0.00    +0.000 A 
ATOM      7  N   UNL     1       7.343   5.023  14.356  0.00  0.00    +0.000 NA
ATOM      8  C   UNL     1       6.455   4.058  14.174  0.00  0.00    +0.000 A 
BRANCH   4  10
ATOM      9  C   UNL     1       4.373   3.367  11.458  0.00  0.00    +0.000 C 
ATOM     10  C   UNL     1       5.553   2.709  12.183  0.00  0.00    +0.000 C 
ATOM     11  C   UNL     1       6.328   1.818  11.208  0.00  0.00    +0.000 C 
ENDBRANCH   4  10
ENDBRANCH   3   8
ENDBRANCH   1   3
BRANCH   1  12
ATOM     12  C   UNL     1       5.081   4.997  17.223  0.00  0.00    +0.000 C 
BRANCH  12  13
ATOM     13  C   UNL     1       4.025   4.458  18.232  0.00  0.00    +0.000 C 
ATOM     14  C   UNL     1       3.819   5.230  19.531  0.00  0.00    +0.000 C 
ATOM     15  C   UNL     1       2.499   4.720  20.085  0.00  0.00    +0.000 C 
ATOM     16  C   UNL     1       1.687   4.256  18.881  0.00  0.00    +0.000 C 
ATOM     17  C   UNL     1       2.613   4.315  17.668  0.00  0.00    +0.000 C 
ENDBRANCH  12  13
BRANCH  12  18
ATOM     18  C   UNL     1       6.003   6.053  17.931  0.00  0.00    +0.000 C 
ATOM     19  C   UNL     1       7.334   5.502  18.465  0.00  0.00    +0.000 C 
ATOM     20  C   UNL     1       8.170   6.745  18.747  0.00  0.00    +0.000 C 
ATOM     21  C   UNL     1       7.688   7.804  17.760  0.00  0.00    +0.000 C 
ATOM     22  C   UNL     1       6.497   7.193  17.026  0.00  0.00    +0.000 C 
ENDBRANCH  12  18
ENDBRANCH   1  12
TORSDOF 6
ENDMDL
MODEL 5
REMARK VINA RESULT:      -7.5      0.737      3.604
REMARK  Name = 
REMARK  8 active torsions:
REMARK  status: ('A' for Active; 'I' for Inactive)
REMARK    1  A    between atoms: C_1  and  C_2
REMARK    2  A    between atoms: C_2  and  C_3
REMARK    3  A    between atoms: C_2  and  N_4
REMARK    4  A    between atoms: C_8  and  C_9
REMARK    5  A    between atoms: C_9  and  N_10
REMARK    6  A    between atoms: N_10  and  C_11
REMARK    7  A    between atoms: C_11  and  C_12
REMARK    8  A    between atoms: C_11  and  C_17
REMARK                            x       y       z     vdW  Elec       q    Type
REMARK                         _______ _______ _______ _____ _____    ______ ____
ROOT
ATOM      1  N   UNL     1       4.937   4.307  15.561  0.00  0.00    +0.000 NA
ATOM      2  H   UNL     1       4.408   3.470  15.820  0.00  0.00    +0.000 HD
ENDROOT
BRANCH   1   3
ATOM      3  C   UNL     1       6.282   3.791  15.264  0.00  0.00    +0.000 C 
BRANCH   3   8
ATOM      4  N   UNL     1       6.646   3.886  12.712  0.00  0.00    +0.000 N 
ATOM      5  C   UNL     1       7.395   4.667  11.867  0.00  0.00    +0.000 A 
ATOM      6  C   UNL     1       8.033   5.576  12.667  0.00  0.00    +0.000 A 
ATOM      7  N   UNL     1       7.726   5.359  13.978  0.00  0.00    +0.000 NA
ATOM      8  C   UNL     1       6.875   4.344  14.000  0.00  0.00    +0.000 A 
BRANCH   4  10
ATOM      9  C   UNL     1       4.480   3.363  11.627  0.00  0.00    +0.000 C 
ATOM     10  C   UNL     1       5.760   2.812  12.265  0.00  0.00    +0.000 C 
ATOM     11  C   UNL     1       6.449   1.849  11.295  0.00  0.00    +0.000 C 
ENDBRANCH   4  10
ENDBRANCH   3   8
ENDBRANCH   1   3
BRANCH   1  12
ATOM     12  C   UNL     1       4.783   5.271  16.680  0.00  0.00    +0.000 C 
BRANCH  12  13
ATOM     13  C   UNL     1       3.807   4.855  17.820  0.00  0.00    +0.000 C 
ATOM     14  C   UNL     1       2.911   5.933  18.421  0.00  0.00    +0.000 C 
ATOM     15  C   UNL     1       1.834   5.171  19.176  0.00  0.00    +0.000 C 
ATOM     16  C   UNL     1       1.703   3.823  18.478  0.00  0.00    +0.000 C 
ATOM     17  C   UNL     1       2.833   3.737  17.456  0.00  0.00    +0.000 C 
ENDBRANCH  12  13
BRANCH  12  18
ATOM     18  C   UNL     1       6.221   5.498  17.268  0.00  0.00    +0.000 C 
ATOM     19  C   UNL     1       6.682   6.963  17.318  0.00  0.00    +0.000 C 
ATOM     20  C   UNL     1       7.893   6.946  18.244  0.00  0.00    +0.000 C 
ATOM     21  C   UNL     1       7.661   5.791  19.212  0.00  0.00    +0.000 C 
ATOM     22  C   UNL     1       6.392   5.085  18.739  0.00  0.00    +0.000 C 
ENDBRANCH  12  18
ENDBRANCH   1  12
TORSDOF 6
ENDMDL
MODEL 6
REMARK VINA RESULT:      -7.5      2.153      6.470
REMARK  Name = 
REMARK  8 active torsions:
REMARK  status: ('A' for Active; 'I' for Inactive)
REMARK    1  A    between atoms: C_1  and  C_2
REMARK    2  A    between atoms: C_2  and  C_3
REMARK    3  A    between atoms: C_2  and  N_4
REMARK    4  A    between atoms: C_8  and  C_9
REMARK    5  A    between atoms: C_9  and  N_10
REMARK    6  A    between atoms: N_10  and  C_11
REMARK    7  A    between atoms: C_11  and  C_12
REMARK    8  A    between atoms: C_11  and  C_17
REMARK                            x       y       z     vdW  Elec       q    Type
REMARK                         _______ _______ _______ _____ _____    ______ ____
ROOT
ATOM      1  N   UNL     1       4.517   5.103  16.494  0.00  0.00    +0.000 NA
ATOM      2  H   UNL     1       4.742   5.914  17.075  0.00  0.00    +0.000 HD
ENDROOT
BRANCH   1   3
ATOM      3  C   UNL     1       3.728   4.242  17.389  0.00  0.00    +0.000 C 
BRANCH   3   8
ATOM      4  N   UNL     1       2.304   4.434  19.530  0.00  0.00    +0.000 N 
ATOM      5  C   UNL     1       1.902   5.468  20.338  0.00  0.00    +0.000 A 
ATOM      6  C   UNL     1       2.456   6.599  19.802  0.00  0.00    +0.000 A 
ATOM      7  N   UNL     1       3.159   6.298  18.673  0.00  0.00    +0.000 NA
ATOM      8  C   UNL     1       3.077   4.984  18.520  0.00  0.00    +0.000 A 
BRANCH   4  10
ATOM      9  C   UNL     1       1.551   2.790  21.225  0.00  0.00    +0.000 C 
ATOM     10  C   UNL     1       1.976   3.030  19.772  0.00  0.00    +0.000 C 
ATOM     11  C   UNL     1       0.892   2.510  18.823  0.00  0.00    +0.000 C 
ENDBRANCH   4  10
ENDBRANCH   3   8
ENDBRANCH   1   3
BRANCH   1  12
ATOM     12  C   UNL     1       5.806   4.584  15.970  0.00  0.00    +0.000 C 
BRANCH  12  13
ATOM     13  C   UNL     1       6.040   4.734  14.439  0.00  0.00    +0.000 C 
ATOM     14  C   UNL     1       7.453   5.048  13.959  0.00  0.00    +0.000 C 
ATOM     15  C   UNL     1       7.442   4.734  12.472  0.00  0.00    +0.000 C 
ATOM     16  C   UNL     1       6.370   3.668  12.275  0.00  0.00    +0.000 C 
ATOM     17  C   UNL     1       5.637   3.519  13.606  0.00  0.00    +0.000 C 
ENDBRANCH  12  13
BRANCH  12  18
ATOM     18  C   UNL     1       6.937   5.337  16.757  0.00  0.00    +0.000 C 
ATOM     19  C   UNL     1       6.659   6.821  17.039  0.00  0.00    +0.000 C 
ATOM     20  C   UNL     1       7.684   7.202  18.100  0.00  0.00    +0.000 C 
ATOM     21  C   UNL     1       7.963   5.926  18.887  0.00  0.00    +0.000 C 
ATOM     22  C   UNL     1       7.198   4.811  18.178  0.00  0.00    +0.000 C 
ENDBRANCH  12  18
ENDBRANCH   1  12
TORSDOF 6
ENDMDL
MODEL 7
REMARK VINA RESULT:      -7.5      2.323      5.057
REMARK  Name = 
REMARK  8 active torsions:
REMARK  status: ('A' for Active; 'I' for Inactive)
REMARK    1  A    between atoms: C_1  and  C_2
REMARK    2  A    between atoms: C_2  and  C_3
REMARK    3  A    between atoms: C_2  and  N_4
REMARK    4  A    between atoms: C_8  and  C_9
REMARK    5  A    between atoms: C_9  and  N_10
REMARK    6  A    between atoms: N_10  and  C_11
REMARK    7  A    between atoms: C_11  and  C_12
REMARK    8  A    between atoms: C_11  and  C_17
REMARK                            x       y       z     vdW  Elec       q    Type
REMARK                         _______ _______ _______ _____ _____    ______ ____
ROOT
ATOM      1  N   UNL     1       3.515   5.222  17.990  0.00  0.00    +0.000 NA
ATOM      2  H   UNL     1       2.687   4.701  17.689  0.00  0.00    +0.000 HD
ENDROOT
BRANCH   1   3
ATOM      3  C   UNL     1       4.589   4.217  17.957  0.00  0.00    +0.000 C 
BRANCH   3   8
ATOM      4  N   UNL     1       6.626   5.419  16.932  0.00  0.00    +0.000 N 
ATOM      5  C   UNL     1       7.325   5.313  15.755  0.00  0.00    +0.000 A 
ATOM      6  C   UNL     1       6.729   4.298  15.058  0.00  0.00    +0.000 A 
ATOM      7  N   UNL     1       5.668   3.797  15.754  0.00  0.00    +0.000 NA
ATOM      8  C   UNL     1       5.619   4.469  16.894  0.00  0.00    +0.000 A 
BRANCH   4  10
ATOM      9  C   UNL     1       7.866   5.708  19.059  0.00  0.00    +0.000 C 
ATOM     10  C   UNL     1       6.963   6.356  18.003  0.00  0.00    +0.000 C 
ATOM     11  C   UNL     1       7.619   7.637  17.477  0.00  0.00    +0.000 C 
ENDBRANCH   4  10
ENDBRANCH   3   8
ENDBRANCH   1   3
BRANCH   1  12
ATOM     12  C   UNL     1       3.173   5.848  19.292  0.00  0.00    +0.000 C 
BRANCH  12  13
ATOM     13  C   UNL     1       2.754   7.347  19.249  0.00  0.00    +0.000 C 
ATOM     14  C   UNL     1       2.182   7.891  17.945  0.00  0.00    +0.000 C 
ATOM     15  C   UNL     1       1.514   9.202  18.327  0.00  0.00    +0.000 C 
ATOM     16  C   UNL     1       1.110   9.059  19.790  0.00  0.00    +0.000 C 
ATOM     17  C   UNL     1       1.720   7.754  20.296  0.00  0.00    +0.000 C 
ENDBRANCH  12  13
BRANCH  12  18
ATOM     18  C   UNL     1       2.011   4.988  19.904  0.00  0.00    +0.000 C 
ATOM     19  C   UNL     1       1.396   3.951  18.952  0.00  0.00    +0.000 C 
ATOM     20  C   UNL     1       0.595   3.030  19.865  0.00  0.00    +0.000 C 
ATOM     21  C   UNL     1       1.306   3.058  21.214  0.00  0.00    +0.000 C 
ATOM     22  C   UNL     1       2.418   4.096  21.088  0.00  0.00    +0.000 C 
ENDBRANCH  12  18
ENDBRANCH   1  12
TORSDOF 6
ENDMDL
MODEL 8
REMARK VINA RESULT:      -7.5      0.523      1.021
REMARK  Name = 
REMARK  8 active torsions:
REMARK  status: ('A' for Active; 'I' for Inactive)
REMARK    1  A    between atoms: C_1  and  C_2
REMARK    2  A    between atoms: C_2  and  C_3
REMARK    3  A    between atoms: C_2  and  N_4
REMARK    4  A    between atoms: C_8  and  C_9
REMARK    5  A    between atoms: C_9  and  N_10
REMARK    6  A    between atoms: N_10  and  C_11
REMARK    7  A    between atoms: C_11  and  C_12
REMARK    8  A    between atoms: C_11  and  C_17
REMARK                            x       y       z     vdW  Elec       q    Type
REMARK                         _______ _______ _______ _____ _____    ______ ____
ROOT
ATOM      1  N   UNL     1       5.822   3.566  16.160  0.00  0.00    +0.000 NA
ATOM      2  H   UNL     1       6.786   3.349  15.895  0.00  0.00    +0.000 HD
ENDROOT
BRANCH   1   3
ATOM      3  C   UNL     1       5.266   4.206  14.957  0.00  0.00    +0.000 C 
BRANCH   3   8
ATOM      4  N   UNL     1       6.322   3.715  12.656  0.00  0.00    +0.000 N 
ATOM      5  C   UNL     1       7.403   4.198  11.961  0.00  0.00    +0.000 A 
ATOM      6  C   UNL     1       7.956   5.165  12.757  0.00  0.00    +0.000 A 
ATOM      7  N   UNL     1       7.269   5.270  13.931  0.00  0.00    +0.000 NA
ATOM      8  C   UNL     1       6.272   4.401  13.859  0.00  0.00    +0.000 A 
BRANCH   4  10
ATOM      9  C   UNL     1       4.248   3.315  11.360  0.00  0.00    +0.000 C 
ATOM     10  C   UNL     1       5.409   2.694  12.144  0.00  0.00    +0.000 C 
ATOM     11  C   UNL     1       6.122   1.652  11.276  0.00  0.00    +0.000 C 
ENDBRANCH   4  10
ENDBRANCH   3   8
ENDBRANCH   1   3
BRANCH   1  12
ATOM     12  C   UNL     1       5.892   4.359  17.413  0.00  0.00    +0.000 C 
BRANCH  12  13
ATOM     13  C   UNL     1       6.954   5.497  17.451  0.00  0.00    +0.000 C 
ATOM     14  C   UNL     1       6.508   6.903  17.065  0.00  0.00    +0.000 C 
ATOM     15  C   UNL     1       7.607   7.819  17.579  0.00  0.00    +0.000 C 
ATOM     16  C   UNL     1       8.238   7.096  18.764  0.00  0.00    +0.000 C 
ATOM     17  C   UNL     1       7.638   5.693  18.802  0.00  0.00    +0.000 C 
ENDBRANCH  12  13
BRANCH  12  18
ATOM     18  C   UNL     1       4.460   4.961  17.636  0.00  0.00    +0.000 C 
ATOM     19  C   UNL     1       3.299   3.972  17.446  0.00  0.00    +0.000 C 
ATOM     20  C   UNL     1       2.099   4.674  18.070  0.00  0.00    +0.000 C 
ATOM     21  C   UNL     1       2.664   5.572  19.166  0.00  0.00    +0.000 C 
ATOM     22  C   UNL     1       4.184   5.469  19.060  0.00  0.00    +0.000 C 
ENDBRANCH  12  18
ENDBRANCH   1  12
TORSDOF 6
ENDMDL
MODEL 9
REMARK VINA RESULT:      -7.4      1.952      6.146
REMARK  Name = 
REMARK  8 active torsions:
REMARK  status: ('A' for Active; 'I' for Inactive)
REMARK    1  A    between atoms: C_1  and  C_2
REMARK    2  A    between atoms: C_2  and  C_3
REMARK    3  A    between atoms: C_2  and  N_4
REMARK    4  A    between atoms: C_8  and  C_9
REMARK    5  A    between atoms: C_9  and  N_10
REMARK    6  A    between atoms: N_10  and  C_11
REMARK    7  A    between atoms: C_11  and  C_12
REMARK    8  A    between atoms: C_11  and  C_17
REMARK                            x       y       z     vdW  Elec       q    Type
REMARK                         _______ _______ _______ _____ _____    ______ ____
ROOT
ATOM      1  N   UNL     1       5.288   3.571  16.515  0.00  0.00    +0.000 NA
ATOM      2  H   UNL     1       5.042   2.922  15.763  0.00  0.00    +0.000 HD
ENDROOT
BRANCH   1   3
ATOM      3  C   UNL     1       4.009   3.811  17.200  0.00  0.00    +0.000 C 
BRANCH   3   8
ATOM      4  N   UNL     1       3.030   3.566  19.574  0.00  0.00    +0.000 N 
ATOM      5  C   UNL     1       3.360   2.837  20.689  0.00  0.00    +0.000 A 
ATOM      6  C   UNL     1       4.456   2.096  20.340  0.00  0.00    +0.000 A 
ATOM      7  N   UNL     1       4.831   2.371  19.057  0.00  0.00    +0.000 NA
ATOM      8  C   UNL     1       3.955   3.250  18.592  0.00  0.00    +0.000 A 
BRANCH   4  10
ATOM      9  C   UNL     1       0.732   3.994  20.397  0.00  0.00    +0.000 C 
ATOM     10  C   UNL     1       1.877   4.462  19.492  0.00  0.00    +0.000 C 
ATOM     11  C   UNL     1       2.238   5.914  19.822  0.00  0.00    +0.000 C 
ENDBRANCH   4  10
ENDBRANCH   3   8
ENDBRANCH   1   3
BRANCH   1  12
ATOM     12  C   UNL     1       5.973   4.723  15.876  0.00  0.00    +0.000 C 
BRANCH  12  13
ATOM     13  C   UNL     1       7.066   5.436  16.726  0.00  0.00    +0.000 C 
ATOM     14  C   UNL     1       6.841   6.898  17.097  0.00  0.00    +0.000 C 
ATOM     15  C   UNL     1       7.827   7.173  18.221  0.00  0.00    +0.000 C 
ATOM     16  C   UNL     1       8.066   5.834  18.909  0.00  0.00    +0.000 C 
ATOM     17  C   UNL     1       7.378   4.767  18.062  0.00  0.00    +0.000 C 
ENDBRANCH  12  13
BRANCH  12  18
ATOM     18  C   UNL     1       6.605   4.179  14.546  0.00  0.00    +0.000 C 
ATOM     19  C   UNL     1       5.595   3.710  13.487  0.00  0.00    +0.000 C 
ATOM     20  C   UNL     1       6.415   3.598  12.207  0.00  0.00    +0.000 C 
ATOM     21  C   UNL     1       7.536   4.625  12.339  0.00  0.00    +0.000 C 
ATOM     22  C   UNL     1       7.416   5.209  13.744  0.00  0.00    +0.000 C 
ENDBRANCH  12  18
ENDBRANCH   1  12
TORSDOF 6
ENDMDL
