MODEL 1
REMARK VINA RESULT:      -8.1      0.000      0.000
REMARK  Name = 
REMARK  7 active torsions:
REMARK  status: ('A' for Active; 'I' for Inactive)
REMARK    1  A    between atoms: C_1  and  C_2
REMARK    2  A    between atoms: C_2  and  C_3
REMARK    3  A    between atoms: C_4  and  C_5
REMARK    4  A    between atoms: C_8  and  N_9
REMARK    5  A    between atoms: C_10  and  C_12
REMARK    6  A    between atoms: C_12  and  C_13
REMARK    7  A    between atoms: C_15  and  C_16
REMARK                            x       y       z     vdW  Elec       q    Type
REMARK                         _______ _______ _______ _____ _____    ______ ____
ROOT
ATOM      1  N   UNL     1       5.500   3.483  18.467  0.00  0.00    +0.000 N 
ATOM      2  C   UNL     1       6.226   4.663  18.489  0.00  0.00    +0.000 C 
ATOM      3  O   UNL     1       5.968   5.647  19.181  0.00  0.00    +0.000 OA
ATOM      4  H   UNL     1       5.862   2.665  17.998  0.00  0.00    +0.000 HD
ENDROOT
BRANCH   1  10
ATOM      5  C   UNL     1       3.073   3.883  18.983  0.00  0.00    +0.000 A 
ATOM      6  C   UNL     1       2.317   3.374  20.081  0.00  0.00    +0.000 A 
ATOM      7  C   UNL     1       0.886   3.572  20.414  0.00  0.00    +0.000 C 
ATOM      8  N   UNL     1       3.061   2.596  20.873  0.00  0.00    +0.000 NA
ATOM      9  O   UNL     1       4.314   2.569  20.299  0.00  0.00    +0.000 OA
ATOM     10  C   UNL     1       4.329   3.343  19.181  0.00  0.00    +0.000 A 
BRANCH   5  12
ATOM     11  C   UNL     1       2.583   6.211  18.170  0.00  0.00    +0.000 C 
ATOM     12  C   UNL     1       2.580   4.723  17.857  0.00  0.00    +0.000 C 
ENDBRANCH   5  12
ENDBRANCH   1  10
BRANCH   2  13
ATOM     13  C   UNL     1       7.467   4.635  17.612  0.00  0.00    +0.000 C 
BRANCH  13  14
ATOM     14  C   UNL     1       7.072   4.564  16.186  0.00  0.00    +0.000 A 
ATOM     15  C   UNL     1       6.244   3.748  15.455  0.00  0.00    +0.000 A 
ATOM     16  C   UNL     1       6.362   4.219  14.132  0.00  0.00    +0.000 A 
ATOM     17  C   UNL     1       5.735   3.679  12.904  0.00  0.00    +0.000 C 
ATOM     18  N   UNL     1       7.181   5.274  14.064  0.00  0.00    +0.000 NA
ATOM     19  O   UNL     1       7.625   5.490  15.356  0.00  0.00    +0.000 OA
ENDBRANCH  13  14
ENDBRANCH   2  13
TORSDOF 4
ENDMDL
MODEL 2
REMARK VINA RESULT:      -7.7      1.562      1.881
REMARK  Name = 
REMARK  7 active torsions:
REMARK  status: ('A' for Active; 'I' for Inactive)
REMARK    1  A    between atoms: C_1  and  C_2
REMARK    2  A    between atoms: C_2  and  C_3
REMARK    3  A    between atoms: C_4  and  C_5
REMARK    4  A    between atoms: C_8  and  N_9
REMARK    5  A    between atoms: C_10  and  C_12
REMARK    6  A    between atoms: C_12  and  C_13
REMARK    7  A    between atoms: C_15  and  C_16
REMARK                            x       y       z     vdW  Elec       q    Type
REMARK                         _______ _______ _______ _____ _____    ______ ____
ROOT
ATOM      1  N   UNL     1       4.310   5.828  18.257  0.00  0.00    +0.000 N 
ATOM      2  C   UNL     1       5.605   5.338  18.320  0.00  0.00    +0.000 C 
ATOM      3  O   UNL     1       5.961   4.342  18.950  0.00  0.00    +0.000 OA
ATOM      4  H   UNL     1       4.066   6.551  17.595  0.00  0.00    +0.000 HD
ENDROOT
BRANCH   1  10
ATOM      5  C   UNL     1       2.490   4.169  18.756  0.00  0.00    +0.000 A 
ATOM      6  C   UNL     1       1.617   4.141  19.884  0.00  0.00    +0.000 A 
ATOM      7  C   UNL     1       0.544   3.176  20.224  0.00  0.00    +0.000 C 
ATOM      8  N   UNL     1       1.872   5.145  20.729  0.00  0.00    +0.000 NA
ATOM      9  O   UNL     1       2.927   5.839  20.175  0.00  0.00    +0.000 OA
ATOM     10  C   UNL     1       3.290   5.269  18.996  0.00  0.00    +0.000 A 
BRANCH   5  12
ATOM     11  C   UNL     1       3.420   1.973  17.961  0.00  0.00    +0.000 C 
ATOM     12  C   UNL     1       2.559   3.184  17.641  0.00  0.00    +0.000 C 
ENDBRANCH   5  12
ENDBRANCH   1  10
BRANCH   2  13
ATOM     13  C   UNL     1       6.594   6.108  17.460  0.00  0.00    +0.000 C 
BRANCH  13  14
ATOM     14  C   UNL     1       6.650   5.515  16.104  0.00  0.00    +0.000 A 
ATOM     15  C   UNL     1       5.848   4.653  15.396  0.00  0.00    +0.000 A 
ATOM     16  C   UNL     1       6.518   4.475  14.169  0.00  0.00    +0.000 A 
ATOM     17  C   UNL     1       6.143   3.602  13.034  0.00  0.00    +0.000 C 
ATOM     18  N   UNL     1       7.637   5.206  14.118  0.00  0.00    +0.000 NA
ATOM     19  O   UNL     1       7.717   5.859  15.334  0.00  0.00    +0.000 OA
ENDBRANCH  13  14
ENDBRANCH   2  13
TORSDOF 4
ENDMDL
MODEL 3
REMARK VINA RESULT:      -7.6      1.086      1.147
REMARK  Name = 
REMARK  7 active torsions:
REMARK  status: ('A' for Active; 'I' for Inactive)
REMARK    1  A    between atoms: C_1  and  C_2
REMARK    2  A    between atoms: C_2  and  C_3
REMARK    3  A    between atoms: C_4  and  C_5
REMARK    4  A    between atoms: C_8  and  N_9
REMARK    5  A    between atoms: C_10  and  C_12
REMARK    6  A    between atoms: C_12  and  C_13
REMARK    7  A    between atoms: C_15  and  C_16
REMARK                            x       y       z     vdW  Elec       q    Type
REMARK                         _______ _______ _______ _____ _____    ______ ____
ROOT
ATOM      1  N   UNL     1       5.588   4.021  18.474  0.00  0.00    +0.000 N 
ATOM      2  C   UNL     1       6.534   4.956  18.862  0.00  0.00    +0.000 C 
ATOM      3  O   UNL     1       6.711   5.357  20.012  0.00  0.00    +0.000 OA
ATOM      4  H   UNL     1       5.609   3.624  17.545  0.00  0.00    +0.000 HD
ENDROOT
BRANCH   1  10
ATOM      5  C   UNL     1       3.363   3.870  19.632  0.00  0.00    +0.000 A 
ATOM      6  C   UNL     1       2.979   2.975  20.675  0.00  0.00    +0.000 A 
ATOM      7  C   UNL     1       1.678   2.843  21.373  0.00  0.00    +0.000 C 
ATOM      8  N   UNL     1       3.976   2.151  21.008  0.00  0.00    +0.000 NA
ATOM      9  O   UNL     1       5.026   2.480  20.178  0.00  0.00    +0.000 OA
ATOM     10  C   UNL     1       4.670   3.510  19.365  0.00  0.00    +0.000 A 
BRANCH   5  12
ATOM     11  C   UNL     1       1.651   4.297  17.841  0.00  0.00    +0.000 C 
ATOM     12  C   UNL     1       2.511   4.882  18.949  0.00  0.00    +0.000 C 
ENDBRANCH   5  12
ENDBRANCH   1  10
BRANCH   2  13
ATOM     13  C   UNL     1       7.433   5.424  17.730  0.00  0.00    +0.000 C 
BRANCH  13  14
ATOM     14  C   UNL     1       6.824   5.073  16.426  0.00  0.00    +0.000 A 
ATOM     15  C   UNL     1       7.114   4.160  15.443  0.00  0.00    +0.000 A 
ATOM     16  C   UNL     1       6.142   4.391  14.448  0.00  0.00    +0.000 A 
ATOM     17  C   UNL     1       6.002   3.735  13.128  0.00  0.00    +0.000 C 
ATOM     18  N   UNL     1       5.295   5.359  14.814  0.00  0.00    +0.000 NA
ATOM     19  O   UNL     1       5.724   5.785  16.058  0.00  0.00    +0.000 OA
ENDBRANCH  13  14
ENDBRANCH   2  13
TORSDOF 4
ENDMDL
MODEL 4
REMARK VINA RESULT:      -7.6      1.656      2.038
REMARK  Name = 
REMARK  7 active torsions:
REMARK  status: ('A' for Active; 'I' for Inactive)
REMARK    1  A    between atoms: C_1  and  C_2
REMARK    2  A    between atoms: C_2  and  C_3
REMARK    3  A    between atoms: C_4  and  C_5
REMARK    4  A    between atoms: C_8  and  N_9
REMARK    5  A    between atoms: C_10  and  C_12
REMARK    6  A    between atoms: C_12  and  C_13
REMARK    7  A    between atoms: C_15  and  C_16
REMARK                            x       y       z     vdW  Elec       q    Type
REMARK                         _______ _______ _______ _____ _____    ______ ____
ROOT
ATOM      1  N   UNL     1       5.091   5.239  18.458  0.00  0.00    +0.000 N 
ATOM      2  C   UNL     1       6.383   5.422  18.925  0.00  0.00    +0.000 C 
ATOM      3  O   UNL     1       6.758   5.232  20.081  0.00  0.00    +0.000 OA
ATOM      4  H   UNL     1       4.895   5.260  17.468  0.00  0.00    +0.000 HD
ENDROOT
BRANCH   1  10
ATOM      5  C   UNL     1       3.595   3.671  19.730  0.00  0.00    +0.000 A 
ATOM      6  C   UNL     1       2.492   4.004  20.572  0.00  0.00    +0.000 A 
ATOM      7  C   UNL     1       1.596   3.115  21.349  0.00  0.00    +0.000 C 
ATOM      8  N   UNL     1       2.309   5.325  20.643  0.00  0.00    +0.000 NA
ATOM      9  O   UNL     1       3.299   5.882  19.862  0.00  0.00    +0.000 OA
ATOM     10  C   UNL     1       4.059   4.901  19.307  0.00  0.00    +0.000 A 
BRANCH   5  12
ATOM     11  C   UNL     1       3.496   1.626  18.270  0.00  0.00    +0.000 C 
ATOM     12  C   UNL     1       4.149   2.315  19.458  0.00  0.00    +0.000 C 
ENDBRANCH   5  12
ENDBRANCH   1  10
BRANCH   2  13
ATOM     13  C   UNL     1       7.373   5.825  17.844  0.00  0.00    +0.000 C 
BRANCH  13  14
ATOM     14  C   UNL     1       6.858   5.420  16.515  0.00  0.00    +0.000 A 
ATOM     15  C   UNL     1       7.026   4.319  15.712  0.00  0.00    +0.000 A 
ATOM     16  C   UNL     1       6.273   4.607  14.555  0.00  0.00    +0.000 A 
ATOM     17  C   UNL     1       6.134   3.798  13.323  0.00  0.00    +0.000 C 
ATOM     18  N   UNL     1       5.659   5.790  14.660  0.00  0.00    +0.000 NA
ATOM     19  O   UNL     1       6.027   6.299  15.892  0.00  0.00    +0.000 OA
ENDBRANCH  13  14
ENDBRANCH   2  13
TORSDOF 4
ENDMDL
MODEL 5
REMARK VINA RESULT:      -7.3      2.233      3.235
REMARK  Name = 
REMARK  7 active torsions:
REMARK  status: ('A' for Active; 'I' for Inactive)
REMARK    1  A    between atoms: C_1  and  C_2
REMARK    2  A    between atoms: C_2  and  C_3
REMARK    3  A    between atoms: C_4  and  C_5
REMARK    4  A    between atoms: C_8  and  N_9
REMARK    5  A    between atoms: C_10  and  C_12
REMARK    6  A    between atoms: C_12  and  C_13
REMARK    7  A    between atoms: C_15  and  C_16
REMARK                            x       y       z     vdW  Elec       q    Type
REMARK                         _______ _______ _______ _____ _____    ______ ____
ROOT
ATOM      1  N   UNL     1       5.426   3.470  18.862  0.00  0.00    +0.000 N 
ATOM      2  C   UNL     1       5.954   4.752  18.877  0.00  0.00    +0.000 C 
ATOM      3  O   UNL     1       5.657   5.637  19.678  0.00  0.00    +0.000 OA
ATOM      4  H   UNL     1       5.833   2.754  18.279  0.00  0.00    +0.000 HD
ENDROOT
BRANCH   1  10
ATOM      5  C   UNL     1       3.113   3.535  19.841  0.00  0.00    +0.000 A 
ATOM      6  C   UNL     1       2.605   2.775  20.936  0.00  0.00    +0.000 A 
ATOM      7  C   UNL     1       1.248   2.771  21.535  0.00  0.00    +0.000 C 
ATOM      8  N   UNL     1       3.531   1.950  21.434  0.00  0.00    +0.000 NA
ATOM      9  O   UNL     1       4.657   2.145  20.664  0.00  0.00    +0.000 OA
ATOM     10  C   UNL     1       4.417   3.096  19.722  0.00  0.00    +0.000 A 
BRANCH   5  12
ATOM     11  C   UNL     1       1.481   3.834  17.952  0.00  0.00    +0.000 C 
ATOM     12  C   UNL     1       2.368   4.504  18.989  0.00  0.00    +0.000 C 
ENDBRANCH   5  12
ENDBRANCH   1  10
BRANCH   2  13
ATOM     13  C   UNL     1       7.032   4.982  17.831  0.00  0.00    +0.000 C 
BRANCH  13  14
ATOM     14  C   UNL     1       7.459   6.400  17.851  0.00  0.00    +0.000 A 
ATOM     15  C   UNL     1       8.282   7.147  18.658  0.00  0.00    +0.000 A 
ATOM     16  C   UNL     1       8.208   8.451  18.129  0.00  0.00    +0.000 A 
ATOM     17  C   UNL     1       8.850   9.686  18.633  0.00  0.00    +0.000 C 
ATOM     18  N   UNL     1       7.419   8.491  17.050  0.00  0.00    +0.000 NA
ATOM     19  O   UNL     1       6.950   7.202  16.877  0.00  0.00    +0.000 OA
ENDBRANCH  13  14
ENDBRANCH   2  13
TORSDOF 4
ENDMDL
MODEL 6
REMARK VINA RESULT:      -7.2      1.865      2.195
REMARK  Name = 
REMARK  7 active torsions:
REMARK  status: ('A' for Active; 'I' for Inactive)
REMARK    1  A    between atoms: C_1  and  C_2
REMARK    2  A    between atoms: C_2  and  C_3
REMARK    3  A    between atoms: C_4  and  C_5
REMARK    4  A    between atoms: C_8  and  N_9
REMARK    5  A    between atoms: C_10  and  C_12
REMARK    6  A    between atoms: C_12  and  C_13
REMARK    7  A    between atoms: C_15  and  C_16
REMARK                            x       y       z     vdW  Elec       q    Type
REMARK                         _______ _______ _______ _____ _____    ______ ____
ROOT
ATOM      1  N   UNL     1       4.860   5.396  19.010  0.00  0.00    +0.000 N 
ATOM      2  C   UNL     1       4.740   6.251  17.925  0.00  0.00    +0.000 C 
ATOM      3  O   UNL     1       3.684   6.717  17.497  0.00  0.00    +0.000 OA
ATOM      4  H   UNL     1       5.768   5.185  19.399  0.00  0.00    +0.000 HD
ENDROOT
BRANCH   1  10
ATOM      5  C   UNL     1       3.312   3.613  19.869  0.00  0.00    +0.000 A 
ATOM      6  C   UNL     1       2.098   3.787  20.598  0.00  0.00    +0.000 A 
ATOM      7  C   UNL     1       1.165   2.767  21.135  0.00  0.00    +0.000 C 
ATOM      8  N   UNL     1       1.832   5.079  20.812  0.00  0.00    +0.000 NA
ATOM      9  O   UNL     1       2.876   5.774  20.241  0.00  0.00    +0.000 OA
ATOM     10  C   UNL     1       3.753   4.907  19.669  0.00  0.00    +0.000 A 
BRANCH   5  12
ATOM     11  C   UNL     1       3.517   1.784  18.157  0.00  0.00    +0.000 C 
ATOM     12  C   UNL     1       3.971   2.330  19.501  0.00  0.00    +0.000 C 
ENDBRANCH   5  12
ENDBRANCH   1  10
BRANCH   2  13
ATOM     13  C   UNL     1       6.071   6.653  17.312  0.00  0.00    +0.000 C 
BRANCH  13  14
ATOM     14  C   UNL     1       6.312   5.871  16.077  0.00  0.00    +0.000 A 
ATOM     15  C   UNL     1       5.549   5.027  15.307  0.00  0.00    +0.000 A 
ATOM     16  C   UNL     1       6.421   4.592  14.289  0.00  0.00    +0.000 A 
ATOM     17  C   UNL     1       6.156   3.622  13.203  0.00  0.00    +0.000 C 
ATOM     18  N   UNL     1       7.626   5.160  14.409  0.00  0.00    +0.000 NA
ATOM     19  O   UNL     1       7.555   5.963  15.532  0.00  0.00    +0.000 OA
ENDBRANCH  13  14
ENDBRANCH   2  13
TORSDOF 4
ENDMDL
MODEL 7
REMARK VINA RESULT:      -7.0      1.693      2.076
REMARK  Name = 
REMARK  7 active torsions:
REMARK  status: ('A' for Active; 'I' for Inactive)
REMARK    1  A    between atoms: C_1  and  C_2
REMARK    2  A    between atoms: C_2  and  C_3
REMARK    3  A    between atoms: C_4  and  C_5
REMARK    4  A    between atoms: C_8  and  N_9
REMARK    5  A    between atoms: C_10  and  C_12
REMARK    6  A    between atoms: C_12  and  C_13
REMARK    7  A    between atoms: C_15  and  C_16
REMARK                            x       y       z     vdW  Elec       q    Type
REMARK                         _______ _______ _______ _____ _____    ______ ____
ROOT
ATOM      1  N   UNL     1       4.600   5.478  17.804  0.00  0.00    +0.000 N 
ATOM      2  C   UNL     1       5.904   5.048  17.991  0.00  0.00    +0.000 C 
ATOM      3  O   UNL     1       6.279   4.262  18.862  0.00  0.00    +0.000 OA
ATOM      4  H   UNL     1       4.343   5.994  16.975  0.00  0.00    +0.000 HD
ENDROOT
BRANCH   1  10
ATOM      5  C   UNL     1       2.700   4.059  18.636  0.00  0.00    +0.000 A 
ATOM      6  C   UNL     1       1.898   4.265  19.798  0.00  0.00    +0.000 A 
ATOM      7  C   UNL     1       0.782   3.448  20.331  0.00  0.00    +0.000 C 
ATOM      8  N   UNL     1       2.274   5.358  20.468  0.00  0.00    +0.000 NA
ATOM      9  O   UNL     1       3.340   5.878  19.766  0.00  0.00    +0.000 OA
ATOM     10  C   UNL     1       3.590   5.115  18.668  0.00  0.00    +0.000 A 
BRANCH   5  12
ATOM     11  C   UNL     1       3.503   1.741  18.085  0.00  0.00    +0.000 C 
ATOM     12  C   UNL     1       2.632   2.919  17.680  0.00  0.00    +0.000 C 
ENDBRANCH   5  12
ENDBRANCH   1  10
BRANCH   2  13
ATOM     13  C   UNL     1       6.879   5.582  16.955  0.00  0.00    +0.000 C 
BRANCH  13  14
ATOM     14  C   UNL     1       6.653   4.906  15.656  0.00  0.00    +0.000 A 
ATOM     15  C   UNL     1       7.251   4.967  14.422  0.00  0.00    +0.000 A 
ATOM     16  C   UNL     1       6.503   4.080  13.622  0.00  0.00    +0.000 A 
ATOM     17  C   UNL     1       6.660   3.786  12.180  0.00  0.00    +0.000 C 
ATOM     18  N   UNL     1       5.533   3.492  14.329  0.00  0.00    +0.000 NA
ATOM     19  O   UNL     1       5.629   4.011  15.608  0.00  0.00    +0.000 OA
ENDBRANCH  13  14
ENDBRANCH   2  13
TORSDOF 4
ENDMDL
MODEL 8
REMARK VINA RESULT:      -7.0      1.493      1.639
REMARK  Name = 
REMARK  7 active torsions:
REMARK  status: ('A' for Active; 'I' for Inactive)
REMARK    1  A    between atoms: C_1  and  C_2
REMARK    2  A    between atoms: C_2  and  C_3
REMARK    3  A    between atoms: C_4  and  C_5
REMARK    4  A    between atoms: C_8  and  N_9
REMARK    5  A    between atoms: C_10  and  C_12
REMARK    6  A    between atoms: C_12  and  C_13
REMARK    7  A    between atoms: C_15  and  C_16
REMARK                            x       y       z     vdW  Elec       q    Type
REMARK                         _______ _______ _______ _____ _____    ______ ____
ROOT
ATOM      1  N   UNL     1       3.931   4.953  18.026  0.00  0.00    +0.000 N 
ATOM      2  C   UNL     1       5.305   5.106  18.133  0.00  0.00    +0.000 C 
ATOM      3  O   UNL     1       6.043   4.442  18.859  0.00  0.00    +0.000 OA
ATOM      4  H   UNL     1       3.417   5.423  17.295  0.00  0.00    +0.000 HD
ENDROOT
BRANCH   1  10
ATOM      5  C   UNL     1       2.687   4.215  20.081  0.00  0.00    +0.000 A 
ATOM      6  C   UNL     1       2.142   2.926  20.358  0.00  0.00    +0.000 A 
ATOM      7  C   UNL     1       1.391   2.454  21.546  0.00  0.00    +0.000 C 
ATOM      8  N   UNL     1       2.354   2.075  19.350  0.00  0.00    +0.000 NA
ATOM      9  O   UNL     1       3.030   2.796  18.388  0.00  0.00    +0.000 OA
ATOM     10  C   UNL     1       3.240   4.067  18.824  0.00  0.00    +0.000 A 
BRANCH   5  12
ATOM     11  C   UNL     1       1.454   6.361  20.524  0.00  0.00    +0.000 C 
ATOM     12  C   UNL     1       2.593   5.438  20.926  0.00  0.00    +0.000 C 
ENDBRANCH   5  12
ENDBRANCH   1  10
BRANCH   2  13
ATOM     13  C   UNL     1       5.878   6.155  17.194  0.00  0.00    +0.000 C 
BRANCH  13  14
ATOM     14  C   UNL     1       6.197   5.537  15.885  0.00  0.00    +0.000 A 
ATOM     15  C   UNL     1       5.515   4.728  15.010  0.00  0.00    +0.000 A 
ATOM     16  C   UNL     1       6.432   4.480  13.969  0.00  0.00    +0.000 A 
ATOM     17  C   UNL     1       6.260   3.620  12.777  0.00  0.00    +0.000 C 
ATOM     18  N   UNL     1       7.586   5.123  14.178  0.00  0.00    +0.000 NA
ATOM     19  O   UNL     1       7.436   5.787  15.382  0.00  0.00    +0.000 OA
ENDBRANCH  13  14
ENDBRANCH   2  13
TORSDOF 4
ENDMDL
MODEL 9
REMARK VINA RESULT:      -7.0      1.697      2.153
REMARK  Name = 
REMARK  7 active torsions:
REMARK  status: ('A' for Active; 'I' for Inactive)
REMARK    1  A    between atoms: C_1  and  C_2
REMARK    2  A    between atoms: C_2  and  C_3
REMARK    3  A    between atoms: C_4  and  C_5
REMARK    4  A    between atoms: C_8  and  N_9
REMARK    5  A    between atoms: C_10  and  C_12
REMARK    6  A    between atoms: C_12  and  C_13
REMARK    7  A    between atoms: C_15  and  C_16
REMARK                            x       y       z     vdW  Elec       q    Type
REMARK                         _______ _______ _______ _____ _____    ______ ____
ROOT
ATOM      1  N   UNL     1       4.894   3.622  17.612  0.00  0.00    +0.000 N 
ATOM      2  C   UNL     1       5.555   4.840  17.632  0.00  0.00    +0.000 C 
ATOM      3  O   UNL     1       5.093   5.896  18.064  0.00  0.00    +0.000 OA
ATOM      4  H   UNL     1       5.392   2.771  17.392  0.00  0.00    +0.000 HD
ENDROOT
BRANCH   1  10
ATOM      5  C   UNL     1       3.023   3.153  19.222  0.00  0.00    +0.000 A 
ATOM      6  C   UNL     1       1.619   3.199  18.970  0.00  0.00    +0.000 A 
ATOM      7  C   UNL     1       0.486   2.945  19.891  0.00  0.00    +0.000 C 
ATOM      8  N   UNL     1       1.358   3.551  17.707  0.00  0.00    +0.000 NA
ATOM      9  O   UNL     1       2.586   3.756  17.115  0.00  0.00    +0.000 OA
ATOM     10  C   UNL     1       3.579   3.509  18.009  0.00  0.00    +0.000 A 
BRANCH   5  12
ATOM     11  C   UNL     1       4.696   1.723  20.439  0.00  0.00    +0.000 C 
ATOM     12  C   UNL     1       3.700   2.870  20.518  0.00  0.00    +0.000 C 
ENDBRANCH   5  12
ENDBRANCH   1  10
BRANCH   2  13
ATOM     13  C   UNL     1       6.986   4.769  17.125  0.00  0.00    +0.000 C 
BRANCH  13  14
ATOM     14  C   UNL     1       6.992   4.691  15.645  0.00  0.00    +0.000 A 
ATOM     15  C   UNL     1       6.371   3.887  14.721  0.00  0.00    +0.000 A 
ATOM     16  C   UNL     1       6.856   4.338  13.477  0.00  0.00    +0.000 A 
ATOM     17  C   UNL     1       6.572   3.800  12.128  0.00  0.00    +0.000 C 
ATOM     18  N   UNL     1       7.691   5.371  13.630  0.00  0.00    +0.000 NA
ATOM     19  O   UNL     1       7.774   5.592  14.992  0.00  0.00    +0.000 OA
ENDBRANCH  13  14
ENDBRANCH   2  13
TORSDOF 4
ENDMDL
