MODEL 1
REMARK VINA RESULT:      -6.9      0.000      0.000
REMARK  Name = 
REMARK  14 active torsions:
REMARK  status: ('A' for Active; 'I' for Inactive)
REMARK    1  A    between atoms: C_1  and  C_2
REMARK    2  A    between atoms: C_2  and  N_3
REMARK    3  A    between atoms: N_3  and  C_4
REMARK    4  A    between atoms: N_3  and  C_6
REMARK    5  A    between atoms: C_4  and  C_5
REMARK    6  A    between atoms: C_6  and  C_7
REMARK    7  A    between atoms: C_7  and  N_8
REMARK    8  A    between atoms: C_9  and  C_11
REMARK    9  A    between atoms: N_13  and  C_14
REMARK   10  A    between atoms: C_14  and  C_15
REMARK   11  A    between atoms: C_19  and  S_20
REMARK   12  A    between atoms: S_20  and  N_23
REMARK   13  A    between atoms: N_23  and  C_24
REMARK   14  A    between atoms: N_23  and  C_25
REMARK                            x       y       z     vdW  Elec       q    Type
REMARK                         _______ _______ _______ _____ _____    ______ ____
ROOT
ATOM      1  C   UNL     1       4.141   5.277  18.188  0.00  0.00    +0.000 A 
ATOM      2  C   UNL     1       3.636   4.599  19.232  0.00  0.00    +0.000 A 
ATOM      3  N   UNL     1       2.637   5.026  20.102  0.00  0.00    +0.000 N 
ATOM      4  C   UNL     1       2.158   6.349  19.985  0.00  0.00    +0.000 A 
ATOM      5  C   UNL     1       1.242   6.929  20.879  0.00  0.00    +0.000 A 
ATOM      6  C   UNL     1       0.829   8.259  20.742  0.00  0.00    +0.000 A 
ATOM      7  C   UNL     1       1.311   9.033  19.685  0.00  0.00    +0.000 A 
ATOM      8  C   UNL     1       2.217   8.498  18.778  0.00  0.00    +0.000 A 
ATOM      9  C   UNL     1       2.624   7.165  18.928  0.00  0.00    +0.000 A 
ATOM     10  C   UNL     1       3.574   6.616  17.929  0.00  0.00    +0.000 A 
ATOM     11  O   UNL     1       3.865   7.262  16.928  0.00  0.00    +0.000 OA
ENDROOT
BRANCH   1  13
ATOM     12  N   UNL     1       4.839   4.304  16.079  0.00  0.00    +0.000 N 
ATOM     13  C   UNL     1       5.196   4.632  17.363  0.00  0.00    +0.000 C 
ATOM     14  O   UNL     1       6.314   4.404  17.821  0.00  0.00    +0.000 OA
ATOM     15  H   UNL     1       3.968   4.671  15.690  0.00  0.00    +0.000 HD
BRANCH  12  16
ATOM     16  C   UNL     1       5.806   3.717  15.175  0.00  0.00    +0.000 C 
BRANCH  16  17
ATOM     17  C   UNL     1       5.656   4.177  13.711  0.00  0.00    +0.000 C 
BRANCH  17  18
ATOM     18  N   UNL     1       6.360   3.350  12.707  0.00  0.00    +0.000 NA
BRANCH  18  20
ATOM     19  C   UNL     1       4.161   3.368  11.454  0.00  0.00    +0.000 C 
ATOM     20  C   UNL     1       5.412   2.599  11.865  0.00  0.00    +0.000 C 
ENDBRANCH  18  20
BRANCH  18  21
ATOM     21  C   UNL     1       7.335   4.151  11.940  0.00  0.00    +0.000 C 
ATOM     22  C   UNL     1       7.788   5.465  12.575  0.00  0.00    +0.000 C 
ENDBRANCH  18  21
ENDBRANCH  17  18
ENDBRANCH  16  17
ENDBRANCH  12  16
ENDBRANCH   1  13
BRANCH   7  23
ATOM     23  S   UNL     1       0.804  10.731  19.517  0.00  0.00    +0.000 S 
ATOM     24  O   UNL     1       0.878  11.324  20.837  0.00  0.00    +0.000 OA
ATOM     25  O   UNL     1       1.519  11.297  18.401  0.00  0.00    +0.000 OA
BRANCH  23  26
ATOM     26  N   UNL     1      -0.843  10.580  19.098  0.00  0.00    +0.000 NA
ATOM     27  C   UNL     1      -1.737  11.673  19.520  0.00  0.00    +0.000 C 
ATOM     28  C   UNL     1      -1.125  10.091  17.738  0.00  0.00    +0.000 C 
ENDBRANCH  23  26
ENDBRANCH   7  23
BRANCH   3  29
ATOM     29  C   UNL     1       2.131   4.140  21.167  0.00  0.00    +0.000 C 
ATOM     30  C   UNL     1       2.836   2.791  21.158  0.00  0.00    +0.000 C 
ENDBRANCH   3  29
TORSDOF 9
ENDMDL
MODEL 2
REMARK VINA RESULT:      -6.9      1.695      2.317
REMARK  Name = 
REMARK  14 active torsions:
REMARK  status: ('A' for Active; 'I' for Inactive)
REMARK    1  A    between atoms: C_1  and  C_2
REMARK    2  A    between atoms: C_2  and  N_3
REMARK    3  A    between atoms: N_3  and  C_4
REMARK    4  A    between atoms: N_3  and  C_6
REMARK    5  A    between atoms: C_4  and  C_5
REMARK    6  A    between atoms: C_6  and  C_7
REMARK    7  A    between atoms: C_7  and  N_8
REMARK    8  A    between atoms: C_9  and  C_11
REMARK    9  A    between atoms: N_13  and  C_14
REMARK   10  A    between atoms: C_14  and  C_15
REMARK   11  A    between atoms: C_19  and  S_20
REMARK   12  A    between atoms: S_20  and  N_23
REMARK   13  A    between atoms: N_23  and  C_24
REMARK   14  A    between atoms: N_23  and  C_25
REMARK                            x       y       z     vdW  Elec       q    Type
REMARK                         _______ _______ _______ _____ _____    ______ ____
ROOT
ATOM      1  C   UNL     1       4.440   5.603  17.218  0.00  0.00    +0.000 A 
ATOM      2  C   UNL     1       4.205   4.420  17.810  0.00  0.00    +0.000 A 
ATOM      3  N   UNL     1       3.320   4.169  18.853  0.00  0.00    +0.000 N 
ATOM      4  C   UNL     1       2.667   5.261  19.465  0.00  0.00    +0.000 A 
ATOM      5  C   UNL     1       1.848   5.143  20.601  0.00  0.00    +0.000 A 
ATOM      6  C   UNL     1       1.256   6.265  21.195  0.00  0.00    +0.000 A 
ATOM      7  C   UNL     1       1.454   7.531  20.643  0.00  0.00    +0.000 A 
ATOM      8  C   UNL     1       2.256   7.691  19.519  0.00  0.00    +0.000 A 
ATOM      9  C   UNL     1       2.845   6.561  18.937  0.00  0.00    +0.000 A 
ATOM     10  C   UNL     1       3.675   6.762  17.724  0.00  0.00    +0.000 A 
ATOM     11  O   UNL     1       3.713   7.855  17.171  0.00  0.00    +0.000 OA
ENDROOT
BRANCH   1  13
ATOM     12  N   UNL     1       5.248   4.722  15.108  0.00  0.00    +0.000 N 
ATOM     13  C   UNL     1       5.414   5.659  16.097  0.00  0.00    +0.000 C 
ATOM     14  O   UNL     1       6.317   6.494  16.077  0.00  0.00    +0.000 OA
ATOM     15  H   UNL     1       4.387   4.171  15.078  0.00  0.00    +0.000 HD
BRANCH  12  16
ATOM     16  C   UNL     1       6.112   4.719  13.946  0.00  0.00    +0.000 C 
BRANCH  16  17
ATOM     17  C   UNL     1       6.270   3.335  13.286  0.00  0.00    +0.000 C 
BRANCH  17  18
ATOM     18  N   UNL     1       5.730   3.217  11.913  0.00  0.00    +0.000 NA
BRANCH  18  20
ATOM     19  C   UNL     1       7.257   1.431  10.974  0.00  0.00    +0.000 C 
ATOM     20  C   UNL     1       5.853   1.841  11.402  0.00  0.00    +0.000 C 
ENDBRANCH  18  20
BRANCH  18  21
ATOM     21  C   UNL     1       4.362   3.767  11.825  0.00  0.00    +0.000 C 
ATOM     22  C   UNL     1       3.464   3.192  10.731  0.00  0.00    +0.000 C 
ENDBRANCH  18  21
ENDBRANCH  17  18
ENDBRANCH  16  17
ENDBRANCH  12  16
ENDBRANCH   1  13
BRANCH   7  23
ATOM     23  S   UNL     1       0.718   8.962  21.404  0.00  0.00    +0.000 S 
ATOM     24  O   UNL     1      -0.632   8.592  21.777  0.00  0.00    +0.000 OA
ATOM     25  O   UNL     1       1.650   9.473  22.377  0.00  0.00    +0.000 OA
BRANCH  23  26
ATOM     26  N   UNL     1       0.624  10.060  20.101  0.00  0.00    +0.000 NA
ATOM     27  C   UNL     1      -0.630  10.062  19.327  0.00  0.00    +0.000 C 
ATOM     28  C   UNL     1       1.155  11.411  20.350  0.00  0.00    +0.000 C 
ENDBRANCH  23  26
ENDBRANCH   7  23
BRANCH   3  29
ATOM     29  C   UNL     1       3.113   2.798  19.357  0.00  0.00    +0.000 C 
ATOM     30  C   UNL     1       4.349   2.269  20.072  0.00  0.00    +0.000 C 
ENDBRANCH   3  29
TORSDOF 9
ENDMDL
MODEL 3
REMARK VINA RESULT:      -6.7      1.357      2.035
REMARK  Name = 
REMARK  14 active torsions:
REMARK  status: ('A' for Active; 'I' for Inactive)
REMARK    1  A    between atoms: C_1  and  C_2
REMARK    2  A    between atoms: C_2  and  N_3
REMARK    3  A    between atoms: N_3  and  C_4
REMARK    4  A    between atoms: N_3  and  C_6
REMARK    5  A    between atoms: C_4  and  C_5
REMARK    6  A    between atoms: C_6  and  C_7
REMARK    7  A    between atoms: C_7  and  N_8
REMARK    8  A    between atoms: C_9  and  C_11
REMARK    9  A    between atoms: N_13  and  C_14
REMARK   10  A    between atoms: C_14  and  C_15
REMARK   11  A    between atoms: C_19  and  S_20
REMARK   12  A    between atoms: S_20  and  N_23
REMARK   13  A    between atoms: N_23  and  C_24
REMARK   14  A    between atoms: N_23  and  C_25
REMARK                            x       y       z     vdW  Elec       q    Type
REMARK                         _______ _______ _______ _____ _____    ______ ____
ROOT
ATOM      1  C   UNL     1       3.695   6.433  18.030  0.00  0.00    +0.000 A 
ATOM      2  C   UNL     1       3.378   5.569  19.009  0.00  0.00    +0.000 A 
ATOM      3  N   UNL     1       2.453   5.765  20.029  0.00  0.00    +0.000 N 
ATOM      4  C   UNL     1       1.846   7.033  20.158  0.00  0.00    +0.000 A 
ATOM      5  C   UNL     1       0.991   7.385  21.217  0.00  0.00    +0.000 A 
ATOM      6  C   UNL     1       0.447   8.670  21.320  0.00  0.00    +0.000 A 
ATOM      7  C   UNL     1       0.731   9.627  20.346  0.00  0.00    +0.000 A 
ATOM      8  C   UNL     1       1.570   9.321  19.282  0.00  0.00    +0.000 A 
ATOM      9  C   UNL     1       2.110   8.031  19.191  0.00  0.00    +0.000 A 
ATOM     10  C   UNL     1       2.983   7.727  18.031  0.00  0.00    +0.000 A 
ATOM     11  O   UNL     1       3.097   8.531  17.112  0.00  0.00    +0.000 OA
ENDROOT
BRANCH   1  13
ATOM     12  N   UNL     1       5.421   4.891  17.304  0.00  0.00    +0.000 N 
ATOM     13  C   UNL     1       4.701   6.023  17.016  0.00  0.00    +0.000 C 
ATOM     14  O   UNL     1       4.873   6.676  15.988  0.00  0.00    +0.000 OA
ATOM     15  H   UNL     1       5.122   4.289  18.075  0.00  0.00    +0.000 HD
BRANCH  12  16
ATOM     16  C   UNL     1       6.391   4.377  16.361  0.00  0.00    +0.000 C 
BRANCH  16  17
ATOM     17  C   UNL     1       5.767   3.679  15.136  0.00  0.00    +0.000 C 
BRANCH  17  18
ATOM     18  N   UNL     1       6.076   4.293  13.825  0.00  0.00    +0.000 NA
BRANCH  18  20
ATOM     19  C   UNL     1       7.908   5.436  12.505  0.00  0.00    +0.000 C 
ATOM     20  C   UNL     1       7.345   5.039  13.865  0.00  0.00    +0.000 C 
ENDBRANCH  18  20
BRANCH  18  21
ATOM     21  C   UNL     1       6.000   3.299  12.736  0.00  0.00    +0.000 C 
ATOM     22  C   UNL     1       4.762   3.359  11.842  0.00  0.00    +0.000 C 
ENDBRANCH  18  21
ENDBRANCH  17  18
ENDBRANCH  16  17
ENDBRANCH  12  16
ENDBRANCH   1  13
BRANCH   7  23
ATOM     23  S   UNL     1       0.055  11.270  20.483  0.00  0.00    +0.000 S 
ATOM     24  O   UNL     1      -1.289  11.129  21.006  0.00  0.00    +0.000 OA
ATOM     25  O   UNL     1       1.034  12.095  21.145  0.00  0.00    +0.000 OA
BRANCH  23  26
ATOM     26  N   UNL     1      -0.061  11.753  18.850  0.00  0.00    +0.000 NA
ATOM     27  C   UNL     1      -1.366  11.559  18.194  0.00  0.00    +0.000 C 
ATOM     28  C   UNL     1       0.578  13.034  18.505  0.00  0.00    +0.000 C 
ENDBRANCH  23  26
ENDBRANCH   7  23
BRANCH   3  29
ATOM     29  C   UNL     1       2.156   4.693  20.998  0.00  0.00    +0.000 C 
ATOM     30  C   UNL     1       1.105   3.729  20.464  0.00  0.00    +0.000 C 
ENDBRANCH   3  29
TORSDOF 9
ENDMDL
MODEL 4
REMARK VINA RESULT:      -6.6      3.077      8.610
REMARK  Name = 
REMARK  14 active torsions:
REMARK  status: ('A' for Active; 'I' for Inactive)
REMARK    1  A    between atoms: C_1  and  C_2
REMARK    2  A    between atoms: C_2  and  N_3
REMARK    3  A    between atoms: N_3  and  C_4
REMARK    4  A    between atoms: N_3  and  C_6
REMARK    5  A    between atoms: C_4  and  C_5
REMARK    6  A    between atoms: C_6  and  C_7
REMARK    7  A    between atoms: C_7  and  N_8
REMARK    8  A    between atoms: C_9  and  C_11
REMARK    9  A    between atoms: N_13  and  C_14
REMARK   10  A    between atoms: C_14  and  C_15
REMARK   11  A    between atoms: C_19  and  S_20
REMARK   12  A    between atoms: S_20  and  N_23
REMARK   13  A    between atoms: N_23  and  C_24
REMARK   14  A    between atoms: N_23  and  C_25
REMARK                            x       y       z     vdW  Elec       q    Type
REMARK                         _______ _______ _______ _____ _____    ______ ____
ROOT
ATOM      1  C   UNL     1       1.333   7.330  20.554  0.00  0.00    +0.000 A 
ATOM      2  C   UNL     1       1.382   6.116  21.128  0.00  0.00    +0.000 A 
ATOM      3  N   UNL     1       2.202   5.053  20.764  0.00  0.00    +0.000 N 
ATOM      4  C   UNL     1       2.997   5.177  19.605  0.00  0.00    +0.000 A 
ATOM      5  C   UNL     1       3.770   4.130  19.073  0.00  0.00    +0.000 A 
ATOM      6  C   UNL     1       4.510   4.292  17.896  0.00  0.00    +0.000 A 
ATOM      7  C   UNL     1       4.509   5.523  17.237  0.00  0.00    +0.000 A 
ATOM      8  C   UNL     1       3.760   6.584  17.729  0.00  0.00    +0.000 A 
ATOM      9  C   UNL     1       3.021   6.407  18.907  0.00  0.00    +0.000 A 
ATOM     10  C   UNL     1       2.251   7.566  19.420  0.00  0.00    +0.000 A 
ATOM     11  O   UNL     1       2.383   8.674  18.913  0.00  0.00    +0.000 OA
ENDROOT
BRANCH   1  13
ATOM     12  N   UNL     1       0.812   9.650  21.035  0.00  0.00    +0.000 N 
ATOM     13  C   UNL     1       0.397   8.343  21.108  0.00  0.00    +0.000 C 
ATOM     14  O   UNL     1      -0.677   8.014  21.607  0.00  0.00    +0.000 OA
ATOM     15  H   UNL     1       1.621   9.888  20.457  0.00  0.00    +0.000 HD
BRANCH  12  16
ATOM     16  C   UNL     1      -0.045  10.719  21.501  0.00  0.00    +0.000 C 
BRANCH  16  17
ATOM     17  C   UNL     1      -0.345  11.792  20.434  0.00  0.00    +0.000 C 
BRANCH  17  18
ATOM     18  N   UNL     1      -1.731  11.807  19.916  0.00  0.00    +0.000 NA
BRANCH  18  20
ATOM     19  C   UNL     1      -1.892  13.767  21.509  0.00  0.00    +0.000 C 
ATOM     20  C   UNL     1      -2.426  13.056  20.270  0.00  0.00    +0.000 C 
ENDBRANCH  18  20
BRANCH  18  21
ATOM     21  C   UNL     1      -1.767  11.490  18.474  0.00  0.00    +0.000 C 
ATOM     22  C   UNL     1      -3.151  11.346  17.842  0.00  0.00    +0.000 C 
ENDBRANCH  18  21
ENDBRANCH  17  18
ENDBRANCH  16  17
ENDBRANCH  12  16
ENDBRANCH   1  13
BRANCH   7  23
ATOM     23  S   UNL     1       5.434   5.729  15.730  0.00  0.00    +0.000 S 
ATOM     24  O   UNL     1       5.296   4.496  14.980  0.00  0.00    +0.000 OA
ATOM     25  O   UNL     1       5.065   6.999  15.156  0.00  0.00    +0.000 OA
BRANCH  23  26
ATOM     26  N   UNL     1       7.040   5.826  16.298  0.00  0.00    +0.000 NA
ATOM     27  C   UNL     1       7.374   6.985  17.144  0.00  0.00    +0.000 C 
ATOM     28  C   UNL     1       7.637   4.567  16.774  0.00  0.00    +0.000 C 
ENDBRANCH  23  26
ENDBRANCH   7  23
BRANCH   3  29
ATOM     29  C   UNL     1       2.197   3.795  21.535  0.00  0.00    +0.000 C 
ATOM     30  C   UNL     1       1.110   2.845  21.053  0.00  0.00    +0.000 C 
ENDBRANCH   3  29
TORSDOF 9
ENDMDL
MODEL 5
REMARK VINA RESULT:      -6.6      3.119      8.521
REMARK  Name = 
REMARK  14 active torsions:
REMARK  status: ('A' for Active; 'I' for Inactive)
REMARK    1  A    between atoms: C_1  and  C_2
REMARK    2  A    between atoms: C_2  and  N_3
REMARK    3  A    between atoms: N_3  and  C_4
REMARK    4  A    between atoms: N_3  and  C_6
REMARK    5  A    between atoms: C_4  and  C_5
REMARK    6  A    between atoms: C_6  and  C_7
REMARK    7  A    between atoms: C_7  and  N_8
REMARK    8  A    between atoms: C_9  and  C_11
REMARK    9  A    between atoms: N_13  and  C_14
REMARK   10  A    between atoms: C_14  and  C_15
REMARK   11  A    between atoms: C_19  and  S_20
REMARK   12  A    between atoms: S_20  and  N_23
REMARK   13  A    between atoms: N_23  and  C_24
REMARK   14  A    between atoms: N_23  and  C_25
REMARK                            x       y       z     vdW  Elec       q    Type
REMARK                         _______ _______ _______ _____ _____    ______ ____
ROOT
ATOM      1  C   UNL     1       1.367   7.295  20.568  0.00  0.00    +0.000 A 
ATOM      2  C   UNL     1       1.410   6.079  21.138  0.00  0.00    +0.000 A 
ATOM      3  N   UNL     1       2.227   5.014  20.774  0.00  0.00    +0.000 N 
ATOM      4  C   UNL     1       3.026   5.139  19.616  0.00  0.00    +0.000 A 
ATOM      5  C   UNL     1       3.796   4.091  19.083  0.00  0.00    +0.000 A 
ATOM      6  C   UNL     1       4.539   4.255  17.908  0.00  0.00    +0.000 A 
ATOM      7  C   UNL     1       4.544   5.487  17.253  0.00  0.00    +0.000 A 
ATOM      8  C   UNL     1       3.797   6.549  17.747  0.00  0.00    +0.000 A 
ATOM      9  C   UNL     1       3.056   6.372  18.922  0.00  0.00    +0.000 A 
ATOM     10  C   UNL     1       2.288   7.531  19.437  0.00  0.00    +0.000 A 
ATOM     11  O   UNL     1       2.425   8.641  18.933  0.00  0.00    +0.000 OA
ENDROOT
BRANCH   1  13
ATOM     12  N   UNL     1       0.865   9.612  21.084  0.00  0.00    +0.000 N 
ATOM     13  C   UNL     1       0.433   8.310  21.123  0.00  0.00    +0.000 C 
ATOM     14  O   UNL     1      -0.655   7.985  21.595  0.00  0.00    +0.000 OA
ATOM     15  H   UNL     1       1.689   9.850  20.526  0.00  0.00    +0.000 HD
BRANCH  12  16
ATOM     16  C   UNL     1       0.014  10.683  21.553  0.00  0.00    +0.000 C 
BRANCH  16  17
ATOM     17  C   UNL     1       0.321  12.053  20.916  0.00  0.00    +0.000 C 
BRANCH  17  18
ATOM     18  N   UNL     1      -0.422  12.361  19.673  0.00  0.00    +0.000 NA
BRANCH  18  20
ATOM     19  C   UNL     1      -2.896  12.083  19.216  0.00  0.00    +0.000 C 
ATOM     20  C   UNL     1      -1.543  11.427  19.471  0.00  0.00    +0.000 C 
ENDBRANCH  18  20
BRANCH  18  21
ATOM     21  C   UNL     1      -0.812  13.784  19.619  0.00  0.00    +0.000 C 
ATOM     22  C   UNL     1      -0.678  14.578  20.919  0.00  0.00    +0.000 C 
ENDBRANCH  18  21
ENDBRANCH  17  18
ENDBRANCH  16  17
ENDBRANCH  12  16
ENDBRANCH   1  13
BRANCH   7  23
ATOM     23  S   UNL     1       5.473   5.695  15.748  0.00  0.00    +0.000 S 
ATOM     24  O   UNL     1       5.353   4.456  15.006  0.00  0.00    +0.000 OA
ATOM     25  O   UNL     1       5.091   6.956  15.165  0.00  0.00    +0.000 OA
BRANCH  23  26
ATOM     26  N   UNL     1       7.075   5.814  16.322  0.00  0.00    +0.000 NA
ATOM     27  C   UNL     1       7.414   7.024  17.092  0.00  0.00    +0.000 C 
ATOM     28  C   UNL     1       7.655   4.584  16.888  0.00  0.00    +0.000 C 
ENDBRANCH  23  26
ENDBRANCH   7  23
BRANCH   3  29
ATOM     29  C   UNL     1       2.217   3.755  21.541  0.00  0.00    +0.000 C 
ATOM     30  C   UNL     1       1.108   2.821  21.073  0.00  0.00    +0.000 C 
ENDBRANCH   3  29
TORSDOF 9
ENDMDL
MODEL 6
REMARK VINA RESULT:      -6.5      3.173      8.751
REMARK  Name = 
REMARK  14 active torsions:
REMARK  status: ('A' for Active; 'I' for Inactive)
REMARK    1  A    between atoms: C_1  and  C_2
REMARK    2  A    between atoms: C_2  and  N_3
REMARK    3  A    between atoms: N_3  and  C_4
REMARK    4  A    between atoms: N_3  and  C_6
REMARK    5  A    between atoms: C_4  and  C_5
REMARK    6  A    between atoms: C_6  and  C_7
REMARK    7  A    between atoms: C_7  and  N_8
REMARK    8  A    between atoms: C_9  and  C_11
REMARK    9  A    between atoms: N_13  and  C_14
REMARK   10  A    between atoms: C_14  and  C_15
REMARK   11  A    between atoms: C_19  and  S_20
REMARK   12  A    between atoms: S_20  and  N_23
REMARK   13  A    between atoms: N_23  and  C_24
REMARK   14  A    between atoms: N_23  and  C_25
REMARK                            x       y       z     vdW  Elec       q    Type
REMARK                         _______ _______ _______ _____ _____    ______ ____
ROOT
ATOM      1  C   UNL     1       1.280   7.365  20.457  0.00  0.00    +0.000 A 
ATOM      2  C   UNL     1       1.336   6.167  21.063  0.00  0.00    +0.000 A 
ATOM      3  N   UNL     1       2.179   5.107  20.744  0.00  0.00    +0.000 N 
ATOM      4  C   UNL     1       2.995   5.214  19.597  0.00  0.00    +0.000 A 
ATOM      5  C   UNL     1       3.795   4.166  19.109  0.00  0.00    +0.000 A 
ATOM      6  C   UNL     1       4.556   4.309  17.942  0.00  0.00    +0.000 A 
ATOM      7  C   UNL     1       4.549   5.522  17.252  0.00  0.00    +0.000 A 
ATOM      8  C   UNL     1       3.774   6.583  17.701  0.00  0.00    +0.000 A 
ATOM      9  C   UNL     1       3.015   6.426  18.868  0.00  0.00    +0.000 A 
ATOM     10  C   UNL     1       2.217   7.585  19.336  0.00  0.00    +0.000 A 
ATOM     11  O   UNL     1       2.343   8.682  18.802  0.00  0.00    +0.000 OA
ENDROOT
BRANCH   1  13
ATOM     12  N   UNL     1       0.474   9.652  20.483  0.00  0.00    +0.000 N 
ATOM     13  C   UNL     1       0.318   8.377  20.965  0.00  0.00    +0.000 C 
ATOM     14  O   UNL     1      -0.555   8.076  21.778  0.00  0.00    +0.000 OA
ATOM     15  H   UNL     1       1.091   9.814  19.684  0.00  0.00    +0.000 HD
BRANCH  12  16
ATOM     16  C   UNL     1      -0.439  10.703  20.876  0.00  0.00    +0.000 C 
BRANCH  16  17
ATOM     17  C   UNL     1      -0.011  12.111  20.414  0.00  0.00    +0.000 C 
BRANCH  17  18
ATOM     18  N   UNL     1       0.891  12.838  21.336  0.00  0.00    +0.000 NA
BRANCH  18  20
ATOM     19  C   UNL     1       2.513  14.674  20.699  0.00  0.00    +0.000 C 
ATOM     20  C   UNL     1       2.162  13.190  20.679  0.00  0.00    +0.000 C 
ENDBRANCH  18  20
BRANCH  18  21
ATOM     21  C   UNL     1       0.205  13.984  21.965  0.00  0.00    +0.000 C 
ATOM     22  C   UNL     1      -0.932  13.653  22.931  0.00  0.00    +0.000 C 
ENDBRANCH  18  21
ENDBRANCH  17  18
ENDBRANCH  16  17
ENDBRANCH  12  16
ENDBRANCH   1  13
BRANCH   7  23
ATOM     23  S   UNL     1       5.501   5.704  15.758  0.00  0.00    +0.000 S 
ATOM     24  O   UNL     1       5.376   4.459  15.026  0.00  0.00    +0.000 OA
ATOM     25  O   UNL     1       5.143   6.965  15.157  0.00  0.00    +0.000 OA
BRANCH  23  26
ATOM     26  N   UNL     1       7.097   5.808  16.353  0.00  0.00    +0.000 NA
ATOM     27  C   UNL     1       7.418   6.982  17.184  0.00  0.00    +0.000 C 
ATOM     28  C   UNL     1       7.683   4.557  16.863  0.00  0.00    +0.000 C 
ENDBRANCH  23  26
ENDBRANCH   7  23
BRANCH   3  29
ATOM     29  C   UNL     1       2.177   3.870  21.547  0.00  0.00    +0.000 C 
ATOM     30  C   UNL     1       1.155   2.867  21.032  0.00  0.00    +0.000 C 
ENDBRANCH   3  29
TORSDOF 9
ENDMDL
MODEL 7
REMARK VINA RESULT:      -6.5      1.431      1.981
REMARK  Name = 
REMARK  14 active torsions:
REMARK  status: ('A' for Active; 'I' for Inactive)
REMARK    1  A    between atoms: C_1  and  C_2
REMARK    2  A    between atoms: C_2  and  N_3
REMARK    3  A    between atoms: N_3  and  C_4
REMARK    4  A    between atoms: N_3  and  C_6
REMARK    5  A    between atoms: C_4  and  C_5
REMARK    6  A    between atoms: C_6  and  C_7
REMARK    7  A    between atoms: C_7  and  N_8
REMARK    8  A    between atoms: C_9  and  C_11
REMARK    9  A    between atoms: N_13  and  C_14
REMARK   10  A    between atoms: C_14  and  C_15
REMARK   11  A    between atoms: C_19  and  S_20
REMARK   12  A    between atoms: S_20  and  N_23
REMARK   13  A    between atoms: N_23  and  C_24
REMARK   14  A    between atoms: N_23  and  C_25
REMARK                            x       y       z     vdW  Elec       q    Type
REMARK                         _______ _______ _______ _____ _____    ______ ____
ROOT
ATOM      1  C   UNL     1       5.491   5.140  16.709  0.00  0.00    +0.000 A 
ATOM      2  C   UNL     1       5.138   4.319  17.712  0.00  0.00    +0.000 A 
ATOM      3  N   UNL     1       4.144   4.538  18.660  0.00  0.00    +0.000 N 
ATOM      4  C   UNL     1       3.491   5.790  18.679  0.00  0.00    +0.000 A 
ATOM      5  C   UNL     1       2.559   6.168  19.661  0.00  0.00    +0.000 A 
ATOM      6  C   UNL     1       1.970   7.438  19.659  0.00  0.00    +0.000 A 
ATOM      7  C   UNL     1       2.287   8.351  18.652  0.00  0.00    +0.000 A 
ATOM      8  C   UNL     1       3.202   8.017  17.662  0.00  0.00    +0.000 A 
ATOM      9  C   UNL     1       3.786   6.743  17.677  0.00  0.00    +0.000 A 
ATOM     10  C   UNL     1       4.741   6.408  16.593  0.00  0.00    +0.000 A 
ATOM     11  O   UNL     1       4.890   7.164  15.639  0.00  0.00    +0.000 OA
ENDROOT
BRANCH   1  13
ATOM     12  N   UNL     1       6.264   4.728  14.447  0.00  0.00    +0.000 N 
ATOM     13  C   UNL     1       6.573   4.711  15.784  0.00  0.00    +0.000 C 
ATOM     14  O   UNL     1       7.671   4.355  16.208  0.00  0.00    +0.000 OA
ATOM     15  H   UNL     1       5.410   5.197  14.135  0.00  0.00    +0.000 HD
BRANCH  12  16
ATOM     16  C   UNL     1       7.260   4.376  13.458  0.00  0.00    +0.000 C 
BRANCH  16  17
ATOM     17  C   UNL     1       6.671   3.920  12.108  0.00  0.00    +0.000 C 
BRANCH  17  18
ATOM     18  N   UNL     1       5.536   2.974  12.195  0.00  0.00    +0.000 NA
BRANCH  18  20
ATOM     19  C   UNL     1       3.617   3.136  10.552  0.00  0.00    +0.000 C 
ATOM     20  C   UNL     1       4.262   3.625  11.844  0.00  0.00    +0.000 C 
ENDBRANCH  18  20
BRANCH  18  21
ATOM     21  C   UNL     1       5.807   1.740  11.430  0.00  0.00    +0.000 C 
ATOM     22  C   UNL     1       7.233   1.556  10.914  0.00  0.00    +0.000 C 
ENDBRANCH  18  21
ENDBRANCH  17  18
ENDBRANCH  16  17
ENDBRANCH  12  16
ENDBRANCH   1  13
BRANCH   7  23
ATOM     23  S   UNL     1       1.554   9.974  18.655  0.00  0.00    +0.000 S 
ATOM     24  O   UNL     1       1.947  10.610  19.896  0.00  0.00    +0.000 OA
ATOM     25  O   UNL     1       1.832  10.586  17.379  0.00  0.00    +0.000 OA
BRANCH  23  26
ATOM     26  N   UNL     1      -0.112   9.622  18.746  0.00  0.00    +0.000 NA
ATOM     27  C   UNL     1      -0.792   9.961  20.009  0.00  0.00    +0.000 C 
ATOM     28  C   UNL     1      -0.911   9.944  17.552  0.00  0.00    +0.000 C 
ENDBRANCH  23  26
ENDBRANCH   7  23
BRANCH   3  29
ATOM     29  C   UNL     1       3.817   3.510  19.666  0.00  0.00    +0.000 C 
ATOM     30  C   UNL     1       2.864   2.462  19.109  0.00  0.00    +0.000 C 
ENDBRANCH   3  29
TORSDOF 9
ENDMDL
MODEL 8
REMARK VINA RESULT:      -6.5      3.198      8.776
REMARK  Name = 
REMARK  14 active torsions:
REMARK  status: ('A' for Active; 'I' for Inactive)
REMARK    1  A    between atoms: C_1  and  C_2
REMARK    2  A    between atoms: C_2  and  N_3
REMARK    3  A    between atoms: N_3  and  C_4
REMARK    4  A    between atoms: N_3  and  C_6
REMARK    5  A    between atoms: C_4  and  C_5
REMARK    6  A    between atoms: C_6  and  C_7
REMARK    7  A    between atoms: C_7  and  N_8
REMARK    8  A    between atoms: C_9  and  C_11
REMARK    9  A    between atoms: N_13  and  C_14
REMARK   10  A    between atoms: C_14  and  C_15
REMARK   11  A    between atoms: C_19  and  S_20
REMARK   12  A    between atoms: S_20  and  N_23
REMARK   13  A    between atoms: N_23  and  C_24
REMARK   14  A    between atoms: N_23  and  C_25
REMARK                            x       y       z     vdW  Elec       q    Type
REMARK                         _______ _______ _______ _____ _____    ______ ____
ROOT
ATOM      1  C   UNL     1       1.345   7.321  20.534  0.00  0.00    +0.000 A 
ATOM      2  C   UNL     1       1.403   6.113  21.121  0.00  0.00    +0.000 A 
ATOM      3  N   UNL     1       2.234   5.054  20.773  0.00  0.00    +0.000 N 
ATOM      4  C   UNL     1       3.035   5.173  19.617  0.00  0.00    +0.000 A 
ATOM      5  C   UNL     1       3.820   4.128  19.101  0.00  0.00    +0.000 A 
ATOM      6  C   UNL     1       4.565   4.285  17.925  0.00  0.00    +0.000 A 
ATOM      7  C   UNL     1       4.556   5.508  17.253  0.00  0.00    +0.000 A 
ATOM      8  C   UNL     1       3.794   6.567  17.730  0.00  0.00    +0.000 A 
ATOM      9  C   UNL     1       3.051   6.396  18.906  0.00  0.00    +0.000 A 
ATOM     10  C   UNL     1       2.267   7.553  19.402  0.00  0.00    +0.000 A 
ATOM     11  O   UNL     1       2.391   8.657  18.884  0.00  0.00    +0.000 OA
ENDROOT
BRANCH   1  13
ATOM     12  N   UNL     1       0.750   9.645  20.892  0.00  0.00    +0.000 N 
ATOM     13  C   UNL     1       0.397   8.331  21.072  0.00  0.00    +0.000 C 
ATOM     14  O   UNL     1      -0.634   7.993  21.650  0.00  0.00    +0.000 OA
ATOM     15  H   UNL     1       1.517   9.876  20.256  0.00  0.00    +0.000 HD
BRANCH  12  16
ATOM     16  C   UNL     1      -0.126  10.708  21.334  0.00  0.00    +0.000 C 
BRANCH  16  17
ATOM     17  C   UNL     1       0.361  12.121  20.954  0.00  0.00    +0.000 C 
BRANCH  17  18
ATOM     18  N   UNL     1      -0.693  13.156  20.859  0.00  0.00    +0.000 NA
BRANCH  18  20
ATOM     19  C   UNL     1       0.389  13.506  18.597  0.00  0.00    +0.000 C 
ATOM     20  C   UNL     1      -0.850  13.640  19.477  0.00  0.00    +0.000 C 
ENDBRANCH  18  20
BRANCH  18  21
ATOM     21  C   UNL     1      -1.953  12.697  21.478  0.00  0.00    +0.000 C 
ATOM     22  C   UNL     1      -3.109  13.696  21.491  0.00  0.00    +0.000 C 
ENDBRANCH  18  21
ENDBRANCH  17  18
ENDBRANCH  16  17
ENDBRANCH  12  16
ENDBRANCH   1  13
BRANCH   7  23
ATOM     23  S   UNL     1       5.487   5.707  15.748  0.00  0.00    +0.000 S 
ATOM     24  O   UNL     1       5.363   4.465  15.011  0.00  0.00    +0.000 OA
ATOM     25  O   UNL     1       5.110   6.968  15.160  0.00  0.00    +0.000 OA
BRANCH  23  26
ATOM     26  N   UNL     1       7.089   5.822  16.323  0.00  0.00    +0.000 NA
ATOM     27  C   UNL     1       7.408   6.990  17.163  0.00  0.00    +0.000 C 
ATOM     28  C   UNL     1       7.695   4.572  16.812  0.00  0.00    +0.000 C 
ENDBRANCH  23  26
ENDBRANCH   7  23
BRANCH   3  29
ATOM     29  C   UNL     1       2.237   3.805  21.558  0.00  0.00    +0.000 C 
ATOM     30  C   UNL     1       1.160   2.840  21.082  0.00  0.00    +0.000 C 
ENDBRANCH   3  29
TORSDOF 9
ENDMDL
MODEL 9
REMARK VINA RESULT:      -6.5      2.994      8.324
REMARK  Name = 
REMARK  14 active torsions:
REMARK  status: ('A' for Active; 'I' for Inactive)
REMARK    1  A    between atoms: C_1  and  C_2
REMARK    2  A    between atoms: C_2  and  N_3
REMARK    3  A    between atoms: N_3  and  C_4
REMARK    4  A    between atoms: N_3  and  C_6
REMARK    5  A    between atoms: C_4  and  C_5
REMARK    6  A    between atoms: C_6  and  C_7
REMARK    7  A    between atoms: C_7  and  N_8
REMARK    8  A    between atoms: C_9  and  C_11
REMARK    9  A    between atoms: N_13  and  C_14
REMARK   10  A    between atoms: C_14  and  C_15
REMARK   11  A    between atoms: C_19  and  S_20
REMARK   12  A    between atoms: S_20  and  N_23
REMARK   13  A    between atoms: N_23  and  C_24
REMARK   14  A    between atoms: N_23  and  C_25
REMARK                            x       y       z     vdW  Elec       q    Type
REMARK                         _______ _______ _______ _____ _____    ______ ____
ROOT
ATOM      1  C   UNL     1       1.368   8.144  19.924  0.00  0.00    +0.000 A 
ATOM      2  C   UNL     1       1.297   7.006  20.636  0.00  0.00    +0.000 A 
ATOM      3  N   UNL     1       2.042   5.849  20.439  0.00  0.00    +0.000 N 
ATOM      4  C   UNL     1       2.890   5.773  19.313  0.00  0.00    +0.000 A 
ATOM      5  C   UNL     1       3.597   4.616  18.945  0.00  0.00    +0.000 A 
ATOM      6  C   UNL     1       4.394   4.581  17.794  0.00  0.00    +0.000 A 
ATOM      7  C   UNL     1       4.518   5.720  16.998  0.00  0.00    +0.000 A 
ATOM      8  C   UNL     1       3.837   6.885  17.327  0.00  0.00    +0.000 A 
ATOM      9  C   UNL     1       3.041   6.907  18.480  0.00  0.00    +0.000 A 
ATOM     10  C   UNL     1       2.346   8.173  18.817  0.00  0.00    +0.000 A 
ATOM     11  O   UNL     1       2.588   9.200  18.192  0.00  0.00    +0.000 OA
ENDROOT
BRANCH   1  13
ATOM     12  N   UNL     1      -0.166   9.910  19.285  0.00  0.00    +0.000 N 
ATOM     13  C   UNL     1       0.496   9.283  20.311  0.00  0.00    +0.000 C 
ATOM     14  O   UNL     1       0.391   9.637  21.484  0.00  0.00    +0.000 OA
ATOM     15  H   UNL     1      -0.188   9.473  18.361  0.00  0.00    +0.000 HD
BRANCH  12  16
ATOM     16  C   UNL     1      -1.079  11.000  19.556  0.00  0.00    +0.000 C 
BRANCH  16  17
ATOM     17  C   UNL     1      -1.277  11.963  18.369  0.00  0.00    +0.000 C 
BRANCH  17  18
ATOM     18  N   UNL     1      -2.571  11.846  17.661  0.00  0.00    +0.000 NA
BRANCH  18  20
ATOM     19  C   UNL     1      -2.736   9.643  16.426  0.00  0.00    +0.000 C 
ATOM     20  C   UNL     1      -2.423  11.134  16.380  0.00  0.00    +0.000 C 
ENDBRANCH  18  20
BRANCH  18  21
ATOM     21  C   UNL     1      -3.615  11.283  18.540  0.00  0.00    +0.000 C 
ATOM     22  C   UNL     1      -4.992  11.942  18.474  0.00  0.00    +0.000 C 
ENDBRANCH  18  21
ENDBRANCH  17  18
ENDBRANCH  16  17
ENDBRANCH  12  16
ENDBRANCH   1  13
BRANCH   7  23
ATOM     23  S   UNL     1       5.515   5.675  15.524  0.00  0.00    +0.000 S 
ATOM     24  O   UNL     1       5.329   4.366  14.930  0.00  0.00    +0.000 OA
ATOM     25  O   UNL     1       5.253   6.880  14.776  0.00  0.00    +0.000 OA
BRANCH  23  26
ATOM     26  N   UNL     1       7.099   5.750  16.153  0.00  0.00    +0.000 NA
ATOM     27  C   UNL     1       7.433   6.932  16.967  0.00  0.00    +0.000 C 
ATOM     28  C   UNL     1       7.639   4.495  16.703  0.00  0.00    +0.000 C 
ENDBRANCH  23  26
ENDBRANCH   7  23
BRANCH   3  29
ATOM     29  C   UNL     1       1.905   4.696  21.349  0.00  0.00    +0.000 C 
ATOM     30  C   UNL     1       1.053   3.594  20.736  0.00  0.00    +0.000 C 
ENDBRANCH   3  29
TORSDOF 9
ENDMDL
