MODEL 1
REMARK VINA RESULT:      -8.8      0.000      0.000
REMARK  Name = 
REMARK  6 active torsions:
REMARK  status: ('A' for Active; 'I' for Inactive)
REMARK    1  A    between atoms: C_5  and  N_6
REMARK    2  A    between atoms: N_9  and  C_10
REMARK    3  A    between atoms: C_10  and  C_11
REMARK    4  A    between atoms: C_11  and  C_12
REMARK    5  A    between atoms: C_12  and  C_13
REMARK    6  A    between atoms: C_13  and  C_14
REMARK                            x       y       z     vdW  Elec       q    Type
REMARK                         _______ _______ _______ _____ _____    ______ ____
ROOT
ATOM      1  N   UNL     1       4.896   5.300  17.926  0.00  0.00    +0.000 N 
ATOM      2  C   UNL     1       5.968   5.668  18.864  0.00  0.00    +0.000 C 
ATOM      3  C   UNL     1       7.344   5.571  18.176  0.00  0.00    +0.000 C 
ATOM      4  N   UNL     1       7.444   6.396  16.948  0.00  0.00    +0.000 NA
ATOM      5  C   UNL     1       6.388   5.920  16.020  0.00  0.00    +0.000 C 
ATOM      6  C   UNL     1       4.944   5.923  16.591  0.00  0.00    +0.000 C 
ENDROOT
BRANCH   1  11
ATOM      7  C   UNL     1       3.672   1.799  17.725  0.00  0.00    +0.000 A 
ATOM      8  C   UNL     1       2.637   1.802  18.647  0.00  0.00    +0.000 A 
ATOM      9  C   UNL     1       2.301   2.981  19.303  0.00  0.00    +0.000 A 
ATOM     10  C   UNL     1       3.033   4.164  19.078  0.00  0.00    +0.000 A 
ATOM     11  C   UNL     1       4.104   4.179  18.150  0.00  0.00    +0.000 A 
ATOM     12  C   UNL     1       4.379   2.976  17.475  0.00  0.00    +0.000 A 
ATOM     13  O   UNL     1       2.752   5.324  19.772  0.00  0.00    +0.000 OA
ATOM     14  C   UNL     1       1.895   5.104  20.894  0.00  0.00    +0.000 C 
ATOM     15  C   UNL     1       0.749   4.183  20.525  0.00  0.00    +0.000 C 
ATOM     16  O   UNL     1       1.245   2.891  20.176  0.00  0.00    +0.000 OA
ENDBRANCH   1  11
BRANCH   4  17
ATOM     17  C   UNL     1       7.285   7.833  17.231  0.00  0.00    +0.000 C 
BRANCH  17  18
ATOM     18  C   UNL     1       8.397   8.403  18.127  0.00  0.00    +0.000 C 
BRANCH  18  19
ATOM     19  C   UNL     1       8.394   9.930  18.213  0.00  0.00    +0.000 C 
BRANCH  19  20
ATOM     20  C   UNL     1       9.496  10.437  19.143  0.00  0.00    +0.000 C 
BRANCH  20  21
ATOM     21  C   UNL     1      10.370  11.451  18.496  0.00  0.00    +0.000 A 
ATOM     22  C   UNL     1      11.659  11.261  18.048  0.00  0.00    +0.000 A 
ATOM     23  N   UNL     1      12.119  12.449  17.553  0.00  0.00    +0.000 N 
ATOM     24  C   UNL     1      11.155  13.421  17.674  0.00  0.00    +0.000 A 
ATOM     25  C   UNL     1      11.183  14.774  17.322  0.00  0.00    +0.000 A 
ATOM     26  C   UNL     1      10.034  15.534  17.565  0.00  0.00    +0.000 A 
ATOM     27  C   UNL     1       8.899  14.959  18.133  0.00  0.00    +0.000 A 
ATOM     28  C   UNL     1       8.886  13.604  18.479  0.00  0.00    +0.000 A 
ATOM     29  C   UNL     1      10.037  12.822  18.250  0.00  0.00    +0.000 A 
ATOM     30  H   UNL     1      13.040  12.602  17.169  0.00  0.00    +0.000 HD
ENDBRANCH  20  21
ENDBRANCH  19  20
ENDBRANCH  18  19
ENDBRANCH  17  18
ENDBRANCH   4  17
TORSDOF 6
ENDMDL
MODEL 2
REMARK VINA RESULT:      -8.4      1.133      1.636
REMARK  Name = 
REMARK  6 active torsions:
REMARK  status: ('A' for Active; 'I' for Inactive)
REMARK    1  A    between atoms: C_5  and  N_6
REMARK    2  A    between atoms: N_9  and  C_10
REMARK    3  A    between atoms: C_10  and  C_11
REMARK    4  A    between atoms: C_11  and  C_12
REMARK    5  A    between atoms: C_12  and  C_13
REMARK    6  A    between atoms: C_13  and  C_14
REMARK                            x       y       z     vdW  Elec       q    Type
REMARK                         _______ _______ _______ _____ _____    ______ ____
ROOT
ATOM      1  N   UNL     1       4.993   5.397  18.030  0.00  0.00    +0.000 N 
ATOM      2  C   UNL     1       6.209   5.516  18.849  0.00  0.00    +0.000 C 
ATOM      3  C   UNL     1       7.466   5.490  17.957  0.00  0.00    +0.000 C 
ATOM      4  N   UNL     1       7.461   6.537  16.907  0.00  0.00    +0.000 NA
ATOM      5  C   UNL     1       6.253   6.309  16.074  0.00  0.00    +0.000 C 
ATOM      6  C   UNL     1       4.906   6.270  16.846  0.00  0.00    +0.000 C 
ENDROOT
BRANCH   1  11
ATOM      7  C   UNL     1       3.621   1.984  17.511  0.00  0.00    +0.000 A 
ATOM      8  C   UNL     1       2.587   1.946  18.433  0.00  0.00    +0.000 A 
ATOM      9  C   UNL     1       2.302   3.073  19.197  0.00  0.00    +0.000 A 
ATOM     10  C   UNL     1       3.083   4.239  19.078  0.00  0.00    +0.000 A 
ATOM     11  C   UNL     1       4.154   4.295  18.153  0.00  0.00    +0.000 A 
ATOM     12  C   UNL     1       4.378   3.148  17.368  0.00  0.00    +0.000 A 
ATOM     13  O   UNL     1       2.852   5.341  19.877  0.00  0.00    +0.000 OA
ATOM     14  C   UNL     1       1.985   5.055  20.978  0.00  0.00    +0.000 C 
ATOM     15  C   UNL     1       0.801   4.222  20.529  0.00  0.00    +0.000 C 
ATOM     16  O   UNL     1       1.242   2.947  20.061  0.00  0.00    +0.000 OA
ENDBRANCH   1  11
BRANCH   4  17
ATOM     17  C   UNL     1       7.455   7.896  17.480  0.00  0.00    +0.000 C 
BRANCH  17  18
ATOM     18  C   UNL     1       8.507   8.094  18.583  0.00  0.00    +0.000 C 
BRANCH  18  19
ATOM     19  C   UNL     1       8.811   9.563  18.883  0.00  0.00    +0.000 C 
BRANCH  19  20
ATOM     20  C   UNL     1       8.961  10.374  17.597  0.00  0.00    +0.000 C 
BRANCH  20  21
ATOM     21  C   UNL     1       9.098  11.833  17.851  0.00  0.00    +0.000 A 
ATOM     22  C   UNL     1       8.199  12.817  17.503  0.00  0.00    +0.000 A 
ATOM     23  N   UNL     1       8.717  14.023  17.884  0.00  0.00    +0.000 N 
ATOM     24  C   UNL     1       9.946  13.850  18.472  0.00  0.00    +0.000 A 
ATOM     25  C   UNL     1      10.842  14.788  18.993  0.00  0.00    +0.000 A 
ATOM     26  C   UNL     1      12.039  14.313  19.540  0.00  0.00    +0.000 A 
ATOM     27  C   UNL     1      12.324  12.949  19.568  0.00  0.00    +0.000 A 
ATOM     28  C   UNL     1      11.417  12.023  19.044  0.00  0.00    +0.000 A 
ATOM     29  C   UNL     1      10.209  12.481  18.480  0.00  0.00    +0.000 A 
ATOM     30  H   UNL     1       8.272  14.918  17.741  0.00  0.00    +0.000 HD
ENDBRANCH  20  21
ENDBRANCH  19  20
ENDBRANCH  18  19
ENDBRANCH  17  18
ENDBRANCH   4  17
TORSDOF 6
ENDMDL
MODEL 3
REMARK VINA RESULT:      -8.2      1.497      1.976
REMARK  Name = 
REMARK  6 active torsions:
REMARK  status: ('A' for Active; 'I' for Inactive)
REMARK    1  A    between atoms: C_5  and  N_6
REMARK    2  A    between atoms: N_9  and  C_10
REMARK    3  A    between atoms: C_10  and  C_11
REMARK    4  A    between atoms: C_11  and  C_12
REMARK    5  A    between atoms: C_12  and  C_13
REMARK    6  A    between atoms: C_13  and  C_14
REMARK                            x       y       z     vdW  Elec       q    Type
REMARK                         _______ _______ _______ _____ _____    ______ ____
ROOT
ATOM      1  N   UNL     1       4.897   5.199  17.901  0.00  0.00    +0.000 N 
ATOM      2  C   UNL     1       5.816   5.707  18.930  0.00  0.00    +0.000 C 
ATOM      3  C   UNL     1       7.280   5.548  18.474  0.00  0.00    +0.000 C 
ATOM      4  N   UNL     1       7.564   6.205  17.176  0.00  0.00    +0.000 NA
ATOM      5  C   UNL     1       6.659   5.591  16.172  0.00  0.00    +0.000 C 
ATOM      6  C   UNL     1       5.145   5.641  16.517  0.00  0.00    +0.000 C 
ENDROOT
BRANCH   1  11
ATOM      7  C   UNL     1       3.595   1.722  17.785  0.00  0.00    +0.000 A 
ATOM      8  C   UNL     1       2.559   1.771  18.704  0.00  0.00    +0.000 A 
ATOM      9  C   UNL     1       2.248   2.974  19.330  0.00  0.00    +0.000 A 
ATOM     10  C   UNL     1       3.007   4.134  19.076  0.00  0.00    +0.000 A 
ATOM     11  C   UNL     1       4.079   4.102  18.151  0.00  0.00    +0.000 A 
ATOM     12  C   UNL     1       4.329   2.876  17.507  0.00  0.00    +0.000 A 
ATOM     13  O   UNL     1       2.751   5.317  19.740  0.00  0.00    +0.000 OA
ATOM     14  C   UNL     1       1.887   5.145  20.866  0.00  0.00    +0.000 C 
ATOM     15  C   UNL     1       0.721   4.241  20.517  0.00  0.00    +0.000 C 
ATOM     16  O   UNL     1       1.189   2.929  20.202  0.00  0.00    +0.000 OA
ENDBRANCH   1  11
BRANCH   4  17
ATOM     17  C   UNL     1       7.365   7.664  17.239  0.00  0.00    +0.000 C 
BRANCH  17  18
ATOM     18  C   UNL     1       8.351   8.372  18.182  0.00  0.00    +0.000 C 
BRANCH  18  19
ATOM     19  C   UNL     1       8.263   9.898  18.129  0.00  0.00    +0.000 C 
BRANCH  19  20
ATOM     20  C   UNL     1       9.646  10.539  18.233  0.00  0.00    +0.000 C 
BRANCH  20  21
ATOM     21  C   UNL     1       9.590  11.953  18.690  0.00  0.00    +0.000 A 
ATOM     22  C   UNL     1       9.756  13.077  17.912  0.00  0.00    +0.000 A 
ATOM     23  N   UNL     1       9.667  14.175  18.721  0.00  0.00    +0.000 N 
ATOM     24  C   UNL     1       9.450  13.791  20.022  0.00  0.00    +0.000 A 
ATOM     25  C   UNL     1       9.311  14.558  21.183  0.00  0.00    +0.000 A 
ATOM     26  C   UNL     1       9.094  13.883  22.388  0.00  0.00    +0.000 A 
ATOM     27  C   UNL     1       9.014  12.493  22.429  0.00  0.00    +0.000 A 
ATOM     28  C   UNL     1       9.154  11.738  21.260  0.00  0.00    +0.000 A 
ATOM     29  C   UNL     1       9.382  12.399  20.035  0.00  0.00    +0.000 A 
ATOM     30  H   UNL     1       9.763  15.132  18.416  0.00  0.00    +0.000 HD
ENDBRANCH  20  21
ENDBRANCH  19  20
ENDBRANCH  18  19
ENDBRANCH  17  18
ENDBRANCH   4  17
TORSDOF 6
ENDMDL
MODEL 4
REMARK VINA RESULT:      -8.2      1.367      1.676
REMARK  Name = 
REMARK  6 active torsions:
REMARK  status: ('A' for Active; 'I' for Inactive)
REMARK    1  A    between atoms: C_5  and  N_6
REMARK    2  A    between atoms: N_9  and  C_10
REMARK    3  A    between atoms: C_10  and  C_11
REMARK    4  A    between atoms: C_11  and  C_12
REMARK    5  A    between atoms: C_12  and  C_13
REMARK    6  A    between atoms: C_13  and  C_14
REMARK                            x       y       z     vdW  Elec       q    Type
REMARK                         _______ _______ _______ _____ _____    ______ ____
ROOT
ATOM      1  N   UNL     1       4.778   5.180  18.247  0.00  0.00    +0.000 N 
ATOM      2  C   UNL     1       5.946   5.364  19.122  0.00  0.00    +0.000 C 
ATOM      3  C   UNL     1       7.242   5.413  18.290  0.00  0.00    +0.000 C 
ATOM      4  N   UNL     1       7.227   6.462  17.242  0.00  0.00    +0.000 NA
ATOM      5  C   UNL     1       6.073   6.170  16.354  0.00  0.00    +0.000 C 
ATOM      6  C   UNL     1       4.696   6.052  17.062  0.00  0.00    +0.000 C 
ENDROOT
BRANCH   1  11
ATOM      7  C   UNL     1       3.407   1.829  17.417  0.00  0.00    +0.000 A 
ATOM      8  C   UNL     1       2.555   1.594  18.484  0.00  0.00    +0.000 A 
ATOM      9  C   UNL     1       2.387   2.569  19.461  0.00  0.00    +0.000 A 
ATOM     10  C   UNL     1       3.110   3.777  19.404  0.00  0.00    +0.000 A 
ATOM     11  C   UNL     1       3.997   4.032  18.329  0.00  0.00    +0.000 A 
ATOM     12  C   UNL     1       4.102   3.037  17.339  0.00  0.00    +0.000 A 
ATOM     13  O   UNL     1       3.002   4.725  20.401  0.00  0.00    +0.000 OA
ATOM     14  C   UNL     1       2.351   4.225  21.572  0.00  0.00    +0.000 C 
ATOM     15  C   UNL     1       1.124   3.415  21.204  0.00  0.00    +0.000 C 
ATOM     16  O   UNL     1       1.501   2.255  20.462  0.00  0.00    +0.000 OA
ENDBRANCH   1  11
BRANCH   4  17
ATOM     17  C   UNL     1       7.118   7.816  17.816  0.00  0.00    +0.000 C 
BRANCH  17  18
ATOM     18  C   UNL     1       8.258   8.752  17.385  0.00  0.00    +0.000 C 
BRANCH  18  19
ATOM     19  C   UNL     1       8.339  10.040  18.207  0.00  0.00    +0.000 C 
BRANCH  19  20
ATOM     20  C   UNL     1       9.289   9.885  19.393  0.00  0.00    +0.000 C 
BRANCH  20  21
ATOM     21  C   UNL     1       9.867  11.180  19.838  0.00  0.00    +0.000 A 
ATOM     22  C   UNL     1       9.656  11.803  21.048  0.00  0.00    +0.000 A 
ATOM     23  N   UNL     1      10.339  12.988  21.043  0.00  0.00    +0.000 N 
ATOM     24  C   UNL     1      10.991  13.157  19.847  0.00  0.00    +0.000 A 
ATOM     25  C   UNL     1      11.789  14.211  19.390  0.00  0.00    +0.000 A 
ATOM     26  C   UNL     1      12.332  14.107  18.105  0.00  0.00    +0.000 A 
ATOM     27  C   UNL     1      12.090  12.989  17.311  0.00  0.00    +0.000 A 
ATOM     28  C   UNL     1      11.291  11.942  17.781  0.00  0.00    +0.000 A 
ATOM     29  C   UNL     1      10.727  12.030  19.070  0.00  0.00    +0.000 A 
ATOM     30  H   UNL     1      10.352  13.654  21.801  0.00  0.00    +0.000 HD
ENDBRANCH  20  21
ENDBRANCH  19  20
ENDBRANCH  18  19
ENDBRANCH  17  18
ENDBRANCH   4  17
TORSDOF 6
ENDMDL
MODEL 5
REMARK VINA RESULT:      -8.2      1.610      1.809
REMARK  Name = 
REMARK  6 active torsions:
REMARK  status: ('A' for Active; 'I' for Inactive)
REMARK    1  A    between atoms: C_5  and  N_6
REMARK    2  A    between atoms: N_9  and  C_10
REMARK    3  A    between atoms: C_10  and  C_11
REMARK    4  A    between atoms: C_11  and  C_12
REMARK    5  A    between atoms: C_12  and  C_13
REMARK    6  A    between atoms: C_13  and  C_14
REMARK                            x       y       z     vdW  Elec       q    Type
REMARK                         _______ _______ _______ _____ _____    ______ ____
ROOT
ATOM      1  N   UNL     1       5.164   5.085  18.250  0.00  0.00    +0.000 N 
ATOM      2  C   UNL     1       6.554   4.647  18.443  0.00  0.00    +0.000 C 
ATOM      3  C   UNL     1       7.406   4.992  17.206  0.00  0.00    +0.000 C 
ATOM      4  N   UNL     1       7.375   6.433  16.855  0.00  0.00    +0.000 NA
ATOM      5  C   UNL     1       5.956   6.785  16.599  0.00  0.00    +0.000 C 
ATOM      6  C   UNL     1       4.966   6.457  17.750  0.00  0.00    +0.000 C 
ENDROOT
BRANCH   1  11
ATOM      7  C   UNL     1       3.147   2.166  17.150  0.00  0.00    +0.000 A 
ATOM      8  C   UNL     1       2.129   2.148  18.090  0.00  0.00    +0.000 A 
ATOM      9  C   UNL     1       2.073   3.138  19.065  0.00  0.00    +0.000 A 
ATOM     10  C   UNL     1       3.067   4.134  19.138  0.00  0.00    +0.000 A 
ATOM     11  C   UNL     1       4.125   4.162  18.196  0.00  0.00    +0.000 A 
ATOM     12  C   UNL     1       4.117   3.168  17.199  0.00  0.00    +0.000 A 
ATOM     13  O   UNL     1       3.060   5.082  20.140  0.00  0.00    +0.000 OA
ATOM     14  C   UNL     1       2.157   4.759  21.201  0.00  0.00    +0.000 C 
ATOM     15  C   UNL     1       0.831   4.272  20.652  0.00  0.00    +0.000 C 
ATOM     16  O   UNL     1       1.012   3.052  19.933  0.00  0.00    +0.000 OA
ENDBRANCH   1  11
BRANCH   4  17
ATOM     17  C   UNL     1       7.940   7.275  17.926  0.00  0.00    +0.000 C 
BRANCH  17  18
ATOM     18  C   UNL     1       7.579   8.762  17.782  0.00  0.00    +0.000 C 
BRANCH  18  19
ATOM     19  C   UNL     1       8.787   9.697  17.858  0.00  0.00    +0.000 C 
BRANCH  19  20
ATOM     20  C   UNL     1       9.181   9.982  19.306  0.00  0.00    +0.000 C 
BRANCH  20  21
ATOM     21  C   UNL     1       9.911  11.268  19.460  0.00  0.00    +0.000 A 
ATOM     22  C   UNL     1      10.983  11.700  18.711  0.00  0.00    +0.000 A 
ATOM     23  N   UNL     1      11.382  12.914  19.196  0.00  0.00    +0.000 N 
ATOM     24  C   UNL     1      10.593  13.286  20.256  0.00  0.00    +0.000 A 
ATOM     25  C   UNL     1      10.639  14.426  21.065  0.00  0.00    +0.000 A 
ATOM     26  C   UNL     1       9.691  14.538  22.088  0.00  0.00    +0.000 A 
ATOM     27  C   UNL     1       8.730  13.550  22.288  0.00  0.00    +0.000 A 
ATOM     28  C   UNL     1       8.696  12.415  21.471  0.00  0.00    +0.000 A 
ATOM     29  C   UNL     1       9.648  12.278  20.440  0.00  0.00    +0.000 A 
ATOM     30  H   UNL     1      12.156  13.457  18.840  0.00  0.00    +0.000 HD
ENDBRANCH  20  21
ENDBRANCH  19  20
ENDBRANCH  18  19
ENDBRANCH  17  18
ENDBRANCH   4  17
TORSDOF 6
ENDMDL
MODEL 6
REMARK VINA RESULT:      -8.1      1.492      1.701
REMARK  Name = 
REMARK  6 active torsions:
REMARK  status: ('A' for Active; 'I' for Inactive)
REMARK    1  A    between atoms: C_5  and  N_6
REMARK    2  A    between atoms: N_9  and  C_10
REMARK    3  A    between atoms: C_10  and  C_11
REMARK    4  A    between atoms: C_11  and  C_12
REMARK    5  A    between atoms: C_12  and  C_13
REMARK    6  A    between atoms: C_13  and  C_14
REMARK                            x       y       z     vdW  Elec       q    Type
REMARK                         _______ _______ _______ _____ _____    ______ ____
ROOT
ATOM      1  N   UNL     1       5.110   5.033  18.204  0.00  0.00    +0.000 N 
ATOM      2  C   UNL     1       6.507   4.586  18.096  0.00  0.00    +0.000 C 
ATOM      3  C   UNL     1       7.159   5.154  16.820  0.00  0.00    +0.000 C 
ATOM      4  N   UNL     1       7.095   6.633  16.736  0.00  0.00    +0.000 NA
ATOM      5  C   UNL     1       5.659   7.006  16.772  0.00  0.00    +0.000 C 
ATOM      6  C   UNL     1       4.857   6.470  17.989  0.00  0.00    +0.000 C 
ENDROOT
BRANCH   1  11
ATOM      7  C   UNL     1       3.048   2.150  17.093  0.00  0.00    +0.000 A 
ATOM      8  C   UNL     1       2.046   2.127  18.050  0.00  0.00    +0.000 A 
ATOM      9  C   UNL     1       2.015   3.103  19.040  0.00  0.00    +0.000 A 
ATOM     10  C   UNL     1       3.020   4.088  19.112  0.00  0.00    +0.000 A 
ATOM     11  C   UNL     1       4.062   4.121  18.153  0.00  0.00    +0.000 A 
ATOM     12  C   UNL     1       4.028   3.142  17.142  0.00  0.00    +0.000 A 
ATOM     13  O   UNL     1       3.037   5.021  20.129  0.00  0.00    +0.000 OA
ATOM     14  C   UNL     1       2.150   4.690  21.200  0.00  0.00    +0.000 C 
ATOM     15  C   UNL     1       0.811   4.223  20.666  0.00  0.00    +0.000 C 
ATOM     16  O   UNL     1       0.968   3.013  19.925  0.00  0.00    +0.000 OA
ENDBRANCH   1  11
BRANCH   4  17
ATOM     17  C   UNL     1       7.833   7.282  17.835  0.00  0.00    +0.000 C 
BRANCH  17  18
ATOM     18  C   UNL     1       7.941   8.807  17.677  0.00  0.00    +0.000 C 
BRANCH  18  19
ATOM     19  C   UNL     1       8.933   9.456  18.644  0.00  0.00    +0.000 C 
BRANCH  19  20
ATOM     20  C   UNL     1       9.297  10.872  18.200  0.00  0.00    +0.000 C 
BRANCH  20  21
ATOM     21  C   UNL     1       9.662  11.754  19.340  0.00  0.00    +0.000 A 
ATOM     22  C   UNL     1       9.522  11.468  20.680  0.00  0.00    +0.000 A 
ATOM     23  N   UNL     1       9.940  12.556  21.395  0.00  0.00    +0.000 N 
ATOM     24  C   UNL     1      10.348  13.556  20.546  0.00  0.00    +0.000 A 
ATOM     25  C   UNL     1      10.833  14.838  20.823  0.00  0.00    +0.000 A 
ATOM     26  C   UNL     1      11.177  15.652  19.739  0.00  0.00    +0.000 A 
ATOM     27  C   UNL     1      11.046  15.197  18.429  0.00  0.00    +0.000 A 
ATOM     28  C   UNL     1      10.560  13.912  18.168  0.00  0.00    +0.000 A 
ATOM     29  C   UNL     1      10.200  13.078  19.246  0.00  0.00    +0.000 A 
ATOM     30  H   UNL     1       9.935  12.626  22.402  0.00  0.00    +0.000 HD
ENDBRANCH  20  21
ENDBRANCH  19  20
ENDBRANCH  18  19
ENDBRANCH  17  18
ENDBRANCH   4  17
TORSDOF 6
ENDMDL
MODEL 7
REMARK VINA RESULT:      -8.0      1.288      1.560
REMARK  Name = 
REMARK  6 active torsions:
REMARK  status: ('A' for Active; 'I' for Inactive)
REMARK    1  A    between atoms: C_5  and  N_6
REMARK    2  A    between atoms: N_9  and  C_10
REMARK    3  A    between atoms: C_10  and  C_11
REMARK    4  A    between atoms: C_11  and  C_12
REMARK    5  A    between atoms: C_12  and  C_13
REMARK    6  A    between atoms: C_13  and  C_14
REMARK                            x       y       z     vdW  Elec       q    Type
REMARK                         _______ _______ _______ _____ _____    ______ ____
ROOT
ATOM      1  N   UNL     1       5.169   5.291  18.331  0.00  0.00    +0.000 N 
ATOM      2  C   UNL     1       6.581   4.949  18.560  0.00  0.00    +0.000 C 
ATOM      3  C   UNL     1       7.441   5.363  17.350  0.00  0.00    +0.000 C 
ATOM      4  N   UNL     1       7.320   6.801  17.009  0.00  0.00    +0.000 NA
ATOM      5  C   UNL     1       5.887   7.057  16.715  0.00  0.00    +0.000 C 
ATOM      6  C   UNL     1       4.891   6.651  17.835  0.00  0.00    +0.000 C 
ENDROOT
BRANCH   1  11
ATOM      7  C   UNL     1       3.359   2.285  17.112  0.00  0.00    +0.000 A 
ATOM      8  C   UNL     1       2.352   2.154  18.055  0.00  0.00    +0.000 A 
ATOM      9  C   UNL     1       2.231   3.094  19.072  0.00  0.00    +0.000 A 
ATOM     10  C   UNL     1       3.152   4.154  19.184  0.00  0.00    +0.000 A 
ATOM     11  C   UNL     1       4.199   4.299  18.241  0.00  0.00    +0.000 A 
ATOM     12  C   UNL     1       4.256   3.351  17.201  0.00  0.00    +0.000 A 
ATOM     13  O   UNL     1       3.084   5.056  20.227  0.00  0.00    +0.000 OA
ATOM     14  C   UNL     1       2.214   4.624  21.277  0.00  0.00    +0.000 C 
ATOM     15  C   UNL     1       0.923   4.066  20.712  0.00  0.00    +0.000 C 
ATOM     16  O   UNL     1       1.186   2.895  19.939  0.00  0.00    +0.000 OA
ENDBRANCH   1  11
BRANCH   4  17
ATOM     17  C   UNL     1       7.795   7.670  18.101  0.00  0.00    +0.000 C 
BRANCH  17  18
ATOM     18  C   UNL     1       8.115   9.102  17.643  0.00  0.00    +0.000 C 
BRANCH  18  19
ATOM     19  C   UNL     1       8.780   9.958  18.722  0.00  0.00    +0.000 C 
BRANCH  19  20
ATOM     20  C   UNL     1       9.820  10.902  18.120  0.00  0.00    +0.000 C 
BRANCH  20  21
ATOM     21  C   UNL     1       9.749  12.273  18.692  0.00  0.00    +0.000 A 
ATOM     22  C   UNL     1      10.614  12.828  19.609  0.00  0.00    +0.000 A 
ATOM     23  N   UNL     1      10.177  14.090  19.900  0.00  0.00    +0.000 N 
ATOM     24  C   UNL     1       9.033  14.372  19.193  0.00  0.00    +0.000 A 
ATOM     25  C   UNL     1       8.234  15.520  19.183  0.00  0.00    +0.000 A 
ATOM     26  C   UNL     1       7.111  15.524  18.349  0.00  0.00    +0.000 A 
ATOM     27  C   UNL     1       6.804  14.424  17.552  0.00  0.00    +0.000 A 
ATOM     28  C   UNL     1       7.613  13.284  17.572  0.00  0.00    +0.000 A 
ATOM     29  C   UNL     1       8.745  13.255  18.412  0.00  0.00    +0.000 A 
ATOM     30  H   UNL     1      10.617  14.721  20.553  0.00  0.00    +0.000 HD
ENDBRANCH  20  21
ENDBRANCH  19  20
ENDBRANCH  18  19
ENDBRANCH  17  18
ENDBRANCH   4  17
TORSDOF 6
ENDMDL
MODEL 8
REMARK VINA RESULT:      -8.0      1.352      1.769
REMARK  Name = 
REMARK  6 active torsions:
REMARK  status: ('A' for Active; 'I' for Inactive)
REMARK    1  A    between atoms: C_5  and  N_6
REMARK    2  A    between atoms: N_9  and  C_10
REMARK    3  A    between atoms: C_10  and  C_11
REMARK    4  A    between atoms: C_11  and  C_12
REMARK    5  A    between atoms: C_12  and  C_13
REMARK    6  A    between atoms: C_13  and  C_14
REMARK                            x       y       z     vdW  Elec       q    Type
REMARK                         _______ _______ _______ _____ _____    ______ ____
ROOT
ATOM      1  N   UNL     1       4.968   5.406  17.999  0.00  0.00    +0.000 N 
ATOM      2  C   UNL     1       6.105   5.684  18.890  0.00  0.00    +0.000 C 
ATOM      3  C   UNL     1       7.427   5.672  18.099  0.00  0.00    +0.000 C 
ATOM      4  N   UNL     1       7.436   6.620  16.958  0.00  0.00    +0.000 NA
ATOM      5  C   UNL     1       6.316   6.233  16.065  0.00  0.00    +0.000 C 
ATOM      6  C   UNL     1       4.917   6.164  16.736  0.00  0.00    +0.000 C 
ENDROOT
BRANCH   1  11
ATOM      7  C   UNL     1       3.822   1.892  17.630  0.00  0.00    +0.000 A 
ATOM      8  C   UNL     1       2.772   1.835  18.533  0.00  0.00    +0.000 A 
ATOM      9  C   UNL     1       2.400   2.978  19.232  0.00  0.00    +0.000 A 
ATOM     10  C   UNL     1       3.110   4.184  19.069  0.00  0.00    +0.000 A 
ATOM     11  C   UNL     1       4.196   4.260  18.162  0.00  0.00    +0.000 A 
ATOM     12  C   UNL     1       4.509   3.092  17.442  0.00  0.00    +0.000 A 
ATOM     13  O   UNL     1       2.793   5.307  19.806  0.00  0.00    +0.000 OA
ATOM     14  C   UNL     1       1.921   5.023  20.902  0.00  0.00    +0.000 C 
ATOM     15  C   UNL     1       0.802   4.095  20.475  0.00  0.00    +0.000 C 
ATOM     16  O   UNL     1       1.331   2.829  20.081  0.00  0.00    +0.000 OA
ENDBRANCH   1  11
BRANCH   4  17
ATOM     17  C   UNL     1       7.295   8.019  17.401  0.00  0.00    +0.000 C 
BRANCH  17  18
ATOM     18  C   UNL     1       8.434   8.482  18.324  0.00  0.00    +0.000 C 
BRANCH  18  19
ATOM     19  C   UNL     1       8.764   9.970  18.193  0.00  0.00    +0.000 C 
BRANCH  19  20
ATOM     20  C   UNL     1       9.809  10.400  19.222  0.00  0.00    +0.000 C 
BRANCH  20  21
ATOM     21  C   UNL     1       9.374  11.575  20.024  0.00  0.00    +0.000 A 
ATOM     22  C   UNL     1       8.996  11.573  21.348  0.00  0.00    +0.000 A 
ATOM     23  N   UNL     1       8.636  12.846  21.692  0.00  0.00    +0.000 N 
ATOM     24  C   UNL     1       8.765  13.685  20.612  0.00  0.00    +0.000 A 
ATOM     25  C   UNL     1       8.499  15.053  20.490  0.00  0.00    +0.000 A 
ATOM     26  C   UNL     1       8.729  15.652  19.247  0.00  0.00    +0.000 A 
ATOM     27  C   UNL     1       9.212  14.912  18.171  0.00  0.00    +0.000 A 
ATOM     28  C   UNL     1       9.475  13.546  18.308  0.00  0.00    +0.000 A 
ATOM     29  C   UNL     1       9.242  12.919  19.550  0.00  0.00    +0.000 A 
ATOM     30  H   UNL     1       8.306  13.131  22.602  0.00  0.00    +0.000 HD
ENDBRANCH  20  21
ENDBRANCH  19  20
ENDBRANCH  18  19
ENDBRANCH  17  18
ENDBRANCH   4  17
TORSDOF 6
ENDMDL
MODEL 9
REMARK VINA RESULT:      -7.8      1.481      2.483
REMARK  Name = 
REMARK  6 active torsions:
REMARK  status: ('A' for Active; 'I' for Inactive)
REMARK    1  A    between atoms: C_5  and  N_6
REMARK    2  A    between atoms: N_9  and  C_10
REMARK    3  A    between atoms: C_10  and  C_11
REMARK    4  A    between atoms: C_11  and  C_12
REMARK    5  A    between atoms: C_12  and  C_13
REMARK    6  A    between atoms: C_13  and  C_14
REMARK                            x       y       z     vdW  Elec       q    Type
REMARK                         _______ _______ _______ _____ _____    ______ ____
ROOT
ATOM      1  N   UNL     1       4.257   6.062  18.723  0.00  0.00    +0.000 N 
ATOM      2  C   UNL     1       5.667   5.962  19.129  0.00  0.00    +0.000 C 
ATOM      3  C   UNL     1       6.534   5.465  17.956  0.00  0.00    +0.000 C 
ATOM      4  N   UNL     1       6.418   6.309  16.742  0.00  0.00    +0.000 NA
ATOM      5  C   UNL     1       4.987   6.301  16.345  0.00  0.00    +0.000 C 
ATOM      6  C   UNL     1       3.985   6.744  17.445  0.00  0.00    +0.000 C 
ENDROOT
BRANCH   1  11
ATOM      7  C   UNL     1       1.351   5.075  20.815  0.00  0.00    +0.000 A 
ATOM      8  C   UNL     1       1.180   3.746  20.462  0.00  0.00    +0.000 A 
ATOM      9  C   UNL     1       2.062   3.151  19.568  0.00  0.00    +0.000 A 
ATOM     10  C   UNL     1       3.102   3.897  18.977  0.00  0.00    +0.000 A 
ATOM     11  C   UNL     1       3.285   5.261  19.313  0.00  0.00    +0.000 A 
ATOM     12  C   UNL     1       2.398   5.810  20.257  0.00  0.00    +0.000 A 
ATOM     13  O   UNL     1       3.943   3.336  18.038  0.00  0.00    +0.000 OA
ATOM     14  C   UNL     1       3.463   2.083  17.543  0.00  0.00    +0.000 C 
ATOM     15  C   UNL     1       2.957   1.213  18.677  0.00  0.00    +0.000 C 
ATOM     16  O   UNL     1       1.828   1.824  19.302  0.00  0.00    +0.000 OA
ENDBRANCH   1  11
BRANCH   4  17
ATOM     17  C   UNL     1       6.889   7.686  16.979  0.00  0.00    +0.000 C 
BRANCH  17  18
ATOM     18  C   UNL     1       8.219   7.749  17.748  0.00  0.00    +0.000 C 
BRANCH  18  19
ATOM     19  C   UNL     1       8.331   8.956  18.682  0.00  0.00    +0.000 C 
BRANCH  19  20
ATOM     20  C   UNL     1       8.905  10.171  17.955  0.00  0.00    +0.000 C 
BRANCH  20  21
ATOM     21  C   UNL     1       9.706  11.048  18.849  0.00  0.00    +0.000 A 
ATOM     22  C   UNL     1       9.737  11.012  20.225  0.00  0.00    +0.000 A 
ATOM     23  N   UNL     1      10.568  12.006  20.661  0.00  0.00    +0.000 N 
ATOM     24  C   UNL     1      11.081  12.700  19.592  0.00  0.00    +0.000 A 
ATOM     25  C   UNL     1      11.950  13.795  19.555  0.00  0.00    +0.000 A 
ATOM     26  C   UNL     1      12.307  14.301  18.301  0.00  0.00    +0.000 A 
ATOM     27  C   UNL     1      11.817  13.729  17.129  0.00  0.00    +0.000 A 
ATOM     28  C   UNL     1      10.948  12.634  17.182  0.00  0.00    +0.000 A 
ATOM     29  C   UNL     1      10.569  12.114  18.436  0.00  0.00    +0.000 A 
ATOM     30  H   UNL     1      10.767  12.215  21.628  0.00  0.00    +0.000 HD
ENDBRANCH  20  21
ENDBRANCH  19  20
ENDBRANCH  18  19
ENDBRANCH  17  18
ENDBRANCH   4  17
TORSDOF 6
ENDMDL
