MODEL 1
REMARK VINA RESULT:      -4.8      0.000      0.000
REMARK  Name = 
REMARK  0 active torsions:
REMARK  status: ('A' for Active; 'I' for Inactive)
REMARK                            x       y       z     vdW  Elec       q    Type
REMARK                         _______ _______ _______ _____ _____    ______ ____
ROOT
ATOM      1  O   UNL     1       3.758   1.116  18.417  0.00  0.00    +0.000 OA
ATOM      2  C   UNL     1       3.078   2.013  18.915  0.00  0.00    +0.000 C 
ATOM      3  C   UNL     1       1.868   2.571  18.200  0.00  0.00    +0.000 C 
ATOM      4  C   UNL     1       0.711   2.730  19.178  0.00  0.00    +0.000 C 
ATOM      5  C   UNL     1       1.093   3.598  20.369  0.00  0.00    +0.000 C 
ATOM      6  C   UNL     1       2.315   3.029  21.057  0.00  0.00    +0.000 C 
ATOM      7  O   UNL     1       2.378   2.950  22.284  0.00  0.00    +0.000 OA
ATOM      8  C   UNL     1       3.495   2.710  20.181  0.00  0.00    +0.000 C 
ENDROOT
TORSDOF 0
ENDMDL
MODEL 2
REMARK VINA RESULT:      -4.7      1.636      2.660
REMARK  Name = 
REMARK  0 active torsions:
REMARK  status: ('A' for Active; 'I' for Inactive)
REMARK                            x       y       z     vdW  Elec       q    Type
REMARK                         _______ _______ _______ _____ _____    ______ ____
ROOT
ATOM      1  O   UNL     1       4.816   2.449  20.040  0.00  0.00    +0.000 OA
ATOM      2  C   UNL     1       3.588   2.515  20.015  0.00  0.00    +0.000 C 
ATOM      3  C   UNL     1       2.784   2.694  21.283  0.00  0.00    +0.000 C 
ATOM      4  C   UNL     1       1.693   3.733  21.068  0.00  0.00    +0.000 C 
ATOM      5  C   UNL     1       0.792   3.371  19.895  0.00  0.00    +0.000 C 
ATOM      6  C   UNL     1       1.619   3.182  18.643  0.00  0.00    +0.000 C 
ATOM      7  O   UNL     1       1.262   3.654  17.563  0.00  0.00    +0.000 OA
ATOM      8  C   UNL     1       2.808   2.268  18.752  0.00  0.00    +0.000 C 
ENDROOT
TORSDOF 0
ENDMDL
MODEL 3
REMARK VINA RESULT:      -4.6      1.487      3.116
REMARK  Name = 
REMARK  0 active torsions:
REMARK  status: ('A' for Active; 'I' for Inactive)
REMARK                            x       y       z     vdW  Elec       q    Type
REMARK                         _______ _______ _______ _____ _____    ______ ____
ROOT
ATOM      1  O   UNL     1       2.836   2.481  21.975  0.00  0.00    +0.000 OA
ATOM      2  C   UNL     1       2.762   2.633  20.757  0.00  0.00    +0.000 C 
ATOM      3  C   UNL     1       3.974   2.472  19.869  0.00  0.00    +0.000 C 
ATOM      4  C   UNL     1       3.612   1.666  18.629  0.00  0.00    +0.000 C 
ATOM      5  C   UNL     1       2.453   2.294  17.866  0.00  0.00    +0.000 C 
ATOM      6  C   UNL     1       1.257   2.459  18.779  0.00  0.00    +0.000 C 
ATOM      7  O   UNL     1       0.122   2.166  18.404  0.00  0.00    +0.000 OA
ATOM      8  C   UNL     1       1.506   3.136  20.099  0.00  0.00    +0.000 C 
ENDROOT
TORSDOF 0
ENDMDL
MODEL 4
REMARK VINA RESULT:      -4.6      1.724      2.428
REMARK  Name = 
REMARK  0 active torsions:
REMARK  status: ('A' for Active; 'I' for Inactive)
REMARK                            x       y       z     vdW  Elec       q    Type
REMARK                         _______ _______ _______ _____ _____    ______ ____
ROOT
ATOM      1  O   UNL     1       1.363   3.767  17.648  0.00  0.00    +0.000 OA
ATOM      2  C   UNL     1       1.820   3.695  18.788  0.00  0.00    +0.000 C 
ATOM      3  C   UNL     1       0.921   3.772  20.001  0.00  0.00    +0.000 C 
ATOM      4  C   UNL     1       1.318   2.708  21.015  0.00  0.00    +0.000 C 
ATOM      5  C   UNL     1       2.783   2.824  21.411  0.00  0.00    +0.000 C 
ATOM      6  C   UNL     1       3.661   2.759  20.180  0.00  0.00    +0.000 C 
ATOM      7  O   UNL     1       4.687   2.078  20.162  0.00  0.00    +0.000 OA
ATOM      8  C   UNL     1       3.302   3.679  19.047  0.00  0.00    +0.000 C 
ENDROOT
TORSDOF 0
ENDMDL
MODEL 5
REMARK VINA RESULT:      -4.6      1.517      3.410
REMARK  Name = 
REMARK  0 active torsions:
REMARK  status: ('A' for Active; 'I' for Inactive)
REMARK                            x       y       z     vdW  Elec       q    Type
REMARK                         _______ _______ _______ _____ _____    ______ ____
ROOT
ATOM      1  O   UNL     1       1.649   2.934  21.915  0.00  0.00    +0.000 OA
ATOM      2  C   UNL     1       1.493   3.449  20.809  0.00  0.00    +0.000 C 
ATOM      3  C   UNL     1       1.580   4.946  20.619  0.00  0.00    +0.000 C 
ATOM      4  C   UNL     1       2.397   5.269  19.376  0.00  0.00    +0.000 C 
ATOM      5  C   UNL     1       1.830   4.592  18.136  0.00  0.00    +0.000 C 
ATOM      6  C   UNL     1       1.739   3.098  18.355  0.00  0.00    +0.000 C 
ATOM      7  O   UNL     1       2.092   2.301  17.485  0.00  0.00    +0.000 OA
ATOM      8  C   UNL     1       1.057   2.642  19.616  0.00  0.00    +0.000 C 
ENDROOT
TORSDOF 0
ENDMDL
MODEL 6
REMARK VINA RESULT:      -4.6      5.175      5.621
REMARK  Name = 
REMARK  0 active torsions:
REMARK  status: ('A' for Active; 'I' for Inactive)
REMARK                            x       y       z     vdW  Elec       q    Type
REMARK                         _______ _______ _______ _____ _____    ______ ____
ROOT
ATOM      1  O   UNL     1       7.599   5.815  15.660  0.00  0.00    +0.000 OA
ATOM      2  C   UNL     1       6.901   5.838  16.673  0.00  0.00    +0.000 C 
ATOM      3  C   UNL     1       5.436   5.467  16.627  0.00  0.00    +0.000 C 
ATOM      4  C   UNL     1       5.087   4.566  17.804  0.00  0.00    +0.000 C 
ATOM      5  C   UNL     1       5.447   5.212  19.135  0.00  0.00    +0.000 C 
ATOM      6  C   UNL     1       6.913   5.588  19.152  0.00  0.00    +0.000 C 
ATOM      7  O   UNL     1       7.619   5.363  20.134  0.00  0.00    +0.000 OA
ATOM      8  C   UNL     1       7.418   6.380  17.978  0.00  0.00    +0.000 C 
ENDROOT
TORSDOF 0
ENDMDL
MODEL 7
REMARK VINA RESULT:      -4.6      4.801      5.924
REMARK  Name = 
REMARK  0 active torsions:
REMARK  status: ('A' for Active; 'I' for Inactive)
REMARK                            x       y       z     vdW  Elec       q    Type
REMARK                         _______ _______ _______ _____ _____    ______ ____
ROOT
ATOM      1  O   UNL     1       6.574   5.288  19.654  0.00  0.00    +0.000 OA
ATOM      2  C   UNL     1       6.356   4.779  18.555  0.00  0.00    +0.000 C 
ATOM      3  C   UNL     1       5.028   4.129  18.238  0.00  0.00    +0.000 C 
ATOM      4  C   UNL     1       4.560   4.546  16.850  0.00  0.00    +0.000 C 
ATOM      5  C   UNL     1       5.597   4.222  15.783  0.00  0.00    +0.000 C 
ATOM      6  C   UNL     1       6.920   4.870  16.130  0.00  0.00    +0.000 C 
ATOM      7  O   UNL     1       7.590   5.451  15.276  0.00  0.00    +0.000 OA
ATOM      8  C   UNL     1       7.440   4.636  17.521  0.00  0.00    +0.000 C 
ENDROOT
TORSDOF 0
ENDMDL
MODEL 8
REMARK VINA RESULT:      -4.6      2.021      2.442
REMARK  Name = 
REMARK  0 active torsions:
REMARK  status: ('A' for Active; 'I' for Inactive)
REMARK                            x       y       z     vdW  Elec       q    Type
REMARK                         _______ _______ _______ _____ _____    ______ ____
ROOT
ATOM      1  O   UNL     1       3.773   5.770  19.509  0.00  0.00    +0.000 OA
ATOM      2  C   UNL     1       2.751   5.092  19.608  0.00  0.00    +0.000 C 
ATOM      3  C   UNL     1       1.980   4.648  18.386  0.00  0.00    +0.000 C 
ATOM      4  C   UNL     1       1.579   3.185  18.523  0.00  0.00    +0.000 C 
ATOM      5  C   UNL     1       0.781   2.935  19.795  0.00  0.00    +0.000 C 
ATOM      6  C   UNL     1       1.566   3.400  21.002  0.00  0.00    +0.000 C 
ATOM      7  O   UNL     1       1.633   2.717  22.023  0.00  0.00    +0.000 OA
ATOM      8  C   UNL     1       2.126   4.795  20.944  0.00  0.00    +0.000 C 
ENDROOT
TORSDOF 0
ENDMDL
MODEL 9
REMARK VINA RESULT:      -4.5      1.407      2.802
REMARK  Name = 
REMARK  0 active torsions:
REMARK  status: ('A' for Active; 'I' for Inactive)
REMARK                            x       y       z     vdW  Elec       q    Type
REMARK                         _______ _______ _______ _____ _____    ______ ____
ROOT
ATOM      1  O   UNL     1       0.827   4.229  20.451  0.00  0.00    +0.000 OA
ATOM      2  C   UNL     1       1.497   3.305  19.991  0.00  0.00    +0.000 C 
ATOM      3  C   UNL     1       1.061   2.561  18.749  0.00  0.00    +0.000 C 
ATOM      4  C   UNL     1       2.250   2.354  17.820  0.00  0.00    +0.000 C 
ATOM      5  C   UNL     1       3.394   1.633  18.518  0.00  0.00    +0.000 C 
ATOM      6  C   UNL     1       3.802   2.388  19.764  0.00  0.00    +0.000 C 
ATOM      7  O   UNL     1       4.987   2.572  20.041  0.00  0.00    +0.000 OA
ATOM      8  C   UNL     1       2.699   2.763  20.715  0.00  0.00    +0.000 C 
ENDROOT
TORSDOF 0
ENDMDL
