MODEL 1
REMARK VINA RESULT:      -6.4      0.000      0.000
REMARK  Name = 
REMARK  8 active torsions:
REMARK  status: ('A' for Active; 'I' for Inactive)
REMARK    1  A    between atoms: C_1  and  C_2
REMARK    2  A    between atoms: C_2  and  N_3
REMARK    3  A    between atoms: C_7  and  C_8
REMARK    4  A    between atoms: C_8  and  N_9
REMARK    5  A    between atoms: C_10  and  C_12
REMARK    6  A    between atoms: C_13  and  O_14
REMARK    7  A    between atoms: O_14  and  C_15
REMARK    8  A    between atoms: C_20  and  O_21
REMARK                            x       y       z     vdW  Elec       q    Type
REMARK                         _______ _______ _______ _____ _____    ______ ____
ROOT
ATOM      1  N   UNL     1       2.117   6.969  20.023  0.00  0.00    +0.000 N 
ATOM      2  C   UNL     1       2.263   5.595  20.079  0.00  0.00    +0.000 C 
ATOM      3  O   UNL     1       1.817   4.911  20.997  0.00  0.00    +0.000 OA
ATOM      4  H   UNL     1       2.778   7.465  19.435  0.00  0.00    +0.000 HD
ENDROOT
BRANCH   2   5
ATOM      5  C   UNL     1       3.005   4.968  18.948  0.00  0.00    +0.000 A 
ATOM      6  C   UNL     1       2.384   4.073  18.055  0.00  0.00    +0.000 A 
ATOM      7  C   UNL     1       3.159   3.427  17.075  0.00  0.00    +0.000 A 
ATOM      8  C   UNL     1       4.530   3.658  16.965  0.00  0.00    +0.000 A 
ATOM      9  C   UNL     1       5.146   4.543  17.843  0.00  0.00    +0.000 A 
ATOM     10  I   UNL     1       7.212   4.831  17.678  0.00  0.00    +0.000 I 
ATOM     11  C   UNL     1       4.394   5.199  18.825  0.00  0.00    +0.000 A 
BRANCH   6  12
ATOM     12  O   UNL     1       1.083   3.640  18.054  0.00  0.00    +0.000 OA
ATOM     13  C   UNL     1       0.800   2.416  18.723  0.00  0.00    +0.000 C 
ENDBRANCH   6  12
BRANCH  11  14
ATOM     14  O   UNL     1       5.020   6.062  19.697  0.00  0.00    +0.000 OA
ATOM     15  H   UNL     1       4.334   6.458  20.267  0.00  0.00    +0.000 HD
ENDBRANCH  11  14
ENDBRANCH   2   5
BRANCH   1  16
ATOM     16  C   UNL     1       1.433   7.723  21.062  0.00  0.00    +0.000 C 
BRANCH  16  21
ATOM     17  N   UNL     1       0.874  10.172  21.804  0.00  0.00    +0.000 NA
ATOM     18  C   UNL     1       0.404  11.327  21.017  0.00  0.00    +0.000 C 
ATOM     19  C   UNL     1      -0.133  10.738  19.730  0.00  0.00    +0.000 C 
ATOM     20  C   UNL     1       0.821   9.599  19.440  0.00  0.00    +0.000 C 
ATOM     21  C   UNL     1       1.466   9.247  20.792  0.00  0.00    +0.000 C 
BRANCH  17  23
ATOM     22  C   UNL     1      -1.144  10.586  23.240  0.00  0.00    +0.000 C 
ATOM     23  C   UNL     1      -0.188   9.567  22.622  0.00  0.00    +0.000 C 
ENDBRANCH  17  23
ENDBRANCH  16  21
ENDBRANCH   1  16
TORSDOF 6
ENDMDL
MODEL 2
REMARK VINA RESULT:      -6.2      3.826      7.491
REMARK  Name = 
REMARK  8 active torsions:
REMARK  status: ('A' for Active; 'I' for Inactive)
REMARK    1  A    between atoms: C_1  and  C_2
REMARK    2  A    between atoms: C_2  and  N_3
REMARK    3  A    between atoms: C_7  and  C_8
REMARK    4  A    between atoms: C_8  and  N_9
REMARK    5  A    between atoms: C_10  and  C_12
REMARK    6  A    between atoms: C_13  and  O_14
REMARK    7  A    between atoms: O_14  and  C_15
REMARK    8  A    between atoms: C_20  and  O_21
REMARK                            x       y       z     vdW  Elec       q    Type
REMARK                         _______ _______ _______ _____ _____    ______ ____
ROOT
ATOM      1  N   UNL     1       1.710   8.067  19.176  0.00  0.00    +0.000 N 
ATOM      2  C   UNL     1       1.442   9.255  18.522  0.00  0.00    +0.000 C 
ATOM      3  O   UNL     1       2.046   9.615  17.513  0.00  0.00    +0.000 OA
ATOM      4  H   UNL     1       1.415   8.016  20.145  0.00  0.00    +0.000 HD
ENDROOT
BRANCH   2   5
ATOM      5  C   UNL     1       0.363  10.100  19.109  0.00  0.00    +0.000 A 
ATOM      6  C   UNL     1       0.425  10.573  20.434  0.00  0.00    +0.000 A 
ATOM      7  C   UNL     1      -0.672  11.272  20.969  0.00  0.00    +0.000 A 
ATOM      8  C   UNL     1      -1.819  11.512  20.213  0.00  0.00    +0.000 A 
ATOM      9  C   UNL     1      -1.882  11.050  18.903  0.00  0.00    +0.000 A 
ATOM     10  I   UNL     1      -3.636  11.390  17.813  0.00  0.00    +0.000 I 
ATOM     11  C   UNL     1      -0.801  10.354  18.349  0.00  0.00    +0.000 A 
BRANCH   6  12
ATOM     12  O   UNL     1       1.409  10.362  21.365  0.00  0.00    +0.000 OA
ATOM     13  C   UNL     1       1.180   9.356  22.345  0.00  0.00    +0.000 C 
ENDBRANCH   6  12
BRANCH  11  14
ATOM     14  O   UNL     1      -0.884   9.889  17.055  0.00  0.00    +0.000 OA
ATOM     15  H   UNL     1      -1.829   9.807  16.828  0.00  0.00    +0.000 HD
ENDBRANCH  11  14
ENDBRANCH   2   5
BRANCH   1  16
ATOM     16  C   UNL     1       2.746   7.148  18.731  0.00  0.00    +0.000 C 
BRANCH  16  21
ATOM     17  N   UNL     1       3.178   4.595  19.126  0.00  0.00    +0.000 NA
ATOM     18  C   UNL     1       2.579   3.663  20.097  0.00  0.00    +0.000 C 
ATOM     19  C   UNL     1       1.314   4.343  20.574  0.00  0.00    +0.000 C 
ATOM     20  C   UNL     1       1.704   5.804  20.637  0.00  0.00    +0.000 C 
ATOM     21  C   UNL     1       2.914   5.950  19.696  0.00  0.00    +0.000 C 
BRANCH  17  23
ATOM     22  C   UNL     1       2.526   2.942  17.351  0.00  0.00    +0.000 C 
ATOM     23  C   UNL     1       2.663   4.408  17.761  0.00  0.00    +0.000 C 
ENDBRANCH  17  23
ENDBRANCH  16  21
ENDBRANCH   1  16
TORSDOF 6
ENDMDL
MODEL 3
REMARK VINA RESULT:      -6.2      2.510      3.607
REMARK  Name = 
REMARK  8 active torsions:
REMARK  status: ('A' for Active; 'I' for Inactive)
REMARK    1  A    between atoms: C_1  and  C_2
REMARK    2  A    between atoms: C_2  and  N_3
REMARK    3  A    between atoms: C_7  and  C_8
REMARK    4  A    between atoms: C_8  and  N_9
REMARK    5  A    between atoms: C_10  and  C_12
REMARK    6  A    between atoms: C_13  and  O_14
REMARK    7  A    between atoms: O_14  and  C_15
REMARK    8  A    between atoms: C_20  and  O_21
REMARK                            x       y       z     vdW  Elec       q    Type
REMARK                         _______ _______ _______ _____ _____    ______ ____
ROOT
ATOM      1  N   UNL     1       2.436   7.422  18.085  0.00  0.00    +0.000 N 
ATOM      2  C   UNL     1       3.622   6.730  17.922  0.00  0.00    +0.000 C 
ATOM      3  O   UNL     1       4.662   7.263  17.541  0.00  0.00    +0.000 OA
ATOM      4  H   UNL     1       1.589   6.865  18.074  0.00  0.00    +0.000 HD
ENDROOT
BRANCH   2   5
ATOM      5  C   UNL     1       3.580   5.273  18.236  0.00  0.00    +0.000 A 
ATOM      6  C   UNL     1       4.022   4.300  17.319  0.00  0.00    +0.000 A 
ATOM      7  C   UNL     1       3.857   2.937  17.625  0.00  0.00    +0.000 A 
ATOM      8  C   UNL     1       3.268   2.528  18.821  0.00  0.00    +0.000 A 
ATOM      9  C   UNL     1       2.832   3.486  19.731  0.00  0.00    +0.000 A 
ATOM     10  I   UNL     1       1.914   2.836  21.495  0.00  0.00    +0.000 I 
ATOM     11  C   UNL     1       2.989   4.848  19.448  0.00  0.00    +0.000 A 
BRANCH   6  12
ATOM     12  O   UNL     1       4.533   4.489  16.061  0.00  0.00    +0.000 OA
ATOM     13  C   UNL     1       5.876   4.076  15.830  0.00  0.00    +0.000 C 
ENDBRANCH   6  12
BRANCH  11  14
ATOM     14  O   UNL     1       2.541   5.786  20.352  0.00  0.00    +0.000 OA
ATOM     15  H   UNL     1       1.762   5.412  20.806  0.00  0.00    +0.000 HD
ENDBRANCH  11  14
ENDBRANCH   2   5
BRANCH   1  16
ATOM     16  C   UNL     1       2.318   8.844  17.801  0.00  0.00    +0.000 C 
BRANCH  16  21
ATOM     17  N   UNL     1       0.952  10.969  18.493  0.00  0.00    +0.000 NA
ATOM     18  C   UNL     1       0.277  11.302  19.759  0.00  0.00    +0.000 C 
ATOM     19  C   UNL     1       0.877  10.368  20.787  0.00  0.00    +0.000 C 
ATOM     20  C   UNL     1       1.071   9.078  20.018  0.00  0.00    +0.000 C 
ATOM     21  C   UNL     1       1.115   9.486  18.534  0.00  0.00    +0.000 C 
BRANCH  17  23
ATOM     22  C   UNL     1       2.033  13.223  18.250  0.00  0.00    +0.000 C 
ATOM     23  C   UNL     1       2.212  11.707  18.305  0.00  0.00    +0.000 C 
ENDBRANCH  17  23
ENDBRANCH  16  21
ENDBRANCH   1  16
TORSDOF 6
ENDMDL
MODEL 4
REMARK VINA RESULT:      -6.1      1.669      2.474
REMARK  Name = 
REMARK  8 active torsions:
REMARK  status: ('A' for Active; 'I' for Inactive)
REMARK    1  A    between atoms: C_1  and  C_2
REMARK    2  A    between atoms: C_2  and  N_3
REMARK    3  A    between atoms: C_7  and  C_8
REMARK    4  A    between atoms: C_8  and  N_9
REMARK    5  A    between atoms: C_10  and  C_12
REMARK    6  A    between atoms: C_13  and  O_14
REMARK    7  A    between atoms: O_14  and  C_15
REMARK    8  A    between atoms: C_20  and  O_21
REMARK                            x       y       z     vdW  Elec       q    Type
REMARK                         _______ _______ _______ _____ _____    ______ ____
ROOT
ATOM      1  N   UNL     1       1.848   8.189  19.486  0.00  0.00    +0.000 N 
ATOM      2  C   UNL     1       2.487   7.708  18.358  0.00  0.00    +0.000 C 
ATOM      3  O   UNL     1       2.482   8.300  17.281  0.00  0.00    +0.000 OA
ATOM      4  H   UNL     1       1.627   7.504  20.200  0.00  0.00    +0.000 HD
ENDROOT
BRANCH   2   5
ATOM      5  C   UNL     1       3.200   6.407  18.512  0.00  0.00    +0.000 A 
ATOM      6  C   UNL     1       2.663   5.349  19.270  0.00  0.00    +0.000 A 
ATOM      7  C   UNL     1       3.429   4.186  19.472  0.00  0.00    +0.000 A 
ATOM      8  C   UNL     1       4.709   4.058  18.932  0.00  0.00    +0.000 A 
ATOM      9  C   UNL     1       5.241   5.100  18.181  0.00  0.00    +0.000 A 
ATOM     10  I   UNL     1       7.181   4.890  17.424  0.00  0.00    +0.000 I 
ATOM     11  C   UNL     1       4.496   6.265  17.965  0.00  0.00    +0.000 A 
BRANCH   6  12
ATOM     12  O   UNL     1       1.478   5.313  19.958  0.00  0.00    +0.000 OA
ATOM     13  C   UNL     1       1.192   4.140  20.711  0.00  0.00    +0.000 C 
ENDBRANCH   6  12
BRANCH  11  14
ATOM     14  O   UNL     1       5.041   7.295  17.231  0.00  0.00    +0.000 OA
ATOM     15  H   UNL     1       4.306   7.792  16.825  0.00  0.00    +0.000 HD
ENDBRANCH  11  14
ENDBRANCH   2   5
BRANCH   1  16
ATOM     16  C   UNL     1       1.097   9.435  19.484  0.00  0.00    +0.000 C 
BRANCH  16  21
ATOM     17  N   UNL     1      -0.376  10.806  21.161  0.00  0.00    +0.000 NA
ATOM     18  C   UNL     1      -0.735  10.532  22.563  0.00  0.00    +0.000 C 
ATOM     19  C   UNL     1       0.268   9.503  23.037  0.00  0.00    +0.000 C 
ATOM     20  C   UNL     1       0.467   8.622  21.822  0.00  0.00    +0.000 C 
ATOM     21  C   UNL     1       0.043   9.480  20.616  0.00  0.00    +0.000 C 
BRANCH  17  23
ATOM     22  C   UNL     1       0.177  13.230  21.516  0.00  0.00    +0.000 C 
ATOM     23  C   UNL     1       0.642  11.859  21.026  0.00  0.00    +0.000 C 
ENDBRANCH  17  23
ENDBRANCH  16  21
ENDBRANCH   1  16
TORSDOF 6
ENDMDL
MODEL 5
REMARK VINA RESULT:      -6.1      3.350      7.115
REMARK  Name = 
REMARK  8 active torsions:
REMARK  status: ('A' for Active; 'I' for Inactive)
REMARK    1  A    between atoms: C_1  and  C_2
REMARK    2  A    between atoms: C_2  and  N_3
REMARK    3  A    between atoms: C_7  and  C_8
REMARK    4  A    between atoms: C_8  and  N_9
REMARK    5  A    between atoms: C_10  and  C_12
REMARK    6  A    between atoms: C_13  and  O_14
REMARK    7  A    between atoms: O_14  and  C_15
REMARK    8  A    between atoms: C_20  and  O_21
REMARK                            x       y       z     vdW  Elec       q    Type
REMARK                         _______ _______ _______ _____ _____    ______ ____
ROOT
ATOM      1  N   UNL     1       4.268   7.310  17.286  0.00  0.00    +0.000 N 
ATOM      2  C   UNL     1       3.205   6.626  17.846  0.00  0.00    +0.000 C 
ATOM      3  O   UNL     1       2.895   5.484  17.514  0.00  0.00    +0.000 OA
ATOM      4  H   UNL     1       4.242   8.321  17.371  0.00  0.00    +0.000 HD
ENDROOT
BRANCH   2   5
ATOM      5  C   UNL     1       2.435   7.353  18.895  0.00  0.00    +0.000 A 
ATOM      6  C   UNL     1       2.115   6.759  20.131  0.00  0.00    +0.000 A 
ATOM      7  C   UNL     1       1.292   7.452  21.037  0.00  0.00    +0.000 A 
ATOM      8  C   UNL     1       0.791   8.719  20.740  0.00  0.00    +0.000 A 
ATOM      9  C   UNL     1       1.107   9.310  19.521  0.00  0.00    +0.000 A 
ATOM     10  I   UNL     1       0.301  11.193  19.091  0.00  0.00    +0.000 I 
ATOM     11  C   UNL     1       1.926   8.640  18.605  0.00  0.00    +0.000 A 
BRANCH   6  12
ATOM     12  O   UNL     1       2.423   5.498  20.572  0.00  0.00    +0.000 OA
ATOM     13  C   UNL     1       1.359   4.557  20.660  0.00  0.00    +0.000 C 
ENDBRANCH   6  12
BRANCH  11  14
ATOM     14  O   UNL     1       2.220   9.232  17.397  0.00  0.00    +0.000 OA
ATOM     15  H   UNL     1       1.542   9.912  17.226  0.00  0.00    +0.000 HD
ENDBRANCH  11  14
ENDBRANCH   2   5
BRANCH   1  16
ATOM     16  C   UNL     1       5.101   6.738  16.240  0.00  0.00    +0.000 C 
BRANCH  16  21
ATOM     17  N   UNL     1       7.059   4.999  16.240  0.00  0.00    +0.000 NA
ATOM     18  C   UNL     1       7.857   4.456  17.354  0.00  0.00    +0.000 C 
ATOM     19  C   UNL     1       7.052   4.755  18.601  0.00  0.00    +0.000 C 
ATOM     20  C   UNL     1       6.455   6.116  18.315  0.00  0.00    +0.000 C 
ATOM     21  C   UNL     1       6.469   6.259  16.782  0.00  0.00    +0.000 C 
BRANCH  17  23
ATOM     22  C   UNL     1       6.100   3.876  14.209  0.00  0.00    +0.000 C 
ATOM     23  C   UNL     1       6.066   4.042  15.728  0.00  0.00    +0.000 C 
ENDBRANCH  17  23
ENDBRANCH  16  21
ENDBRANCH   1  16
TORSDOF 6
ENDMDL
MODEL 6
REMARK VINA RESULT:      -6.1      3.624      7.303
REMARK  Name = 
REMARK  8 active torsions:
REMARK  status: ('A' for Active; 'I' for Inactive)
REMARK    1  A    between atoms: C_1  and  C_2
REMARK    2  A    between atoms: C_2  and  N_3
REMARK    3  A    between atoms: C_7  and  C_8
REMARK    4  A    between atoms: C_8  and  N_9
REMARK    5  A    between atoms: C_10  and  C_12
REMARK    6  A    between atoms: C_13  and  O_14
REMARK    7  A    between atoms: O_14  and  C_15
REMARK    8  A    between atoms: C_20  and  O_21
REMARK                            x       y       z     vdW  Elec       q    Type
REMARK                         _______ _______ _______ _____ _____    ______ ____
ROOT
ATOM      1  N   UNL     1       1.764   7.783  19.704  0.00  0.00    +0.000 N 
ATOM      2  C   UNL     1       1.600   8.913  18.925  0.00  0.00    +0.000 C 
ATOM      3  O   UNL     1       2.289   9.150  17.934  0.00  0.00    +0.000 OA
ATOM      4  H   UNL     1       1.400   7.837  20.649  0.00  0.00    +0.000 HD
ENDROOT
BRANCH   2   5
ATOM      5  C   UNL     1       0.525   9.855  19.351  0.00  0.00    +0.000 A 
ATOM      6  C   UNL     1       0.474  10.387  20.654  0.00  0.00    +0.000 A 
ATOM      7  C   UNL     1      -0.623  11.182  21.032  0.00  0.00    +0.000 A 
ATOM      8  C   UNL     1      -1.660  11.459  20.141  0.00  0.00    +0.000 A 
ATOM      9  C   UNL     1      -1.611  10.937  18.853  0.00  0.00    +0.000 A 
ATOM     10  I   UNL     1      -3.206  11.337  17.558  0.00  0.00    +0.000 I 
ATOM     11  C   UNL     1      -0.528  10.146  18.454  0.00  0.00    +0.000 A 
BRANCH   6  12
ATOM     12  O   UNL     1       1.333  10.159  21.698  0.00  0.00    +0.000 OA
ATOM     13  C   UNL     1       0.831   9.430  22.812  0.00  0.00    +0.000 C 
ENDBRANCH   6  12
BRANCH  11  14
ATOM     14  O   UNL     1      -0.500   9.624  17.180  0.00  0.00    +0.000 OA
ATOM     15  H   UNL     1      -1.134   8.883  17.148  0.00  0.00    +0.000 HD
ENDBRANCH  11  14
ENDBRANCH   2   5
BRANCH   1  16
ATOM     16  C   UNL     1       2.783   6.784  19.424  0.00  0.00    +0.000 C 
BRANCH  16  21
ATOM     17  N   UNL     1       1.599   4.450  19.307  0.00  0.00    +0.000 NA
ATOM     18  C   UNL     1       1.851   3.292  18.432  0.00  0.00    +0.000 C 
ATOM     19  C   UNL     1       3.239   3.514  17.869  0.00  0.00    +0.000 C 
ATOM     20  C   UNL     1       3.295   5.012  17.656  0.00  0.00    +0.000 C 
ATOM     21  C   UNL     1       2.226   5.602  18.594  0.00  0.00    +0.000 C 
BRANCH  17  23
ATOM     22  C   UNL     1       1.581   2.973  21.338  0.00  0.00    +0.000 C 
ATOM     23  C   UNL     1       2.096   4.251  20.678  0.00  0.00    +0.000 C 
ENDBRANCH  17  23
ENDBRANCH  16  21
ENDBRANCH   1  16
TORSDOF 6
ENDMDL
MODEL 7
REMARK VINA RESULT:      -6.1      3.566      7.344
REMARK  Name = 
REMARK  8 active torsions:
REMARK  status: ('A' for Active; 'I' for Inactive)
REMARK    1  A    between atoms: C_1  and  C_2
REMARK    2  A    between atoms: C_2  and  N_3
REMARK    3  A    between atoms: C_7  and  C_8
REMARK    4  A    between atoms: C_8  and  N_9
REMARK    5  A    between atoms: C_10  and  C_12
REMARK    6  A    between atoms: C_13  and  O_14
REMARK    7  A    between atoms: O_14  and  C_15
REMARK    8  A    between atoms: C_20  and  O_21
REMARK                            x       y       z     vdW  Elec       q    Type
REMARK                         _______ _______ _______ _____ _____    ______ ____
ROOT
ATOM      1  N   UNL     1       2.029   8.144  19.297  0.00  0.00    +0.000 N 
ATOM      2  C   UNL     1       1.648   9.259  18.573  0.00  0.00    +0.000 C 
ATOM      3  O   UNL     1       1.732   9.323  17.348  0.00  0.00    +0.000 OA
ATOM      4  H   UNL     1       2.235   8.299  20.278  0.00  0.00    +0.000 HD
ENDROOT
BRANCH   2   5
ATOM      5  C   UNL     1       1.118  10.406  19.363  0.00  0.00    +0.000 A 
ATOM      6  C   UNL     1       0.235  10.221  20.445  0.00  0.00    +0.000 A 
ATOM      7  C   UNL     1      -0.319  11.346  21.084  0.00  0.00    +0.000 A 
ATOM      8  C   UNL     1      -0.007  12.641  20.672  0.00  0.00    +0.000 A 
ATOM      9  C   UNL     1       0.866  12.828  19.606  0.00  0.00    +0.000 A 
ATOM     10  I   UNL     1       1.276  14.784  18.988  0.00  0.00    +0.000 I 
ATOM     11  C   UNL     1       1.432  11.724  18.957  0.00  0.00    +0.000 A 
BRANCH   6  12
ATOM     12  O   UNL     1      -0.269   9.045  20.938  0.00  0.00    +0.000 OA
ATOM     13  C   UNL     1      -0.424   8.940  22.349  0.00  0.00    +0.000 C 
ENDBRANCH   6  12
BRANCH  11  14
ATOM     14  O   UNL     1       2.284  11.923  17.894  0.00  0.00    +0.000 OA
ATOM     15  H   UNL     1       1.852  12.546  17.279  0.00  0.00    +0.000 HD
ENDBRANCH  11  14
ENDBRANCH   2   5
BRANCH   1  16
ATOM     16  C   UNL     1       2.580   6.955  18.666  0.00  0.00    +0.000 C 
BRANCH  16  21
ATOM     17  N   UNL     1       3.320   4.499  19.193  0.00  0.00    +0.000 NA
ATOM     18  C   UNL     1       2.803   3.535  20.181  0.00  0.00    +0.000 C 
ATOM     19  C   UNL     1       1.439   4.062  20.574  0.00  0.00    +0.000 C 
ATOM     20  C   UNL     1       1.634   5.563  20.587  0.00  0.00    +0.000 C 
ATOM     21  C   UNL     1       2.857   5.828  19.690  0.00  0.00    +0.000 C 
BRANCH  17  23
ATOM     22  C   UNL     1       4.049   3.802  16.893  0.00  0.00    +0.000 C 
ATOM     23  C   UNL     1       2.897   4.191  17.818  0.00  0.00    +0.000 C 
ENDBRANCH  17  23
ENDBRANCH  16  21
ENDBRANCH   1  16
TORSDOF 6
ENDMDL
MODEL 8
REMARK VINA RESULT:      -6.0      3.165      6.755
REMARK  Name = 
REMARK  8 active torsions:
REMARK  status: ('A' for Active; 'I' for Inactive)
REMARK    1  A    between atoms: C_1  and  C_2
REMARK    2  A    between atoms: C_2  and  N_3
REMARK    3  A    between atoms: C_7  and  C_8
REMARK    4  A    between atoms: C_8  and  N_9
REMARK    5  A    between atoms: C_10  and  C_12
REMARK    6  A    between atoms: C_13  and  O_14
REMARK    7  A    between atoms: O_14  and  C_15
REMARK    8  A    between atoms: C_20  and  O_21
REMARK                            x       y       z     vdW  Elec       q    Type
REMARK                         _______ _______ _______ _____ _____    ______ ____
ROOT
ATOM      1  N   UNL     1       3.128   5.761  17.921  0.00  0.00    +0.000 N 
ATOM      2  C   UNL     1       3.180   7.143  17.921  0.00  0.00    +0.000 C 
ATOM      3  O   UNL     1       3.884   7.787  17.147  0.00  0.00    +0.000 OA
ATOM      4  H   UNL     1       2.799   5.327  18.777  0.00  0.00    +0.000 HD
ENDROOT
BRANCH   2   5
ATOM      5  C   UNL     1       2.323   7.832  18.928  0.00  0.00    +0.000 A 
ATOM      6  C   UNL     1       2.033   7.255  20.180  0.00  0.00    +0.000 A 
ATOM      7  C   UNL     1       1.130   7.900  21.044  0.00  0.00    +0.000 A 
ATOM      8  C   UNL     1       0.519   9.102  20.690  0.00  0.00    +0.000 A 
ATOM      9  C   UNL     1       0.805   9.677  19.456  0.00  0.00    +0.000 A 
ATOM     10  I   UNL     1      -0.163  11.459  18.941  0.00  0.00    +0.000 I 
ATOM     11  C   UNL     1       1.703   9.054  18.581  0.00  0.00    +0.000 A 
BRANCH   6  12
ATOM     12  O   UNL     1       2.447   6.045  20.673  0.00  0.00    +0.000 OA
ATOM     13  C   UNL     1       1.462   5.031  20.836  0.00  0.00    +0.000 C 
ENDBRANCH   6  12
BRANCH  11  14
ATOM     14  O   UNL     1       1.966   9.627  17.356  0.00  0.00    +0.000 OA
ATOM     15  H   UNL     1       1.373   9.212  16.701  0.00  0.00    +0.000 HD
ENDBRANCH  11  14
ENDBRANCH   2   5
BRANCH   1  16
ATOM     16  C   UNL     1       3.921   4.951  17.010  0.00  0.00    +0.000 C 
BRANCH  16  21
ATOM     17  N   UNL     1       3.306   2.509  17.729  0.00  0.00    +0.000 NA
ATOM     18  C   UNL     1       3.696   1.736  18.921  0.00  0.00    +0.000 C 
ATOM     19  C   UNL     1       4.187   2.763  19.918  0.00  0.00    +0.000 C 
ATOM     20  C   UNL     1       4.907   3.776  19.052  0.00  0.00    +0.000 C 
ATOM     21  C   UNL     1       4.326   3.596  17.638  0.00  0.00    +0.000 C 
BRANCH  17  23
ATOM     22  C   UNL     1       1.010   2.145  18.680  0.00  0.00    +0.000 C 
ATOM     23  C   UNL     1       1.918   2.992  17.789  0.00  0.00    +0.000 C 
ENDBRANCH  17  23
ENDBRANCH  16  21
ENDBRANCH   1  16
TORSDOF 6
ENDMDL
MODEL 9
REMARK VINA RESULT:      -6.0      3.686      7.195
REMARK  Name = 
REMARK  8 active torsions:
REMARK  status: ('A' for Active; 'I' for Inactive)
REMARK    1  A    between atoms: C_1  and  C_2
REMARK    2  A    between atoms: C_2  and  N_3
REMARK    3  A    between atoms: C_7  and  C_8
REMARK    4  A    between atoms: C_8  and  N_9
REMARK    5  A    between atoms: C_10  and  C_12
REMARK    6  A    between atoms: C_13  and  O_14
REMARK    7  A    between atoms: O_14  and  C_15
REMARK    8  A    between atoms: C_20  and  O_21
REMARK                            x       y       z     vdW  Elec       q    Type
REMARK                         _______ _______ _______ _____ _____    ______ ____
ROOT
ATOM      1  N   UNL     1       3.514   7.258  18.130  0.00  0.00    +0.000 N 
ATOM      2  C   UNL     1       2.564   8.255  18.011  0.00  0.00    +0.000 C 
ATOM      3  O   UNL     1       2.353   8.857  16.961  0.00  0.00    +0.000 OA
ATOM      4  H   UNL     1       3.841   7.062  19.070  0.00  0.00    +0.000 HD
ENDROOT
BRANCH   2   5
ATOM      5  C   UNL     1       1.788   8.573  19.244  0.00  0.00    +0.000 A 
ATOM      6  C   UNL     1       1.720   7.682  20.333  0.00  0.00    +0.000 A 
ATOM      7  C   UNL     1       0.885   7.986  21.423  0.00  0.00    +0.000 A 
ATOM      8  C   UNL     1       0.127   9.156  21.452  0.00  0.00    +0.000 A 
ATOM      9  C   UNL     1       0.194  10.040  20.380  0.00  0.00    +0.000 A 
ATOM     10  I   UNL     1      -0.992  11.764  20.438  0.00  0.00    +0.000 I 
ATOM     11  C   UNL     1       1.020   9.759  19.286  0.00  0.00    +0.000 A 
BRANCH   6  12
ATOM     12  O   UNL     1       2.305   6.448  20.457  0.00  0.00    +0.000 OA
ATOM     13  C   UNL     1       1.441   5.325  20.599  0.00  0.00    +0.000 C 
ENDBRANCH   6  12
BRANCH  11  14
ATOM     14  O   UNL     1       1.066  10.637  18.225  0.00  0.00    +0.000 OA
ATOM     15  H   UNL     1       0.414  10.338  17.564  0.00  0.00    +0.000 HD
ENDBRANCH  11  14
ENDBRANCH   2   5
BRANCH   1  16
ATOM     16  C   UNL     1       4.359   6.850  17.019  0.00  0.00    +0.000 C 
BRANCH  16  21
ATOM     17  N   UNL     1       6.670   5.864  17.760  0.00  0.00    +0.000 NA
ATOM     18  C   UNL     1       7.371   4.641  17.330  0.00  0.00    +0.000 C 
ATOM     19  C   UNL     1       6.714   4.245  16.025  0.00  0.00    +0.000 C 
ATOM     20  C   UNL     1       5.256   4.585  16.249  0.00  0.00    +0.000 C 
ATOM     21  C   UNL     1       5.245   5.632  17.378  0.00  0.00    +0.000 C 
BRANCH  17  23
ATOM     22  C   UNL     1       8.109   7.879  18.180  0.00  0.00    +0.000 C 
ATOM     23  C   UNL     1       7.253   7.089  17.191  0.00  0.00    +0.000 C 
ENDBRANCH  17  23
ENDBRANCH  16  21
ENDBRANCH   1  16
TORSDOF 6
ENDMDL
