MODEL 1
REMARK VINA RESULT:      -7.5      0.000      0.000
REMARK  Name = 
REMARK  12 active torsions:
REMARK  status: ('A' for Active; 'I' for Inactive)
REMARK    1  A    between atoms: C_1  and  C_2
REMARK    2  A    between atoms: C_8  and  C_9
REMARK    3  A    between atoms: C_9  and  N_10
REMARK    4  A    between atoms: N_10  and  C_11
REMARK    5  A    between atoms: C_12  and  C_14
REMARK    6  A    between atoms: C_17  and  C_18
REMARK    7  A    between atoms: C_22  and  C_23
REMARK    8  A    between atoms: C_22  and  C_24
REMARK    9  A    between atoms: C_25  and  O_26
REMARK   10  A    between atoms: O_26  and  C_27
REMARK   11  A    between atoms: C_27  and  C_28
REMARK   12  A    between atoms: C_27  and  C_29
REMARK                            x       y       z     vdW  Elec       q    Type
REMARK                         _______ _______ _______ _____ _____    ______ ____
ROOT
ATOM      1  C   UNL     1       8.556   5.016  19.644  0.00  0.00    +0.000 C 
ATOM      2  C   UNL     1       7.558   5.850  18.889  0.00  0.00    +0.000 A 
ATOM      3  C   UNL     1       7.922   6.996  18.301  0.00  0.00    +0.000 A 
ATOM      4  C   UNL     1       6.987   7.852  17.564  0.00  0.00    +0.000 A 
ATOM      5  O   UNL     1       7.382   8.852  16.976  0.00  0.00    +0.000 OA
ATOM      6  O   UNL     1       5.654   7.483  17.590  0.00  0.00    +0.000 OA
ATOM      7  C   UNL     1       5.196   6.289  18.196  0.00  0.00    +0.000 A 
ATOM      8  C   UNL     1       3.815   5.990  18.135  0.00  0.00    +0.000 A 
ATOM      9  C   UNL     1       3.428   4.696  18.592  0.00  0.00    +0.000 A 
ATOM     10  C   UNL     1       4.363   3.877  19.245  0.00  0.00    +0.000 A 
ATOM     11  C   UNL     1       5.701   4.240  19.348  0.00  0.00    +0.000 A 
ATOM     12  C   UNL     1       6.147   5.438  18.801  0.00  0.00    +0.000 A 
ENDROOT
BRANCH   8  13
ATOM     13  C   UNL     1       2.725   6.993  17.723  0.00  0.00    +0.000 C 
BRANCH  13  14
ATOM     14  N   UNL     1       2.059   7.837  18.758  0.00  0.00    +0.000 N 
ATOM     15  C   UNL     1       2.211   7.372  20.128  0.00  0.00    +0.000 C 
ATOM     16  C   UNL     1       1.716   9.171  18.463  0.00  0.00    +0.000 C 
ATOM     17  O   UNL     1       1.904   9.632  17.334  0.00  0.00    +0.000 OA
BRANCH  16  18
ATOM     18  C   UNL     1       0.979  10.061  19.553  0.00  0.00    +0.000 C 
ATOM     19  C   UNL     1       0.510   9.164  20.745  0.00  0.00    +0.000 C 
ATOM     20  C   UNL     1      -0.634   9.967  21.379  0.00  0.00    +0.000 C 
ATOM     21  C   UNL     1      -0.590  11.266  20.568  0.00  0.00    +0.000 C 
ATOM     22  C   UNL     1      -1.751  12.199  20.849  0.00  0.00    +0.000 C 
ATOM     23  C   UNL     1       0.772  11.866  20.881  0.00  0.00    +0.000 C 
ATOM     24  O   UNL     1       1.044  12.784  21.628  0.00  0.00    +0.000 OA
ATOM     25  O   UNL     1       1.709  11.142  20.156  0.00  0.00    +0.000 OA
ATOM     26  C   UNL     1      -0.331  10.809  19.115  0.00  0.00    +0.000 C 
ATOM     27  C   UNL     1      -0.151  12.025  18.172  0.00  0.00    +0.000 C 
ATOM     28  C   UNL     1      -1.427   9.923  18.499  0.00  0.00    +0.000 C 
ENDBRANCH  16  18
ENDBRANCH  13  14
ENDBRANCH   8  13
BRANCH   9  29
ATOM     29  O   UNL     1       2.126   4.277  18.392  0.00  0.00    +0.000 OA
BRANCH  29  30
ATOM     30  C   UNL     1       1.589   3.319  19.339  0.00  0.00    +0.000 C 
ATOM     31  C   UNL     1       0.892   4.047  20.487  0.00  0.00    +0.000 C 
ATOM     32  C   UNL     1       0.605   2.395  18.630  0.00  0.00    +0.000 C 
ENDBRANCH  29  30
ENDBRANCH   9  29
TORSDOF 5
ENDMDL
MODEL 2
REMARK VINA RESULT:      -7.5      2.125      8.436
REMARK  Name = 
REMARK  12 active torsions:
REMARK  status: ('A' for Active; 'I' for Inactive)
REMARK    1  A    between atoms: C_1  and  C_2
REMARK    2  A    between atoms: C_8  and  C_9
REMARK    3  A    between atoms: C_9  and  N_10
REMARK    4  A    between atoms: N_10  and  C_11
REMARK    5  A    between atoms: C_12  and  C_14
REMARK    6  A    between atoms: C_17  and  C_18
REMARK    7  A    between atoms: C_22  and  C_23
REMARK    8  A    between atoms: C_22  and  C_24
REMARK    9  A    between atoms: C_25  and  O_26
REMARK   10  A    between atoms: O_26  and  C_27
REMARK   11  A    between atoms: C_27  and  C_28
REMARK   12  A    between atoms: C_27  and  C_29
REMARK                            x       y       z     vdW  Elec       q    Type
REMARK                         _______ _______ _______ _____ _____    ______ ____
ROOT
ATOM      1  C   UNL     1      -4.614  11.846  19.131  0.00  0.00    +0.000 C 
ATOM      2  C   UNL     1      -3.441  11.266  18.390  0.00  0.00    +0.000 A 
ATOM      3  C   UNL     1      -3.620  10.520  17.293  0.00  0.00    +0.000 A 
ATOM      4  C   UNL     1      -2.512   9.923  16.540  0.00  0.00    +0.000 A 
ATOM      5  O   UNL     1      -2.719   9.313  15.497  0.00  0.00    +0.000 OA
ATOM      6  O   UNL     1      -1.246  10.066  17.078  0.00  0.00    +0.000 OA
ATOM      7  C   UNL     1      -0.983  10.835  18.237  0.00  0.00    +0.000 A 
ATOM      8  C   UNL     1       0.355  10.944  18.683  0.00  0.00    +0.000 A 
ATOM      9  C   UNL     1       0.596  11.874  19.736  0.00  0.00    +0.000 A 
ATOM     10  C   UNL     1      -0.487  12.474  20.401  0.00  0.00    +0.000 A 
ATOM     11  C   UNL     1      -1.797  12.283  19.975  0.00  0.00    +0.000 A 
ATOM     12  C   UNL     1      -2.066  11.485  18.868  0.00  0.00    +0.000 A 
ENDROOT
BRANCH   8  13
ATOM     13  C   UNL     1       1.511  10.060  18.188  0.00  0.00    +0.000 C 
BRANCH  13  14
ATOM     14  N   UNL     1       1.832   8.787  18.897  0.00  0.00    +0.000 N 
ATOM     15  C   UNL     1       1.117   8.577  20.147  0.00  0.00    +0.000 C 
ATOM     16  C   UNL     1       2.419   7.719  18.192  0.00  0.00    +0.000 C 
ATOM     17  O   UNL     1       2.729   7.845  17.005  0.00  0.00    +0.000 OA
BRANCH  16  18
ATOM     18  C   UNL     1       2.788   6.373  18.953  0.00  0.00    +0.000 C 
ATOM     19  C   UNL     1       4.252   6.451  19.493  0.00  0.00    +0.000 C 
ATOM     20  C   UNL     1       4.664   4.981  19.650  0.00  0.00    +0.000 C 
ATOM     21  C   UNL     1       3.357   4.254  19.314  0.00  0.00    +0.000 C 
ATOM     22  C   UNL     1       3.509   2.751  19.199  0.00  0.00    +0.000 C 
ATOM     23  C   UNL     1       2.385   4.695  20.396  0.00  0.00    +0.000 C 
ATOM     24  O   UNL     1       2.014   4.084  21.377  0.00  0.00    +0.000 OA
ATOM     25  O   UNL     1       1.986   5.987  20.080  0.00  0.00    +0.000 OA
ATOM     26  C   UNL     1       2.771   5.041  18.119  0.00  0.00    +0.000 C 
ATOM     27  C   UNL     1       1.378   4.492  17.720  0.00  0.00    +0.000 C 
ATOM     28  C   UNL     1       3.634   5.044  16.846  0.00  0.00    +0.000 C 
ENDBRANCH  16  18
ENDBRANCH  13  14
ENDBRANCH   8  13
BRANCH   9  29
ATOM     29  O   UNL     1       1.900  12.159  20.093  0.00  0.00    +0.000 OA
BRANCH  29  30
ATOM     30  C   UNL     1       2.332  13.538  19.968  0.00  0.00    +0.000 C 
ATOM     31  C   UNL     1       3.328  13.880  21.076  0.00  0.00    +0.000 C 
ATOM     32  C   UNL     1       2.975  13.751  18.603  0.00  0.00    +0.000 C 
ENDBRANCH  29  30
ENDBRANCH   9  29
TORSDOF 5
ENDMDL
MODEL 3
REMARK VINA RESULT:      -7.5      5.058      8.307
REMARK  Name = 
REMARK  12 active torsions:
REMARK  status: ('A' for Active; 'I' for Inactive)
REMARK    1  A    between atoms: C_1  and  C_2
REMARK    2  A    between atoms: C_8  and  C_9
REMARK    3  A    between atoms: C_9  and  N_10
REMARK    4  A    between atoms: N_10  and  C_11
REMARK    5  A    between atoms: C_12  and  C_14
REMARK    6  A    between atoms: C_17  and  C_18
REMARK    7  A    between atoms: C_22  and  C_23
REMARK    8  A    between atoms: C_22  and  C_24
REMARK    9  A    between atoms: C_25  and  O_26
REMARK   10  A    between atoms: O_26  and  C_27
REMARK   11  A    between atoms: C_27  and  C_28
REMARK   12  A    between atoms: C_27  and  C_29
REMARK                            x       y       z     vdW  Elec       q    Type
REMARK                         _______ _______ _______ _____ _____    ______ ____
ROOT
ATOM      1  C   UNL     1      -3.046   9.704  14.980  0.00  0.00    +0.000 C 
ATOM      2  C   UNL     1      -3.356  10.484  16.227  0.00  0.00    +0.000 A 
ATOM      3  C   UNL     1      -4.489  11.190  16.334  0.00  0.00    +0.000 A 
ATOM      4  C   UNL     1      -4.834  11.976  17.523  0.00  0.00    +0.000 A 
ATOM      5  O   UNL     1      -5.918  12.542  17.607  0.00  0.00    +0.000 OA
ATOM      6  O   UNL     1      -3.874  12.058  18.515  0.00  0.00    +0.000 OA
ATOM      7  C   UNL     1      -2.653  11.344  18.466  0.00  0.00    +0.000 A 
ATOM      8  C   UNL     1      -1.755  11.473  19.552  0.00  0.00    +0.000 A 
ATOM      9  C   UNL     1      -0.630  10.597  19.548  0.00  0.00    +0.000 A 
ATOM     10  C   UNL     1      -0.357   9.813  18.415  0.00  0.00    +0.000 A 
ATOM     11  C   UNL     1      -1.232   9.770  17.334  0.00  0.00    +0.000 A 
ATOM     12  C   UNL     1      -2.408  10.511  17.353  0.00  0.00    +0.000 A 
ENDROOT
BRANCH   8  13
ATOM     13  C   UNL     1      -1.859  12.549  20.645  0.00  0.00    +0.000 C 
BRANCH  13  14
ATOM     14  N   UNL     1      -0.800  13.593  20.766  0.00  0.00    +0.000 N 
ATOM     15  C   UNL     1      -0.115  13.634  22.049  0.00  0.00    +0.000 C 
ATOM     16  C   UNL     1      -0.236  14.160  19.607  0.00  0.00    +0.000 C 
ATOM     17  O   UNL     1      -0.652  13.846  18.488  0.00  0.00    +0.000 OA
BRANCH  16  18
ATOM     18  C   UNL     1       0.869  15.294  19.735  0.00  0.00    +0.000 C 
ATOM     19  C   UNL     1       0.635  16.393  18.649  0.00  0.00    +0.000 C 
ATOM     20  C   UNL     1       2.012  17.051  18.490  0.00  0.00    +0.000 C 
ATOM     21  C   UNL     1       2.821  16.349  19.586  0.00  0.00    +0.000 C 
ATOM     22  C   UNL     1       4.302  16.666  19.545  0.00  0.00    +0.000 C 
ATOM     23  C   UNL     1       2.139  16.755  20.883  0.00  0.00    +0.000 C 
ATOM     24  O   UNL     1       2.491  17.581  21.699  0.00  0.00    +0.000 OA
ATOM     25  O   UNL     1       0.974  16.005  20.979  0.00  0.00    +0.000 OA
ATOM     26  C   UNL     1       2.367  14.873  19.518  0.00  0.00    +0.000 C 
ATOM     27  C   UNL     1       3.022  14.038  20.648  0.00  0.00    +0.000 C 
ATOM     28  C   UNL     1       2.670  14.152  18.194  0.00  0.00    +0.000 C 
ENDBRANCH  16  18
ENDBRANCH  13  14
ENDBRANCH   8  13
BRANCH   9  29
ATOM     29  O   UNL     1       0.184  10.546  20.665  0.00  0.00    +0.000 OA
BRANCH  29  30
ATOM     30  C   UNL     1      -0.006   9.429  21.570  0.00  0.00    +0.000 C 
ATOM     31  C   UNL     1       1.234   8.537  21.573  0.00  0.00    +0.000 C 
ATOM     32  C   UNL     1      -0.280   9.951  22.976  0.00  0.00    +0.000 C 
ENDBRANCH  29  30
ENDBRANCH   9  29
TORSDOF 5
ENDMDL
MODEL 4
REMARK VINA RESULT:      -7.4      1.718      2.386
REMARK  Name = 
REMARK  12 active torsions:
REMARK  status: ('A' for Active; 'I' for Inactive)
REMARK    1  A    between atoms: C_1  and  C_2
REMARK    2  A    between atoms: C_8  and  C_9
REMARK    3  A    between atoms: C_9  and  N_10
REMARK    4  A    between atoms: N_10  and  C_11
REMARK    5  A    between atoms: C_12  and  C_14
REMARK    6  A    between atoms: C_17  and  C_18
REMARK    7  A    between atoms: C_22  and  C_23
REMARK    8  A    between atoms: C_22  and  C_24
REMARK    9  A    between atoms: C_25  and  O_26
REMARK   10  A    between atoms: O_26  and  C_27
REMARK   11  A    between atoms: C_27  and  C_28
REMARK   12  A    between atoms: C_27  and  C_29
REMARK                            x       y       z     vdW  Elec       q    Type
REMARK                         _______ _______ _______ _____ _____    ______ ____
ROOT
ATOM      1  C   UNL     1       6.872   3.855  15.583  0.00  0.00    +0.000 C 
ATOM      2  C   UNL     1       6.308   5.032  16.328  0.00  0.00    +0.000 A 
ATOM      3  C   UNL     1       7.000   6.174  16.437  0.00  0.00    +0.000 A 
ATOM      4  C   UNL     1       6.501   7.347  17.162  0.00  0.00    +0.000 A 
ATOM      5  O   UNL     1       7.135   8.396  17.168  0.00  0.00    +0.000 OA
ATOM      6  O   UNL     1       5.307   7.196  17.844  0.00  0.00    +0.000 OA
ATOM      7  C   UNL     1       4.527   6.017  17.779  0.00  0.00    +0.000 A 
ATOM      8  C   UNL     1       3.303   5.981  18.489  0.00  0.00    +0.000 A 
ATOM      9  C   UNL     1       2.465   4.853  18.245  0.00  0.00    +0.000 A 
ATOM     10  C   UNL     1       2.953   3.768  17.499  0.00  0.00    +0.000 A 
ATOM     11  C   UNL     1       4.195   3.814  16.875  0.00  0.00    +0.000 A 
ATOM     12  C   UNL     1       4.991   4.950  16.980  0.00  0.00    +0.000 A 
ENDROOT
BRANCH   8  13
ATOM     13  C   UNL     1       2.889   7.001  19.561  0.00  0.00    +0.000 C 
BRANCH  13  14
ATOM     14  N   UNL     1       1.998   8.143  19.199  0.00  0.00    +0.000 N 
ATOM     15  C   UNL     1       1.670   8.248  17.785  0.00  0.00    +0.000 C 
ATOM     16  C   UNL     1       1.211   8.761  20.189  0.00  0.00    +0.000 C 
ATOM     17  O   UNL     1       1.296   8.410  21.369  0.00  0.00    +0.000 OA
BRANCH  16  18
ATOM     18  C   UNL     1       0.286   9.996  19.811  0.00  0.00    +0.000 C 
ATOM     19  C   UNL     1      -0.519   9.680  18.508  0.00  0.00    +0.000 C 
ATOM     20  C   UNL     1      -0.872  11.066  17.951  0.00  0.00    +0.000 C 
ATOM     21  C   UNL     1      -0.352  11.989  19.057  0.00  0.00    +0.000 C 
ATOM     22  C   UNL     1      -0.393  13.459  18.692  0.00  0.00    +0.000 C 
ATOM     23  C   UNL     1      -1.187  11.633  20.277  0.00  0.00    +0.000 C 
ATOM     24  O   UNL     1      -2.125  12.235  20.756  0.00  0.00    +0.000 OA
ATOM     25  O   UNL     1      -0.695  10.430  20.767  0.00  0.00    +0.000 OA
ATOM     26  C   UNL     1       0.994  11.360  19.487  0.00  0.00    +0.000 C 
ATOM     27  C   UNL     1       1.607  12.125  20.687  0.00  0.00    +0.000 C 
ATOM     28  C   UNL     1       2.073  11.305  18.392  0.00  0.00    +0.000 C 
ENDBRANCH  16  18
ENDBRANCH  13  14
ENDBRANCH   8  13
BRANCH   9  29
ATOM     29  O   UNL     1       1.185   4.845  18.766  0.00  0.00    +0.000 OA
BRANCH  29  30
ATOM     30  C   UNL     1       0.874   3.815  19.738  0.00  0.00    +0.000 C 
ATOM     31  C   UNL     1       0.746   2.459  19.046  0.00  0.00    +0.000 C 
ATOM     32  C   UNL     1       1.971   3.761  20.795  0.00  0.00    +0.000 C 
ENDBRANCH  29  30
ENDBRANCH   9  29
TORSDOF 5
ENDMDL
MODEL 5
REMARK VINA RESULT:      -7.3      4.014      7.653
REMARK  Name = 
REMARK  12 active torsions:
REMARK  status: ('A' for Active; 'I' for Inactive)
REMARK    1  A    between atoms: C_1  and  C_2
REMARK    2  A    between atoms: C_8  and  C_9
REMARK    3  A    between atoms: C_9  and  N_10
REMARK    4  A    between atoms: N_10  and  C_11
REMARK    5  A    between atoms: C_12  and  C_14
REMARK    6  A    between atoms: C_17  and  C_18
REMARK    7  A    between atoms: C_22  and  C_23
REMARK    8  A    between atoms: C_22  and  C_24
REMARK    9  A    between atoms: C_25  and  O_26
REMARK   10  A    between atoms: O_26  and  C_27
REMARK   11  A    between atoms: C_27  and  C_28
REMARK   12  A    between atoms: C_27  and  C_29
REMARK                            x       y       z     vdW  Elec       q    Type
REMARK                         _______ _______ _______ _____ _____    ______ ____
ROOT
ATOM      1  C   UNL     1       1.424   6.966  21.221  0.00  0.00    +0.000 C 
ATOM      2  C   UNL     1       1.193   8.283  20.532  0.00  0.00    +0.000 A 
ATOM      3  C   UNL     1       1.660   8.505  19.297  0.00  0.00    +0.000 A 
ATOM      4  C   UNL     1       1.473   9.773  18.585  0.00  0.00    +0.000 A 
ATOM      5  O   UNL     1       1.849   9.903  17.426  0.00  0.00    +0.000 OA
ATOM      6  O   UNL     1       0.878  10.802  19.294  0.00  0.00    +0.000 OA
ATOM      7  C   UNL     1       0.366  10.640  20.603  0.00  0.00    +0.000 A 
ATOM      8  C   UNL     1      -0.255  11.750  21.224  0.00  0.00    +0.000 A 
ATOM      9  C   UNL     1      -0.917  11.492  22.460  0.00  0.00    +0.000 A 
ATOM     10  C   UNL     1      -0.764  10.246  23.090  0.00  0.00    +0.000 A 
ATOM     11  C   UNL     1      -0.082   9.201  22.476  0.00  0.00    +0.000 A 
ATOM     12  C   UNL     1       0.470   9.370  21.210  0.00  0.00    +0.000 A 
ENDROOT
BRANCH   8  13
ATOM     13  C   UNL     1      -0.162  13.197  20.714  0.00  0.00    +0.000 C 
BRANCH  13  14
ATOM     14  N   UNL     1       1.116  13.701  20.132  0.00  0.00    +0.000 N 
ATOM     15  C   UNL     1       1.073  13.996  18.707  0.00  0.00    +0.000 C 
ATOM     16  C   UNL     1       2.103  14.251  20.972  0.00  0.00    +0.000 C 
ATOM     17  O   UNL     1       1.948  14.265  22.196  0.00  0.00    +0.000 OA
BRANCH  16  18
ATOM     18  C   UNL     1       3.476  14.761  20.356  0.00  0.00    +0.000 C 
ATOM     19  C   UNL     1       4.652  14.435  21.333  0.00  0.00    +0.000 C 
ATOM     20  C   UNL     1       5.741  15.444  20.944  0.00  0.00    +0.000 C 
ATOM     21  C   UNL     1       5.115  16.123  19.722  0.00  0.00    +0.000 C 
ATOM     22  C   UNL     1       5.898  17.321  19.224  0.00  0.00    +0.000 C 
ATOM     23  C   UNL     1       4.975  15.009  18.696  0.00  0.00    +0.000 C 
ATOM     24  O   UNL     1       5.667  14.780  17.725  0.00  0.00    +0.000 OA
ATOM     25  O   UNL     1       3.885  14.239  19.082  0.00  0.00    +0.000 OA
ATOM     26  C   UNL     1       3.626  16.303  20.097  0.00  0.00    +0.000 C 
ATOM     27  C   UNL     1       2.820  16.887  18.909  0.00  0.00    +0.000 C 
ATOM     28  C   UNL     1       3.359  17.210  21.310  0.00  0.00    +0.000 C 
ENDBRANCH  16  18
ENDBRANCH  13  14
ENDBRANCH   8  13
BRANCH   9  29
ATOM     29  O   UNL     1      -1.693  12.488  23.025  0.00  0.00    +0.000 OA
BRANCH  29  30
ATOM     30  C   UNL     1      -3.124  12.260  23.075  0.00  0.00    +0.000 C 
ATOM     31  C   UNL     1      -3.720  12.923  24.317  0.00  0.00    +0.000 C 
ATOM     32  C   UNL     1      -3.777  12.823  21.818  0.00  0.00    +0.000 C 
ENDBRANCH  29  30
ENDBRANCH   9  29
TORSDOF 5
ENDMDL
MODEL 6
REMARK VINA RESULT:      -7.2      1.583      2.095
REMARK  Name = 
REMARK  12 active torsions:
REMARK  status: ('A' for Active; 'I' for Inactive)
REMARK    1  A    between atoms: C_1  and  C_2
REMARK    2  A    between atoms: C_8  and  C_9
REMARK    3  A    between atoms: C_9  and  N_10
REMARK    4  A    between atoms: N_10  and  C_11
REMARK    5  A    between atoms: C_12  and  C_14
REMARK    6  A    between atoms: C_17  and  C_18
REMARK    7  A    between atoms: C_22  and  C_23
REMARK    8  A    between atoms: C_22  and  C_24
REMARK    9  A    between atoms: C_25  and  O_26
REMARK   10  A    between atoms: O_26  and  C_27
REMARK   11  A    between atoms: C_27  and  C_28
REMARK   12  A    between atoms: C_27  and  C_29
REMARK                            x       y       z     vdW  Elec       q    Type
REMARK                         _______ _______ _______ _____ _____    ______ ____
ROOT
ATOM      1  C   UNL     1       7.305   4.268  15.426  0.00  0.00    +0.000 C 
ATOM      2  C   UNL     1       6.593   5.290  16.268  0.00  0.00    +0.000 A 
ATOM      3  C   UNL     1       7.185   6.444  16.598  0.00  0.00    +0.000 A 
ATOM      4  C   UNL     1       6.540   7.468  17.425  0.00  0.00    +0.000 A 
ATOM      5  O   UNL     1       7.090   8.543  17.636  0.00  0.00    +0.000 OA
ATOM      6  O   UNL     1       5.306   7.147  17.963  0.00  0.00    +0.000 OA
ATOM      7  C   UNL     1       4.624   5.944  17.663  0.00  0.00    +0.000 A 
ATOM      8  C   UNL     1       3.350   5.731  18.240  0.00  0.00    +0.000 A 
ATOM      9  C   UNL     1       2.624   4.600  17.766  0.00  0.00    +0.000 A 
ATOM     10  C   UNL     1       3.253   3.665  16.928  0.00  0.00    +0.000 A 
ATOM     11  C   UNL     1       4.537   3.877  16.438  0.00  0.00    +0.000 A 
ATOM     12  C   UNL     1       5.234   5.034  16.773  0.00  0.00    +0.000 A 
ENDROOT
BRANCH   8  13
ATOM     13  C   UNL     1       2.770   6.559  19.398  0.00  0.00    +0.000 C 
BRANCH  13  14
ATOM     14  N   UNL     1       2.275   7.945  19.148  0.00  0.00    +0.000 N 
ATOM     15  C   UNL     1       2.256   8.353  17.751  0.00  0.00    +0.000 C 
ATOM     16  C   UNL     1       1.494   8.598  20.121  0.00  0.00    +0.000 C 
ATOM     17  O   UNL     1       1.266   8.060  21.207  0.00  0.00    +0.000 OA
BRANCH  16  18
ATOM     18  C   UNL     1       0.992  10.084  19.868  0.00  0.00    +0.000 C 
ATOM     19  C   UNL     1       0.915  10.859  21.224  0.00  0.00    +0.000 C 
ATOM     20  C   UNL     1      -0.090  11.985  20.945  0.00  0.00    +0.000 C 
ATOM     21  C   UNL     1      -0.357  11.801  19.448  0.00  0.00    +0.000 C 
ATOM     22  C   UNL     1      -1.478  12.673  18.919  0.00  0.00    +0.000 C 
ATOM     23  C   UNL     1       0.988  12.057  18.785  0.00  0.00    +0.000 C 
ATOM     24  O   UNL     1       1.367  13.048  18.196  0.00  0.00    +0.000 OA
ATOM     25  O   UNL     1       1.763  10.924  18.994  0.00  0.00    +0.000 OA
ATOM     26  C   UNL     1      -0.442  10.270  19.254  0.00  0.00    +0.000 C 
ATOM     27  C   UNL     1      -0.606   9.908  17.756  0.00  0.00    +0.000 C 
ATOM     28  C   UNL     1      -1.585   9.573  20.011  0.00  0.00    +0.000 C 
ENDBRANCH  16  18
ENDBRANCH  13  14
ENDBRANCH   8  13
BRANCH   9  29
ATOM     29  O   UNL     1       1.307   4.438  18.155  0.00  0.00    +0.000 OA
BRANCH  29  30
ATOM     30  C   UNL     1       1.016   3.343  19.060  0.00  0.00    +0.000 C 
ATOM     31  C   UNL     1       2.160   2.329  19.044  0.00  0.00    +0.000 C 
ATOM     32  C   UNL     1       0.816   3.883  20.471  0.00  0.00    +0.000 C 
ENDBRANCH  29  30
ENDBRANCH   9  29
TORSDOF 5
ENDMDL
MODEL 7
REMARK VINA RESULT:      -7.1      1.933      8.501
REMARK  Name = 
REMARK  12 active torsions:
REMARK  status: ('A' for Active; 'I' for Inactive)
REMARK    1  A    between atoms: C_1  and  C_2
REMARK    2  A    between atoms: C_8  and  C_9
REMARK    3  A    between atoms: C_9  and  N_10
REMARK    4  A    between atoms: N_10  and  C_11
REMARK    5  A    between atoms: C_12  and  C_14
REMARK    6  A    between atoms: C_17  and  C_18
REMARK    7  A    between atoms: C_22  and  C_23
REMARK    8  A    between atoms: C_22  and  C_24
REMARK    9  A    between atoms: C_25  and  O_26
REMARK   10  A    between atoms: O_26  and  C_27
REMARK   11  A    between atoms: C_27  and  C_28
REMARK   12  A    between atoms: C_27  and  C_29
REMARK                            x       y       z     vdW  Elec       q    Type
REMARK                         _______ _______ _______ _____ _____    ______ ____
ROOT
ATOM      1  C   UNL     1      -4.668  11.740  18.905  0.00  0.00    +0.000 C 
ATOM      2  C   UNL     1      -3.398  11.216  18.294  0.00  0.00    +0.000 A 
ATOM      3  C   UNL     1      -3.425  10.476  17.178  0.00  0.00    +0.000 A 
ATOM      4  C   UNL     1      -2.219   9.932  16.547  0.00  0.00    +0.000 A 
ATOM      5  O   UNL     1      -2.286   9.328  15.483  0.00  0.00    +0.000 OA
ATOM      6  O   UNL     1      -1.026  10.118  17.222  0.00  0.00    +0.000 OA
ATOM      7  C   UNL     1      -0.923  10.882  18.409  0.00  0.00    +0.000 A 
ATOM      8  C   UNL     1       0.352  11.038  19.000  0.00  0.00    +0.000 A 
ATOM      9  C   UNL     1       0.438  11.964  20.081  0.00  0.00    +0.000 A 
ATOM     10  C   UNL     1      -0.733  12.512  20.627  0.00  0.00    +0.000 A 
ATOM     11  C   UNL     1      -1.981  12.276  20.058  0.00  0.00    +0.000 A 
ATOM     12  C   UNL     1      -2.094  11.481  18.922  0.00  0.00    +0.000 A 
ENDROOT
BRANCH   8  13
ATOM     13  C   UNL     1       1.591  10.206  18.629  0.00  0.00    +0.000 C 
BRANCH  13  14
ATOM     14  N   UNL     1       1.664   8.766  19.015  0.00  0.00    +0.000 N 
ATOM     15  C   UNL     1       0.760   8.365  20.082  0.00  0.00    +0.000 C 
ATOM     16  C   UNL     1       2.224   7.829  18.126  0.00  0.00    +0.000 C 
ATOM     17  O   UNL     1       2.712   8.194  17.054  0.00  0.00    +0.000 OA
BRANCH  16  18
ATOM     18  C   UNL     1       2.330   6.300  18.548  0.00  0.00    +0.000 C 
ATOM     19  C   UNL     1       2.062   6.151  20.081  0.00  0.00    +0.000 C 
ATOM     20  C   UNL     1       2.749   4.827  20.445  0.00  0.00    +0.000 C 
ATOM     21  C   UNL     1       3.202   4.323  19.072  0.00  0.00    +0.000 C 
ATOM     22  C   UNL     1       4.094   3.100  19.136  0.00  0.00    +0.000 C 
ATOM     23  C   UNL     1       1.910   4.104  18.300  0.00  0.00    +0.000 C 
ATOM     24  O   UNL     1       1.338   3.061  18.058  0.00  0.00    +0.000 OA
ATOM     25  O   UNL     1       1.452   5.357  17.915  0.00  0.00    +0.000 OA
ATOM     26  C   UNL     1       3.714   5.586  18.343  0.00  0.00    +0.000 C 
ATOM     27  C   UNL     1       4.116   5.262  16.881  0.00  0.00    +0.000 C 
ATOM     28  C   UNL     1       4.923   6.278  18.996  0.00  0.00    +0.000 C 
ENDBRANCH  16  18
ENDBRANCH  13  14
ENDBRANCH   8  13
BRANCH   9  29
ATOM     29  O   UNL     1       1.684  12.295  20.582  0.00  0.00    +0.000 OA
BRANCH  29  30
ATOM     30  C   UNL     1       2.112  13.672  20.426  0.00  0.00    +0.000 C 
ATOM     31  C   UNL     1       3.386  13.921  21.232  0.00  0.00    +0.000 C 
ATOM     32  C   UNL     1       2.359  13.968  18.952  0.00  0.00    +0.000 C 
ENDBRANCH  29  30
ENDBRANCH   9  29
TORSDOF 5
ENDMDL
MODEL 8
REMARK VINA RESULT:      -7.1      4.598      8.745
REMARK  Name = 
REMARK  12 active torsions:
REMARK  status: ('A' for Active; 'I' for Inactive)
REMARK    1  A    between atoms: C_1  and  C_2
REMARK    2  A    between atoms: C_8  and  C_9
REMARK    3  A    between atoms: C_9  and  N_10
REMARK    4  A    between atoms: N_10  and  C_11
REMARK    5  A    between atoms: C_12  and  C_14
REMARK    6  A    between atoms: C_17  and  C_18
REMARK    7  A    between atoms: C_22  and  C_23
REMARK    8  A    between atoms: C_22  and  C_24
REMARK    9  A    between atoms: C_25  and  O_26
REMARK   10  A    between atoms: O_26  and  C_27
REMARK   11  A    between atoms: C_27  and  C_28
REMARK   12  A    between atoms: C_27  and  C_29
REMARK                            x       y       z     vdW  Elec       q    Type
REMARK                         _______ _______ _______ _____ _____    ______ ____
ROOT
ATOM      1  C   UNL     1      -3.606   9.880  15.141  0.00  0.00    +0.000 C 
ATOM      2  C   UNL     1      -3.652  10.647  16.434  0.00  0.00    +0.000 A 
ATOM      3  C   UNL     1      -4.696  11.431  16.732  0.00  0.00    +0.000 A 
ATOM      4  C   UNL     1      -4.786  12.208  17.973  0.00  0.00    +0.000 A 
ATOM      5  O   UNL     1      -5.795  12.850  18.239  0.00  0.00    +0.000 OA
ATOM      6  O   UNL     1      -3.676  12.193  18.798  0.00  0.00    +0.000 OA
ATOM      7  C   UNL     1      -2.537  11.393  18.543  0.00  0.00    +0.000 A 
ATOM      8  C   UNL     1      -1.470  11.425  19.471  0.00  0.00    +0.000 A 
ATOM      9  C   UNL     1      -0.430  10.470  19.273  0.00  0.00    +0.000 A 
ATOM     10  C   UNL     1      -0.403   9.699  18.099  0.00  0.00    +0.000 A 
ATOM     11  C   UNL     1      -1.440   9.749  17.173  0.00  0.00    +0.000 A 
ATOM     12  C   UNL     1      -2.538  10.575  17.393  0.00  0.00    +0.000 A 
ENDROOT
BRANCH   8  13
ATOM     13  C   UNL     1      -1.316  12.477  20.582  0.00  0.00    +0.000 C 
BRANCH  13  14
ATOM     14  N   UNL     1      -2.421  12.695  21.561  0.00  0.00    +0.000 N 
ATOM     15  C   UNL     1      -2.416  11.802  22.710  0.00  0.00    +0.000 C 
ATOM     16  C   UNL     1      -3.110  13.923  21.580  0.00  0.00    +0.000 C 
ATOM     17  O   UNL     1      -2.851  14.801  20.753  0.00  0.00    +0.000 OA
BRANCH  16  18
ATOM     18  C   UNL     1      -4.308  14.145  22.600  0.00  0.00    +0.000 C 
ATOM     19  C   UNL     1      -4.120  13.226  23.851  0.00  0.00    +0.000 C 
ATOM     20  C   UNL     1      -5.539  13.088  24.420  0.00  0.00    +0.000 C 
ATOM     21  C   UNL     1      -6.330  14.040  23.518  0.00  0.00    +0.000 C 
ATOM     22  C   UNL     1      -7.830  13.969  23.726  0.00  0.00    +0.000 C 
ATOM     23  C   UNL     1      -5.735  15.412  23.793  0.00  0.00    +0.000 C 
ATOM     24  O   UNL     1      -6.183  16.312  24.473  0.00  0.00    +0.000 OA
ATOM     25  O   UNL     1      -4.518  15.465  23.126  0.00  0.00    +0.000 OA
ATOM     26  C   UNL     1      -5.758  13.801  22.103  0.00  0.00    +0.000 C 
ATOM     27  C   UNL     1      -6.387  14.776  21.075  0.00  0.00    +0.000 C 
ATOM     28  C   UNL     1      -5.950  12.379  21.547  0.00  0.00    +0.000 C 
ENDBRANCH  16  18
ENDBRANCH  13  14
ENDBRANCH   8  13
BRANCH   9  29
ATOM     29  O   UNL     1       0.545  10.330  20.243  0.00  0.00    +0.000 OA
BRANCH  29  30
ATOM     30  C   UNL     1       0.470   9.154  21.088  0.00  0.00    +0.000 C 
ATOM     31  C   UNL     1       1.557   8.153  20.696  0.00  0.00    +0.000 C 
ATOM     32  C   UNL     1       0.636   9.562  22.548  0.00  0.00    +0.000 C 
ENDBRANCH  29  30
ENDBRANCH   9  29
TORSDOF 5
ENDMDL
MODEL 9
REMARK VINA RESULT:      -7.0      5.104      8.719
REMARK  Name = 
REMARK  12 active torsions:
REMARK  status: ('A' for Active; 'I' for Inactive)
REMARK    1  A    between atoms: C_1  and  C_2
REMARK    2  A    between atoms: C_8  and  C_9
REMARK    3  A    between atoms: C_9  and  N_10
REMARK    4  A    between atoms: N_10  and  C_11
REMARK    5  A    between atoms: C_12  and  C_14
REMARK    6  A    between atoms: C_17  and  C_18
REMARK    7  A    between atoms: C_22  and  C_23
REMARK    8  A    between atoms: C_22  and  C_24
REMARK    9  A    between atoms: C_25  and  O_26
REMARK   10  A    between atoms: O_26  and  C_27
REMARK   11  A    between atoms: C_27  and  C_28
REMARK   12  A    between atoms: C_27  and  C_29
REMARK                            x       y       z     vdW  Elec       q    Type
REMARK                         _______ _______ _______ _____ _____    ______ ____
ROOT
ATOM      1  C   UNL     1       1.306   9.121  18.547  0.00  0.00    +0.000 C 
ATOM      2  C   UNL     1       0.996   9.973  19.746  0.00  0.00    +0.000 A 
ATOM      3  C   UNL     1       0.589   9.421  20.896  0.00  0.00    +0.000 A 
ATOM      4  C   UNL     1       0.264  10.206  22.091  0.00  0.00    +0.000 A 
ATOM      5  O   UNL     1      -0.029   9.653  23.145  0.00  0.00    +0.000 OA
ATOM      6  O   UNL     1       0.283  11.583  21.955  0.00  0.00    +0.000 OA
ATOM      7  C   UNL     1       0.697  12.234  20.769  0.00  0.00    +0.000 A 
ATOM      8  C   UNL     1       0.713  13.649  20.749  0.00  0.00    +0.000 A 
ATOM      9  C   UNL     1       1.311  14.257  19.606  0.00  0.00    +0.000 A 
ATOM     10  C   UNL     1       1.664  13.470  18.499  0.00  0.00    +0.000 A 
ATOM     11  C   UNL     1       1.566  12.082  18.532  0.00  0.00    +0.000 A 
ATOM     12  C   UNL     1       1.108  11.439  19.678  0.00  0.00    +0.000 A 
ENDROOT
BRANCH   8  13
ATOM     13  C   UNL     1       0.041  14.542  21.804  0.00  0.00    +0.000 C 
BRANCH  13  14
ATOM     14  N   UNL     1      -1.246  14.116  22.430  0.00  0.00    +0.000 N 
ATOM     15  C   UNL     1      -1.273  14.166  23.884  0.00  0.00    +0.000 C 
ATOM     16  C   UNL     1      -2.430  14.109  21.667  0.00  0.00    +0.000 C 
ATOM     17  O   UNL     1      -2.405  14.391  20.466  0.00  0.00    +0.000 OA
BRANCH  16  18
ATOM     18  C   UNL     1      -3.794  13.627  22.324  0.00  0.00    +0.000 C 
ATOM     19  C   UNL     1      -4.633  12.821  21.280  0.00  0.00    +0.000 C 
ATOM     20  C   UNL     1      -6.073  12.938  21.800  0.00  0.00    +0.000 C 
ATOM     21  C   UNL     1      -5.866  13.670  23.129  0.00  0.00    +0.000 C 
ATOM     22  C   UNL     1      -7.158  14.101  23.794  0.00  0.00    +0.000 C 
ATOM     23  C   UNL     1      -5.032  12.714  23.967  0.00  0.00    +0.000 C 
ATOM     24  O   UNL     1      -5.388  11.988  24.872  0.00  0.00    +0.000 OA
ATOM     25  O   UNL     1      -3.730  12.789  23.489  0.00  0.00    +0.000 OA
ATOM     26  C   UNL     1      -4.789  14.736  22.823  0.00  0.00    +0.000 C 
ATOM     27  C   UNL     1      -4.384  15.503  24.107  0.00  0.00    +0.000 C 
ATOM     28  C   UNL     1      -5.187  15.791  21.777  0.00  0.00    +0.000 C 
ENDBRANCH  16  18
ENDBRANCH  13  14
ENDBRANCH   8  13
BRANCH   9  29
ATOM     29  O   UNL     1       1.519  15.624  19.607  0.00  0.00    +0.000 OA
BRANCH  29  30
ATOM     30  C   UNL     1       2.665  16.117  18.868  0.00  0.00    +0.000 C 
ATOM     31  C   UNL     1       2.218  17.139  17.823  0.00  0.00    +0.000 C 
ATOM     32  C   UNL     1       3.661  16.753  19.830  0.00  0.00    +0.000 C 
ENDBRANCH  29  30
ENDBRANCH   9  29
TORSDOF 5
ENDMDL
