MODEL 1
REMARK VINA RESULT:      -8.1      0.000      0.000
REMARK  Name = 
REMARK  10 active torsions:
REMARK  status: ('A' for Active; 'I' for Inactive)
REMARK    1  A    between atoms: C_2  and  C_3
REMARK    2  A    between atoms: C_3  and  C_4
REMARK    3  A    between atoms: C_3  and  C_5
REMARK    4  A    between atoms: C_3  and  C_21
REMARK    5  A    between atoms: C_6  and  C_7
REMARK    6  A    between atoms: C_10  and  C_11
REMARK    7  A    between atoms: C_21  and  C_22
REMARK    8  A    between atoms: C_22  and  C_23
REMARK    9  A    between atoms: C_24  and  C_25
REMARK   10  A    between atoms: C_24  and  C_26
REMARK                            x       y       z     vdW  Elec       q    Type
REMARK                         _______ _______ _______ _____ _____    ______ ____
ROOT
ATOM      1  C   UNL     1       2.644   7.753  18.432  0.00  0.00    +0.000 A 
ATOM      2  C   UNL     1       2.114   8.949  17.952  0.00  0.00    +0.000 A 
ATOM      3  C   UNL     1       1.269   9.716  18.759  0.00  0.00    +0.000 A 
ATOM      4  C   UNL     1       0.917   9.305  20.059  0.00  0.00    +0.000 A 
ATOM      5  C   UNL     1       1.465   8.093  20.519  0.00  0.00    +0.000 A 
ATOM      6  C   UNL     1       2.325   7.329  19.720  0.00  0.00    +0.000 A 
ENDROOT
BRANCH   4   7
ATOM      7  C   UNL     1       0.007  10.117  20.902  0.00  0.00    +0.000 A 
ATOM      8  C   UNL     1      -0.147   9.853  22.274  0.00  0.00    +0.000 A 
ATOM      9  C   UNL     1      -1.013  10.608  23.074  0.00  0.00    +0.000 A 
ATOM     10  C   UNL     1      -1.737  11.662  22.519  0.00  0.00    +0.000 A 
ATOM     11 CL   UNL     1      -2.780  12.559  23.563  0.00  0.00    +0.000 Cl
ATOM     12  C   UNL     1      -1.598  11.953  21.162  0.00  0.00    +0.000 A 
ATOM     13 CL   UNL     1      -2.448  13.252  20.401  0.00  0.00    +0.000 Cl
ATOM     14  C   UNL     1      -0.740  11.181  20.364  0.00  0.00    +0.000 A 
ENDBRANCH   4   7
BRANCH   1  16
ATOM     15  C   UNL     1       4.725   6.531  17.977  0.00  0.00    +0.000 C 
ATOM     16  C   UNL     1       3.511   6.952  17.576  0.00  0.00    +0.000 C 
BRANCH  15  17
ATOM     17  C   UNL     1       5.711   5.715  17.136  0.00  0.00    +0.000 C 
ATOM     18  C   UNL     1       7.144   6.284  17.303  0.00  0.00    +0.000 C 
BRANCH  17  20
ATOM     19  C   UNL     1       5.757   5.121  14.633  0.00  0.00    +0.000 C 
ATOM     20  C   UNL     1       5.212   5.731  15.695  0.00  0.00    +0.000 C 
ENDBRANCH  17  20
BRANCH  17  21
ATOM     21  C   UNL     1       5.692   4.241  17.661  0.00  0.00    +0.000 C 
BRANCH  21  22
ATOM     22  C   UNL     1       4.367   3.499  17.426  0.00  0.00    +0.000 C 
BRANCH  22  23
ATOM     23  C   UNL     1       3.539   3.371  18.674  0.00  0.00    +0.000 C 
ATOM     24  C   UNL     1       2.239   3.703  18.806  0.00  0.00    +0.000 C 
ATOM     25  C   UNL     1       1.356   4.165  17.679  0.00  0.00    +0.000 C 
ATOM     26  C   UNL     1       1.553   3.630  20.143  0.00  0.00    +0.000 C 
ENDBRANCH  22  23
ENDBRANCH  21  22
ENDBRANCH  17  21
ENDBRANCH  15  17
ENDBRANCH   1  16
TORSDOF 7
ENDMDL
MODEL 2
REMARK VINA RESULT:      -7.9      1.307      3.540
REMARK  Name = 
REMARK  10 active torsions:
REMARK  status: ('A' for Active; 'I' for Inactive)
REMARK    1  A    between atoms: C_2  and  C_3
REMARK    2  A    between atoms: C_3  and  C_4
REMARK    3  A    between atoms: C_3  and  C_5
REMARK    4  A    between atoms: C_3  and  C_21
REMARK    5  A    between atoms: C_6  and  C_7
REMARK    6  A    between atoms: C_10  and  C_11
REMARK    7  A    between atoms: C_21  and  C_22
REMARK    8  A    between atoms: C_22  and  C_23
REMARK    9  A    between atoms: C_24  and  C_25
REMARK   10  A    between atoms: C_24  and  C_26
REMARK                            x       y       z     vdW  Elec       q    Type
REMARK                         _______ _______ _______ _____ _____    ______ ____
ROOT
ATOM      1  C   UNL     1       2.434   7.639  18.600  0.00  0.00    +0.000 A 
ATOM      2  C   UNL     1       2.072   8.649  17.711  0.00  0.00    +0.000 A 
ATOM      3  C   UNL     1       1.274   9.712  18.144  0.00  0.00    +0.000 A 
ATOM      4  C   UNL     1       0.803   9.789  19.469  0.00  0.00    +0.000 A 
ATOM      5  C   UNL     1       1.184   8.756  20.346  0.00  0.00    +0.000 A 
ATOM      6  C   UNL     1       1.996   7.698  19.921  0.00  0.00    +0.000 A 
ENDROOT
BRANCH   4   7
ATOM      7  C   UNL     1      -0.056  10.912  19.916  0.00  0.00    +0.000 A 
ATOM      8  C   UNL     1      -0.284  12.030  19.095  0.00  0.00    +0.000 A 
ATOM      9  C   UNL     1      -1.084  13.098  19.515  0.00  0.00    +0.000 A 
ATOM     10  C   UNL     1      -1.695  13.064  20.768  0.00  0.00    +0.000 A 
ATOM     11 CL   UNL     1      -2.677  14.410  21.222  0.00  0.00    +0.000 Cl
ATOM     12  C   UNL     1      -1.495  11.963  21.601  0.00  0.00    +0.000 A 
ATOM     13 CL   UNL     1      -2.227  11.837  23.162  0.00  0.00    +0.000 Cl
ATOM     14  C   UNL     1      -0.677  10.905  21.179  0.00  0.00    +0.000 A 
ENDBRANCH   4   7
BRANCH   1  16
ATOM     15  C   UNL     1       2.856   5.246  18.247  0.00  0.00    +0.000 C 
ATOM     16  C   UNL     1       3.254   6.527  18.133  0.00  0.00    +0.000 C 
BRANCH  15  17
ATOM     17  C   UNL     1       3.663   4.018  17.812  0.00  0.00    +0.000 C 
ATOM     18  C   UNL     1       2.700   2.891  17.353  0.00  0.00    +0.000 C 
BRANCH  17  20
ATOM     19  C   UNL     1       4.448   2.537  19.764  0.00  0.00    +0.000 C 
ATOM     20  C   UNL     1       4.559   3.618  18.979  0.00  0.00    +0.000 C 
ENDBRANCH  17  20
BRANCH  17  21
ATOM     21  C   UNL     1       4.563   4.433  16.602  0.00  0.00    +0.000 C 
BRANCH  21  22
ATOM     22  C   UNL     1       6.068   4.475  16.914  0.00  0.00    +0.000 C 
BRANCH  22  23
ATOM     23  C   UNL     1       6.640   5.864  16.848  0.00  0.00    +0.000 C 
ATOM     24  C   UNL     1       7.324   6.492  17.825  0.00  0.00    +0.000 C 
ATOM     25  C   UNL     1       7.729   5.858  19.128  0.00  0.00    +0.000 C 
ATOM     26  C   UNL     1       7.749   7.927  17.674  0.00  0.00    +0.000 C 
ENDBRANCH  22  23
ENDBRANCH  21  22
ENDBRANCH  17  21
ENDBRANCH  15  17
ENDBRANCH   1  16
TORSDOF 7
ENDMDL
MODEL 3
REMARK VINA RESULT:      -7.9      1.618      3.457
REMARK  Name = 
REMARK  10 active torsions:
REMARK  status: ('A' for Active; 'I' for Inactive)
REMARK    1  A    between atoms: C_2  and  C_3
REMARK    2  A    between atoms: C_3  and  C_4
REMARK    3  A    between atoms: C_3  and  C_5
REMARK    4  A    between atoms: C_3  and  C_21
REMARK    5  A    between atoms: C_6  and  C_7
REMARK    6  A    between atoms: C_10  and  C_11
REMARK    7  A    between atoms: C_21  and  C_22
REMARK    8  A    between atoms: C_22  and  C_23
REMARK    9  A    between atoms: C_24  and  C_25
REMARK   10  A    between atoms: C_24  and  C_26
REMARK                            x       y       z     vdW  Elec       q    Type
REMARK                         _______ _______ _______ _____ _____    ______ ____
ROOT
ATOM      1  C   UNL     1       2.554   7.514  18.659  0.00  0.00    +0.000 A 
ATOM      2  C   UNL     1       2.212   8.473  17.708  0.00  0.00    +0.000 A 
ATOM      3  C   UNL     1       1.351   9.521  18.048  0.00  0.00    +0.000 A 
ATOM      4  C   UNL     1       0.797   9.633  19.337  0.00  0.00    +0.000 A 
ATOM      5  C   UNL     1       1.159   8.650  20.279  0.00  0.00    +0.000 A 
ATOM      6  C   UNL     1       2.034   7.608  19.948  0.00  0.00    +0.000 A 
ENDROOT
BRANCH   4   7
ATOM      7  C   UNL     1      -0.128  10.738  19.684  0.00  0.00    +0.000 A 
ATOM      8  C   UNL     1       0.232  11.727  20.616  0.00  0.00    +0.000 A 
ATOM      9  C   UNL     1      -0.640  12.767  20.957  0.00  0.00    +0.000 A 
ATOM     10  C   UNL     1      -1.896  12.852  20.356  0.00  0.00    +0.000 A 
ATOM     11 CL   UNL     1      -2.920  14.164  20.815  0.00  0.00    +0.000 Cl
ATOM     12  C   UNL     1      -2.277  11.890  19.421  0.00  0.00    +0.000 A 
ATOM     13 CL   UNL     1      -3.809  11.932  18.621  0.00  0.00    +0.000 Cl
ATOM     14  C   UNL     1      -1.403  10.841  19.098  0.00  0.00    +0.000 A 
ENDBRANCH   4   7
BRANCH   1  16
ATOM     15  C   UNL     1       2.972   5.216  17.900  0.00  0.00    +0.000 C 
ATOM     16  C   UNL     1       3.441   6.416  18.290  0.00  0.00    +0.000 C 
BRANCH  15  17
ATOM     17  C   UNL     1       3.827   4.002  17.523  0.00  0.00    +0.000 C 
ATOM     18  C   UNL     1       2.913   2.835  17.066  0.00  0.00    +0.000 C 
BRANCH  17  20
ATOM     19  C   UNL     1       4.339   2.994  19.834  0.00  0.00    +0.000 C 
ATOM     20  C   UNL     1       4.698   3.659  18.728  0.00  0.00    +0.000 C 
ENDBRANCH  17  20
BRANCH  17  21
ATOM     21  C   UNL     1       4.753   4.412  16.331  0.00  0.00    +0.000 C 
BRANCH  21  22
ATOM     22  C   UNL     1       6.248   4.482  16.681  0.00  0.00    +0.000 C 
BRANCH  22  23
ATOM     23  C   UNL     1       6.785   5.886  16.678  0.00  0.00    +0.000 C 
ATOM     24  C   UNL     1       7.374   6.518  17.712  0.00  0.00    +0.000 C 
ATOM     25  C   UNL     1       7.693   5.876  19.036  0.00  0.00    +0.000 C 
ATOM     26  C   UNL     1       7.769   7.966  17.613  0.00  0.00    +0.000 C 
ENDBRANCH  22  23
ENDBRANCH  21  22
ENDBRANCH  17  21
ENDBRANCH  15  17
ENDBRANCH   1  16
TORSDOF 7
ENDMDL
MODEL 4
REMARK VINA RESULT:      -7.9      1.270      2.137
REMARK  Name = 
REMARK  10 active torsions:
REMARK  status: ('A' for Active; 'I' for Inactive)
REMARK    1  A    between atoms: C_2  and  C_3
REMARK    2  A    between atoms: C_3  and  C_4
REMARK    3  A    between atoms: C_3  and  C_5
REMARK    4  A    between atoms: C_3  and  C_21
REMARK    5  A    between atoms: C_6  and  C_7
REMARK    6  A    between atoms: C_10  and  C_11
REMARK    7  A    between atoms: C_21  and  C_22
REMARK    8  A    between atoms: C_22  and  C_23
REMARK    9  A    between atoms: C_24  and  C_25
REMARK   10  A    between atoms: C_24  and  C_26
REMARK                            x       y       z     vdW  Elec       q    Type
REMARK                         _______ _______ _______ _____ _____    ______ ____
ROOT
ATOM      1  C   UNL     1       2.514   7.602  18.879  0.00  0.00    +0.000 A 
ATOM      2  C   UNL     1       2.050   8.455  17.880  0.00  0.00    +0.000 A 
ATOM      3  C   UNL     1       1.090   9.427  18.178  0.00  0.00    +0.000 A 
ATOM      4  C   UNL     1       0.558   9.566  19.474  0.00  0.00    +0.000 A 
ATOM      5  C   UNL     1       1.045   8.691  20.464  0.00  0.00    +0.000 A 
ATOM      6  C   UNL     1       2.018   7.726  20.174  0.00  0.00    +0.000 A 
ENDROOT
BRANCH   4   7
ATOM      7  C   UNL     1      -0.470  10.589  19.778  0.00  0.00    +0.000 A 
ATOM      8  C   UNL     1      -1.320  11.091  18.777  0.00  0.00    +0.000 A 
ATOM      9  C   UNL     1      -2.286  12.065  19.054  0.00  0.00    +0.000 A 
ATOM     10  C   UNL     1      -2.437  12.551  20.353  0.00  0.00    +0.000 A 
ATOM     11 CL   UNL     1      -3.653  13.745  20.629  0.00  0.00    +0.000 Cl
ATOM     12  C   UNL     1      -1.614  12.064  21.369  0.00  0.00    +0.000 A 
ATOM     13 CL   UNL     1      -1.748  12.602  23.006  0.00  0.00    +0.000 Cl
ATOM     14  C   UNL     1      -0.637  11.100  21.078  0.00  0.00    +0.000 A 
ENDBRANCH   4   7
BRANCH   1  16
ATOM     15  C   UNL     1       3.204   5.507  17.799  0.00  0.00    +0.000 C 
ATOM     16  C   UNL     1       3.504   6.580  18.553  0.00  0.00    +0.000 C 
BRANCH  15  17
ATOM     17  C   UNL     1       4.169   4.374  17.433  0.00  0.00    +0.000 C 
ATOM     18  C   UNL     1       5.173   4.142  18.593  0.00  0.00    +0.000 C 
BRANCH  17  20
ATOM     19  C   UNL     1       5.727   4.026  15.416  0.00  0.00    +0.000 C 
ATOM     20  C   UNL     1       4.836   4.745  16.113  0.00  0.00    +0.000 C 
ENDBRANCH  17  20
BRANCH  17  21
ATOM     21  C   UNL     1       3.331   3.070  17.227  0.00  0.00    +0.000 C 
BRANCH  21  22
ATOM     22  C   UNL     1       1.941   3.096  17.885  0.00  0.00    +0.000 C 
BRANCH  22  23
ATOM     23  C   UNL     1       1.934   2.490  19.261  0.00  0.00    +0.000 C 
ATOM     24  C   UNL     1       1.531   3.095  20.396  0.00  0.00    +0.000 C 
ATOM     25  C   UNL     1       0.911   4.465  20.461  0.00  0.00    +0.000 C 
ATOM     26  C   UNL     1       1.679   2.416  21.730  0.00  0.00    +0.000 C 
ENDBRANCH  22  23
ENDBRANCH  21  22
ENDBRANCH  17  21
ENDBRANCH  15  17
ENDBRANCH   1  16
TORSDOF 7
ENDMDL
MODEL 5
REMARK VINA RESULT:      -7.9      1.537      2.208
REMARK  Name = 
REMARK  10 active torsions:
REMARK  status: ('A' for Active; 'I' for Inactive)
REMARK    1  A    between atoms: C_2  and  C_3
REMARK    2  A    between atoms: C_3  and  C_4
REMARK    3  A    between atoms: C_3  and  C_5
REMARK    4  A    between atoms: C_3  and  C_21
REMARK    5  A    between atoms: C_6  and  C_7
REMARK    6  A    between atoms: C_10  and  C_11
REMARK    7  A    between atoms: C_21  and  C_22
REMARK    8  A    between atoms: C_22  and  C_23
REMARK    9  A    between atoms: C_24  and  C_25
REMARK   10  A    between atoms: C_24  and  C_26
REMARK                            x       y       z     vdW  Elec       q    Type
REMARK                         _______ _______ _______ _____ _____    ______ ____
ROOT
ATOM      1  C   UNL     1       2.530   7.513  18.861  0.00  0.00    +0.000 A 
ATOM      2  C   UNL     1       2.016   7.692  20.144  0.00  0.00    +0.000 A 
ATOM      3  C   UNL     1       1.077   8.699  20.389  0.00  0.00    +0.000 A 
ATOM      4  C   UNL     1       0.637   9.562  19.367  0.00  0.00    +0.000 A 
ATOM      5  C   UNL     1       1.173   9.359  18.081  0.00  0.00    +0.000 A 
ATOM      6  C   UNL     1       2.101   8.342  17.827  0.00  0.00    +0.000 A 
ENDROOT
BRANCH   4   7
ATOM      7  C   UNL     1      -0.347  10.637  19.638  0.00  0.00    +0.000 A 
ATOM      8  C   UNL     1      -0.126  11.592  20.646  0.00  0.00    +0.000 A 
ATOM      9  C   UNL     1      -1.056  12.603  20.916  0.00  0.00    +0.000 A 
ATOM     10  C   UNL     1      -2.228  12.693  20.166  0.00  0.00    +0.000 A 
ATOM     11 CL   UNL     1      -3.329  13.969  20.544  0.00  0.00    +0.000 Cl
ATOM     12  C   UNL     1      -2.470  11.765  19.153  0.00  0.00    +0.000 A 
ATOM     13 CL   UNL     1      -3.890  11.816  18.169  0.00  0.00    +0.000 Cl
ATOM     14  C   UNL     1      -1.540  10.745  18.901  0.00  0.00    +0.000 A 
ENDBRANCH   4   7
BRANCH   1  16
ATOM     15  C   UNL     1       3.335   5.501  17.706  0.00  0.00    +0.000 C 
ATOM     16  C   UNL     1       3.521   6.470  18.621  0.00  0.00    +0.000 C 
BRANCH  15  17
ATOM     17  C   UNL     1       4.306   4.354  17.409  0.00  0.00    +0.000 C 
ATOM     18  C   UNL     1       5.303   4.189  18.586  0.00  0.00    +0.000 C 
BRANCH  17  20
ATOM     19  C   UNL     1       5.894   3.911  15.434  0.00  0.00    +0.000 C 
ATOM     20  C   UNL     1       4.981   4.654  16.075  0.00  0.00    +0.000 C 
ENDBRANCH  17  20
BRANCH  17  21
ATOM     21  C   UNL     1       3.473   3.037  17.269  0.00  0.00    +0.000 C 
BRANCH  21  22
ATOM     22  C   UNL     1       2.071   3.101  17.895  0.00  0.00    +0.000 C 
BRANCH  22  23
ATOM     23  C   UNL     1       2.016   2.498  19.271  0.00  0.00    +0.000 C 
ATOM     24  C   UNL     1       1.553   3.096  20.387  0.00  0.00    +0.000 C 
ATOM     25  C   UNL     1       0.905   4.454  20.422  0.00  0.00    +0.000 C 
ATOM     26  C   UNL     1       1.656   2.421  21.727  0.00  0.00    +0.000 C 
ENDBRANCH  22  23
ENDBRANCH  21  22
ENDBRANCH  17  21
ENDBRANCH  15  17
ENDBRANCH   1  16
TORSDOF 7
ENDMDL
MODEL 6
REMARK VINA RESULT:      -7.8      1.277      3.270
REMARK  Name = 
REMARK  10 active torsions:
REMARK  status: ('A' for Active; 'I' for Inactive)
REMARK    1  A    between atoms: C_2  and  C_3
REMARK    2  A    between atoms: C_3  and  C_4
REMARK    3  A    between atoms: C_3  and  C_5
REMARK    4  A    between atoms: C_3  and  C_21
REMARK    5  A    between atoms: C_6  and  C_7
REMARK    6  A    between atoms: C_10  and  C_11
REMARK    7  A    between atoms: C_21  and  C_22
REMARK    8  A    between atoms: C_22  and  C_23
REMARK    9  A    between atoms: C_24  and  C_25
REMARK   10  A    between atoms: C_24  and  C_26
REMARK                            x       y       z     vdW  Elec       q    Type
REMARK                         _______ _______ _______ _____ _____    ______ ____
ROOT
ATOM      1  C   UNL     1       2.370   7.411  18.870  0.00  0.00    +0.000 A 
ATOM      2  C   UNL     1       1.990   8.610  18.271  0.00  0.00    +0.000 A 
ATOM      3  C   UNL     1       1.314   9.583  19.014  0.00  0.00    +0.000 A 
ATOM      4  C   UNL     1       0.987   9.380  20.369  0.00  0.00    +0.000 A 
ATOM      5  C   UNL     1       1.383   8.160  20.949  0.00  0.00    +0.000 A 
ATOM      6  C   UNL     1       2.074   7.190  20.213  0.00  0.00    +0.000 A 
ENDROOT
BRANCH   4   7
ATOM      7  C   UNL     1       0.257  10.410  21.146  0.00  0.00    +0.000 A 
ATOM      8  C   UNL     1      -0.461  10.076  22.307  0.00  0.00    +0.000 A 
ATOM      9  C   UNL     1      -1.163  11.041  23.039  0.00  0.00    +0.000 A 
ATOM     10  C   UNL     1      -1.148  12.375  22.633  0.00  0.00    +0.000 A 
ATOM     11 CL   UNL     1      -2.026  13.516  23.586  0.00  0.00    +0.000 Cl
ATOM     12  C   UNL     1      -0.436  12.737  21.489  0.00  0.00    +0.000 A 
ATOM     13 CL   UNL     1      -0.356  14.370  20.928  0.00  0.00    +0.000 Cl
ATOM     14  C   UNL     1       0.250  11.761  20.752  0.00  0.00    +0.000 A 
ENDBRANCH   4   7
BRANCH   1  16
ATOM     15  C   UNL     1       2.995   5.087  18.381  0.00  0.00    +0.000 C 
ATOM     16  C   UNL     1       3.060   6.397  18.080  0.00  0.00    +0.000 C 
BRANCH  15  17
ATOM     17  C   UNL     1       3.709   3.960  17.627  0.00  0.00    +0.000 C 
ATOM     18  C   UNL     1       2.663   3.008  16.990  0.00  0.00    +0.000 C 
BRANCH  17  20
ATOM     19  C   UNL     1       4.417   2.988  19.901  0.00  0.00    +0.000 C 
ATOM     20  C   UNL     1       4.646   3.268  18.610  0.00  0.00    +0.000 C 
ENDBRANCH  17  20
BRANCH  17  21
ATOM     21  C   UNL     1       4.562   4.605  16.485  0.00  0.00    +0.000 C 
BRANCH  21  22
ATOM     22  C   UNL     1       6.079   4.572  16.728  0.00  0.00    +0.000 C 
BRANCH  22  23
ATOM     23  C   UNL     1       6.702   5.941  16.725  0.00  0.00    +0.000 C 
ATOM     24  C   UNL     1       7.337   6.530  17.757  0.00  0.00    +0.000 C 
ATOM     25  C   UNL     1       7.626   5.864  19.075  0.00  0.00    +0.000 C 
ATOM     26  C   UNL     1       7.821   7.951  17.660  0.00  0.00    +0.000 C 
ENDBRANCH  22  23
ENDBRANCH  21  22
ENDBRANCH  17  21
ENDBRANCH  15  17
ENDBRANCH   1  16
TORSDOF 7
ENDMDL
MODEL 7
REMARK VINA RESULT:      -7.8      0.527      1.232
REMARK  Name = 
REMARK  10 active torsions:
REMARK  status: ('A' for Active; 'I' for Inactive)
REMARK    1  A    between atoms: C_2  and  C_3
REMARK    2  A    between atoms: C_3  and  C_4
REMARK    3  A    between atoms: C_3  and  C_5
REMARK    4  A    between atoms: C_3  and  C_21
REMARK    5  A    between atoms: C_6  and  C_7
REMARK    6  A    between atoms: C_10  and  C_11
REMARK    7  A    between atoms: C_21  and  C_22
REMARK    8  A    between atoms: C_22  and  C_23
REMARK    9  A    between atoms: C_24  and  C_25
REMARK   10  A    between atoms: C_24  and  C_26
REMARK                            x       y       z     vdW  Elec       q    Type
REMARK                         _______ _______ _______ _____ _____    ______ ____
ROOT
ATOM      1  C   UNL     1       2.598   7.764  18.382  0.00  0.00    +0.000 A 
ATOM      2  C   UNL     1       2.327   7.366  19.690  0.00  0.00    +0.000 A 
ATOM      3  C   UNL     1       1.478   8.132  20.494  0.00  0.00    +0.000 A 
ATOM      4  C   UNL     1       0.888   9.320  20.022  0.00  0.00    +0.000 A 
ATOM      5  C   UNL     1       1.179   9.699  18.698  0.00  0.00    +0.000 A 
ATOM      6  C   UNL     1       2.016   8.927  17.883  0.00  0.00    +0.000 A 
ENDROOT
BRANCH   4   7
ATOM      7  C   UNL     1       0.001  10.134  20.887  0.00  0.00    +0.000 A 
ATOM      8  C   UNL     1      -0.178   9.826  22.247  0.00  0.00    +0.000 A 
ATOM      9  C   UNL     1      -1.023  10.583  23.066  0.00  0.00    +0.000 A 
ATOM     10  C   UNL     1      -1.700  11.685  22.545  0.00  0.00    +0.000 A 
ATOM     11 CL   UNL     1      -2.719  12.582  23.611  0.00  0.00    +0.000 Cl
ATOM     12  C   UNL     1      -1.534  12.021  21.201  0.00  0.00    +0.000 A 
ATOM     13 CL   UNL     1      -2.325  13.379  20.482  0.00  0.00    +0.000 Cl
ATOM     14  C   UNL     1      -0.699  11.246  20.383  0.00  0.00    +0.000 A 
ENDBRANCH   4   7
BRANCH   1  16
ATOM     15  C   UNL     1       4.708   6.568  17.994  0.00  0.00    +0.000 C 
ATOM     16  C   UNL     1       3.499   6.967  17.557  0.00  0.00    +0.000 C 
BRANCH  15  17
ATOM     17  C   UNL     1       5.726   5.756  17.188  0.00  0.00    +0.000 C 
ATOM     18  C   UNL     1       7.130   6.406  17.305  0.00  0.00    +0.000 C 
BRANCH  17  20
ATOM     19  C   UNL     1       5.666   4.873  14.772  0.00  0.00    +0.000 C 
ATOM     20  C   UNL     1       5.214   5.664  15.755  0.00  0.00    +0.000 C 
ENDBRANCH  17  20
BRANCH  17  21
ATOM     21  C   UNL     1       5.789   4.315  17.795  0.00  0.00    +0.000 C 
BRANCH  21  22
ATOM     22  C   UNL     1       4.807   4.070  18.952  0.00  0.00    +0.000 C 
BRANCH  22  23
ATOM     23  C   UNL     1       3.539   3.394  18.510  0.00  0.00    +0.000 C 
ATOM     24  C   UNL     1       2.412   3.259  19.236  0.00  0.00    +0.000 C 
ATOM     25  C   UNL     1       2.194   3.865  20.596  0.00  0.00    +0.000 C 
ATOM     26  C   UNL     1       1.246   2.462  18.717  0.00  0.00    +0.000 C 
ENDBRANCH  22  23
ENDBRANCH  21  22
ENDBRANCH  17  21
ENDBRANCH  15  17
ENDBRANCH   1  16
TORSDOF 7
ENDMDL
MODEL 8
REMARK VINA RESULT:      -7.7      1.426      1.902
REMARK  Name = 
REMARK  10 active torsions:
REMARK  status: ('A' for Active; 'I' for Inactive)
REMARK    1  A    between atoms: C_2  and  C_3
REMARK    2  A    between atoms: C_3  and  C_4
REMARK    3  A    between atoms: C_3  and  C_5
REMARK    4  A    between atoms: C_3  and  C_21
REMARK    5  A    between atoms: C_6  and  C_7
REMARK    6  A    between atoms: C_10  and  C_11
REMARK    7  A    between atoms: C_21  and  C_22
REMARK    8  A    between atoms: C_22  and  C_23
REMARK    9  A    between atoms: C_24  and  C_25
REMARK   10  A    between atoms: C_24  and  C_26
REMARK                            x       y       z     vdW  Elec       q    Type
REMARK                         _______ _______ _______ _____ _____    ______ ____
ROOT
ATOM      1  C   UNL     1       2.619   7.403  18.913  0.00  0.00    +0.000 A 
ATOM      2  C   UNL     1       2.172   8.194  17.856  0.00  0.00    +0.000 A 
ATOM      3  C   UNL     1       1.202   9.177  18.076  0.00  0.00    +0.000 A 
ATOM      4  C   UNL     1       0.641   9.387  19.351  0.00  0.00    +0.000 A 
ATOM      5  C   UNL     1       1.110   8.574  20.401  0.00  0.00    +0.000 A 
ATOM      6  C   UNL     1       2.094   7.600  20.188  0.00  0.00    +0.000 A 
ENDROOT
BRANCH   4   7
ATOM      7  C   UNL     1      -0.398  10.420  19.573  0.00  0.00    +0.000 A 
ATOM      8  C   UNL     1      -0.341  11.290  20.676  0.00  0.00    +0.000 A 
ATOM      9  C   UNL     1      -1.325  12.260  20.898  0.00  0.00    +0.000 A 
ATOM     10  C   UNL     1      -2.388  12.395  20.005  0.00  0.00    +0.000 A 
ATOM     11 CL   UNL     1      -3.563  13.617  20.332  0.00  0.00    +0.000 Cl
ATOM     12  C   UNL     1      -2.466  11.552  18.896  0.00  0.00    +0.000 A 
ATOM     13 CL   UNL     1      -3.742  11.665  17.736  0.00  0.00    +0.000 Cl
ATOM     14  C   UNL     1      -1.484  10.572  18.691  0.00  0.00    +0.000 A 
ENDBRANCH   4   7
BRANCH   1  16
ATOM     15  C   UNL     1       3.701   5.715  17.496  0.00  0.00    +0.000 C 
ATOM     16  C   UNL     1       3.619   6.370  18.668  0.00  0.00    +0.000 C 
BRANCH  15  17
ATOM     17  C   UNL     1       4.698   4.600  17.164  0.00  0.00    +0.000 C 
ATOM     18  C   UNL     1       5.778   4.510  18.274  0.00  0.00    +0.000 C 
BRANCH  17  20
ATOM     19  C   UNL     1       5.850   4.022  14.937  0.00  0.00    +0.000 C 
ATOM     20  C   UNL     1       5.268   4.888  15.779  0.00  0.00    +0.000 C 
ENDBRANCH  17  20
BRANCH  17  21
ATOM     21  C   UNL     1       3.914   3.247  17.116  0.00  0.00    +0.000 C 
BRANCH  21  22
ATOM     22  C   UNL     1       2.541   3.282  17.807  0.00  0.00    +0.000 C 
BRANCH  22  23
ATOM     23  C   UNL     1       2.570   2.702  19.194  0.00  0.00    +0.000 C 
ATOM     24  C   UNL     1       1.882   3.154  20.261  0.00  0.00    +0.000 C 
ATOM     25  C   UNL     1       0.872   4.269  20.218  0.00  0.00    +0.000 C 
ATOM     26  C   UNL     1       2.083   2.551  21.625  0.00  0.00    +0.000 C 
ENDBRANCH  22  23
ENDBRANCH  21  22
ENDBRANCH  17  21
ENDBRANCH  15  17
ENDBRANCH   1  16
TORSDOF 7
ENDMDL
MODEL 9
REMARK VINA RESULT:      -7.7      1.558      3.686
REMARK  Name = 
REMARK  10 active torsions:
REMARK  status: ('A' for Active; 'I' for Inactive)
REMARK    1  A    between atoms: C_2  and  C_3
REMARK    2  A    between atoms: C_3  and  C_4
REMARK    3  A    between atoms: C_3  and  C_5
REMARK    4  A    between atoms: C_3  and  C_21
REMARK    5  A    between atoms: C_6  and  C_7
REMARK    6  A    between atoms: C_10  and  C_11
REMARK    7  A    between atoms: C_21  and  C_22
REMARK    8  A    between atoms: C_22  and  C_23
REMARK    9  A    between atoms: C_24  and  C_25
REMARK   10  A    between atoms: C_24  and  C_26
REMARK                            x       y       z     vdW  Elec       q    Type
REMARK                         _______ _______ _______ _____ _____    ______ ____
ROOT
ATOM      1  C   UNL     1       2.743   7.376  18.548  0.00  0.00    +0.000 A 
ATOM      2  C   UNL     1       2.367   8.353  17.628  0.00  0.00    +0.000 A 
ATOM      3  C   UNL     1       1.464   9.354  17.998  0.00  0.00    +0.000 A 
ATOM      4  C   UNL     1       0.901   9.400  19.287  0.00  0.00    +0.000 A 
ATOM      5  C   UNL     1       1.296   8.401  20.197  0.00  0.00    +0.000 A 
ATOM      6  C   UNL     1       2.213   7.405  19.836  0.00  0.00    +0.000 A 
ENDROOT
BRANCH   4   7
ATOM      7  C   UNL     1      -0.068  10.456  19.666  0.00  0.00    +0.000 A 
ATOM      8  C   UNL     1      -0.943  11.019  18.720  0.00  0.00    +0.000 A 
ATOM      9  C   UNL     1      -1.852  12.024  19.067  0.00  0.00    +0.000 A 
ATOM     10  C   UNL     1      -1.921  12.481  20.383  0.00  0.00    +0.000 A 
ATOM     11 CL   UNL     1      -3.071  13.716  20.747  0.00  0.00    +0.000 Cl
ATOM     12  C   UNL     1      -1.072  11.934  21.346  0.00  0.00    +0.000 A 
ATOM     13 CL   UNL     1      -1.105  12.434  23.000  0.00  0.00    +0.000 Cl
ATOM     14  C   UNL     1      -0.152  10.939  20.985  0.00  0.00    +0.000 A 
ENDBRANCH   4   7
BRANCH   1  16
ATOM     15  C   UNL     1       4.706   6.562  17.318  0.00  0.00    +0.000 C 
ATOM     16  C   UNL     1       3.673   6.326  18.147  0.00  0.00    +0.000 C 
BRANCH  15  17
ATOM     17  C   UNL     1       5.711   5.517  16.822  0.00  0.00    +0.000 C 
ATOM     18  C   UNL     1       5.195   4.092  17.151  0.00  0.00    +0.000 C 
BRANCH  17  20
ATOM     19  C   UNL     1       7.398   5.758  18.750  0.00  0.00    +0.000 C 
ATOM     20  C   UNL     1       7.061   5.839  17.455  0.00  0.00    +0.000 C 
ENDBRANCH  17  20
BRANCH  17  21
ATOM     21  C   UNL     1       5.834   5.660  15.269  0.00  0.00    +0.000 C 
BRANCH  21  22
ATOM     22  C   UNL     1       6.238   4.368  14.542  0.00  0.00    +0.000 C 
BRANCH  22  23
ATOM     23  C   UNL     1       5.217   3.921  13.532  0.00  0.00    +0.000 C 
ATOM     24  C   UNL     1       5.473   3.429  12.304  0.00  0.00    +0.000 C 
ATOM     25  C   UNL     1       6.849   3.141  11.768  0.00  0.00    +0.000 C 
ATOM     26  C   UNL     1       4.355   3.122  11.345  0.00  0.00    +0.000 C 
ENDBRANCH  22  23
ENDBRANCH  21  22
ENDBRANCH  17  21
ENDBRANCH  15  17
ENDBRANCH   1  16
TORSDOF 7
ENDMDL
