MODEL 1
REMARK VINA RESULT:      -7.0      0.000      0.000
REMARK  Name = 
REMARK  8 active torsions:
REMARK  status: ('A' for Active; 'I' for Inactive)
REMARK    1  A    between atoms: C_1  and  C_2
REMARK    2  A    between atoms: C_2  and  C_4
REMARK    3  A    between atoms: C_5  and  C_6
REMARK    4  A    between atoms: C_9  and  C_10
REMARK    5  A    between atoms: C_10  and  C_11
REMARK    6  A    between atoms: C_11  and  O_13
REMARK    7  A    between atoms: O_13  and  C_14
REMARK    8  A    between atoms: C_14  and  C_15
REMARK                            x       y       z     vdW  Elec       q    Type
REMARK                         _______ _______ _______ _____ _____    ______ ____
ROOT
ATOM      1  C   UNL     1       6.922   4.860  16.028  0.00  0.00    +0.000 C 
ATOM      2  C   UNL     1       5.778   4.130  16.738  0.00  0.00    +0.000 C 
ATOM      3  C   UNL     1       4.440   4.783  16.405  0.00  0.00    +0.000 C 
ATOM      4  C   UNL     1       4.497   6.305  16.596  0.00  0.00    +0.000 C 
ATOM      5  O   UNL     1       5.611   6.824  15.856  0.00  0.00    +0.000 OA
ATOM      6  O   UNL     1       6.849   6.248  16.401  0.00  0.00    +0.000 OA
ENDROOT
BRANCH   1   8
ATOM      7  C   UNL     1       6.121   3.746  13.867  0.00  0.00    +0.000 C 
ATOM      8  C   UNL     1       6.920   4.587  14.542  0.00  0.00    +0.000 C 
BRANCH   7  10
ATOM      9  C   UNL     1       7.301   4.419  11.721  0.00  0.00    +0.000 C 
ATOM     10  C   UNL     1       6.348   3.488  12.417  0.00  0.00    +0.000 C 
ATOM     11  O   UNL     1       5.763   2.587  11.821  0.00  0.00    +0.000 OA
ENDBRANCH   7  10
ENDBRANCH   1   8
BRANCH   4  12
ATOM     12  C   UNL     1       4.522   6.768  18.053  0.00  0.00    +0.000 C 
BRANCH  12  13
ATOM     13  C   UNL     1       3.115   6.889  18.572  0.00  0.00    +0.000 C 
ATOM     14  O   UNL     1       2.192   7.386  17.938  0.00  0.00    +0.000 OA
BRANCH  13  15
ATOM     15  O   UNL     1       3.019   6.379  19.826  0.00  0.00    +0.000 OA
BRANCH  15  16
ATOM     16  C   UNL     1       1.994   5.394  20.020  0.00  0.00    +0.000 C 
BRANCH  16  17
ATOM     17  C   UNL     1       2.462   4.081  19.449  0.00  0.00    +0.000 A 
ATOM     18  C   UNL     1       3.627   3.468  19.927  0.00  0.00    +0.000 A 
ATOM     19  C   UNL     1       4.047   2.242  19.405  0.00  0.00    +0.000 A 
ATOM     20  C   UNL     1       3.311   1.625  18.394  0.00  0.00    +0.000 A 
ATOM     21  C   UNL     1       2.161   2.234  17.899  0.00  0.00    +0.000 A 
ATOM     22  C   UNL     1       1.738   3.459  18.419  0.00  0.00    +0.000 A 
ENDBRANCH  16  17
ENDBRANCH  15  16
ENDBRANCH  13  15
ENDBRANCH  12  13
ENDBRANCH   4  12
TORSDOF 7
ENDMDL
MODEL 2
REMARK VINA RESULT:      -6.9      1.276      1.574
REMARK  Name = 
REMARK  8 active torsions:
REMARK  status: ('A' for Active; 'I' for Inactive)
REMARK    1  A    between atoms: C_1  and  C_2
REMARK    2  A    between atoms: C_2  and  C_4
REMARK    3  A    between atoms: C_5  and  C_6
REMARK    4  A    between atoms: C_9  and  C_10
REMARK    5  A    between atoms: C_10  and  C_11
REMARK    6  A    between atoms: C_11  and  O_13
REMARK    7  A    between atoms: O_13  and  C_14
REMARK    8  A    between atoms: C_14  and  C_15
REMARK                            x       y       z     vdW  Elec       q    Type
REMARK                         _______ _______ _______ _____ _____    ______ ____
ROOT
ATOM      1  C   UNL     1       6.925   4.645  15.044  0.00  0.00    +0.000 C 
ATOM      2  C   UNL     1       6.673   4.125  16.462  0.00  0.00    +0.000 C 
ATOM      3  C   UNL     1       5.187   4.202  16.801  0.00  0.00    +0.000 C 
ATOM      4  C   UNL     1       4.609   5.585  16.471  0.00  0.00    +0.000 C 
ATOM      5  O   UNL     1       4.924   5.907  15.109  0.00  0.00    +0.000 OA
ATOM      6  O   UNL     1       6.385   5.976  14.966  0.00  0.00    +0.000 OA
ENDROOT
BRANCH   1   8
ATOM      7  C   UNL     1       6.332   3.881  12.673  0.00  0.00    +0.000 C 
ATOM      8  C   UNL     1       6.421   3.678  13.997  0.00  0.00    +0.000 C 
BRANCH   7  10
ATOM      9  C   UNL     1       4.270   3.182  11.365  0.00  0.00    +0.000 C 
ATOM     10  C   UNL     1       5.677   2.870  11.796  0.00  0.00    +0.000 C 
ATOM     11  O   UNL     1       6.243   1.829  11.473  0.00  0.00    +0.000 OA
ENDBRANCH   7  10
ENDBRANCH   1   8
BRANCH   4  12
ATOM     12  C   UNL     1       5.031   6.702  17.426  0.00  0.00    +0.000 C 
BRANCH  12  13
ATOM     13  C   UNL     1       3.831   7.204  18.183  0.00  0.00    +0.000 C 
ATOM     14  O   UNL     1       3.124   8.131  17.807  0.00  0.00    +0.000 OA
BRANCH  13  15
ATOM     15  O   UNL     1       3.652   6.497  19.326  0.00  0.00    +0.000 OA
BRANCH  15  16
ATOM     16  C   UNL     1       2.295   6.374  19.776  0.00  0.00    +0.000 C 
BRANCH  16  17
ATOM     17  C   UNL     1       1.870   4.933  19.664  0.00  0.00    +0.000 A 
ATOM     18  C   UNL     1       1.489   4.208  20.800  0.00  0.00    +0.000 A 
ATOM     19  C   UNL     1       1.081   2.878  20.687  0.00  0.00    +0.000 A 
ATOM     20  C   UNL     1       1.059   2.258  19.439  0.00  0.00    +0.000 A 
ATOM     21  C   UNL     1       1.452   2.962  18.304  0.00  0.00    +0.000 A 
ATOM     22  C   UNL     1       1.860   4.294  18.413  0.00  0.00    +0.000 A 
ENDBRANCH  16  17
ENDBRANCH  15  16
ENDBRANCH  13  15
ENDBRANCH  12  13
ENDBRANCH   4  12
TORSDOF 7
ENDMDL
MODEL 3
REMARK VINA RESULT:      -6.7      1.720      2.458
REMARK  Name = 
REMARK  8 active torsions:
REMARK  status: ('A' for Active; 'I' for Inactive)
REMARK    1  A    between atoms: C_1  and  C_2
REMARK    2  A    between atoms: C_2  and  C_4
REMARK    3  A    between atoms: C_5  and  C_6
REMARK    4  A    between atoms: C_9  and  C_10
REMARK    5  A    between atoms: C_10  and  C_11
REMARK    6  A    between atoms: C_11  and  O_13
REMARK    7  A    between atoms: O_13  and  C_14
REMARK    8  A    between atoms: C_14  and  C_15
REMARK                            x       y       z     vdW  Elec       q    Type
REMARK                         _______ _______ _______ _____ _____    ______ ____
ROOT
ATOM      1  C   UNL     1       6.339   5.367  14.401  0.00  0.00    +0.000 C 
ATOM      2  C   UNL     1       7.367   4.753  15.354  0.00  0.00    +0.000 C 
ATOM      3  C   UNL     1       6.667   3.989  16.474  0.00  0.00    +0.000 C 
ATOM      4  C   UNL     1       5.561   4.834  17.120  0.00  0.00    +0.000 C 
ATOM      5  O   UNL     1       4.684   5.316  16.093  0.00  0.00    +0.000 OA
ATOM      6  O   UNL     1       5.451   6.183  15.186  0.00  0.00    +0.000 OA
ENDROOT
BRANCH   1   8
ATOM      7  C   UNL     1       6.239   3.532  12.618  0.00  0.00    +0.000 C 
ATOM      8  C   UNL     1       5.669   4.314  13.548  0.00  0.00    +0.000 C 
BRANCH   7  10
ATOM      9  C   UNL     1       6.074   1.394  11.259  0.00  0.00    +0.000 C 
ATOM     10  C   UNL     1       5.404   2.641  11.765  0.00  0.00    +0.000 C 
ATOM     11  O   UNL     1       4.248   2.927  11.467  0.00  0.00    +0.000 OA
ENDBRANCH   7  10
ENDBRANCH   1   8
BRANCH   4  12
ATOM     12  C   UNL     1       6.060   5.970  18.014  0.00  0.00    +0.000 C 
BRANCH  12  13
ATOM     13  C   UNL     1       6.280   5.458  19.412  0.00  0.00    +0.000 C 
ATOM     14  O   UNL     1       7.359   5.492  19.991  0.00  0.00    +0.000 OA
BRANCH  13  15
ATOM     15  O   UNL     1       5.130   4.955  19.928  0.00  0.00    +0.000 OA
BRANCH  15  16
ATOM     16  C   UNL     1       3.928   5.645  19.556  0.00  0.00    +0.000 C 
BRANCH  16  17
ATOM     17  C   UNL     1       2.782   4.667  19.555  0.00  0.00    +0.000 A 
ATOM     18  C   UNL     1       2.160   4.293  20.753  0.00  0.00    +0.000 A 
ATOM     19  C   UNL     1       1.087   3.399  20.744  0.00  0.00    +0.000 A 
ATOM     20  C   UNL     1       0.635   2.863  19.539  0.00  0.00    +0.000 A 
ATOM     21  C   UNL     1       1.257   3.214  18.343  0.00  0.00    +0.000 A 
ATOM     22  C   UNL     1       2.329   4.110  18.349  0.00  0.00    +0.000 A 
ENDBRANCH  16  17
ENDBRANCH  15  16
ENDBRANCH  13  15
ENDBRANCH  12  13
ENDBRANCH   4  12
TORSDOF 7
ENDMDL
MODEL 4
REMARK VINA RESULT:      -6.6      1.411      2.041
REMARK  Name = 
REMARK  8 active torsions:
REMARK  status: ('A' for Active; 'I' for Inactive)
REMARK    1  A    between atoms: C_1  and  C_2
REMARK    2  A    between atoms: C_2  and  C_4
REMARK    3  A    between atoms: C_5  and  C_6
REMARK    4  A    between atoms: C_9  and  C_10
REMARK    5  A    between atoms: C_10  and  C_11
REMARK    6  A    between atoms: C_11  and  O_13
REMARK    7  A    between atoms: O_13  and  C_14
REMARK    8  A    between atoms: C_14  and  C_15
REMARK                            x       y       z     vdW  Elec       q    Type
REMARK                         _______ _______ _______ _____ _____    ______ ____
ROOT
ATOM      1  C   UNL     1       6.944   4.725  14.612  0.00  0.00    +0.000 C 
ATOM      2  C   UNL     1       7.072   4.105  16.007  0.00  0.00    +0.000 C 
ATOM      3  C   UNL     1       5.693   3.907  16.631  0.00  0.00    +0.000 C 
ATOM      4  C   UNL     1       4.845   5.181  16.528  0.00  0.00    +0.000 C 
ATOM      5  O   UNL     1       4.820   5.615  15.161  0.00  0.00    +0.000 OA
ATOM      6  O   UNL     1       6.191   5.944  14.746  0.00  0.00    +0.000 OA
ENDROOT
BRANCH   1   8
ATOM      7  C   UNL     1       5.775   4.003  12.452  0.00  0.00    +0.000 C 
ATOM      8  C   UNL     1       6.401   3.734  13.609  0.00  0.00    +0.000 C 
BRANCH   7  10
ATOM      9  C   UNL     1       3.840   3.198  11.018  0.00  0.00    +0.000 C 
ATOM     10  C   UNL     1       5.175   2.904  11.645  0.00  0.00    +0.000 C 
ATOM     11  O   UNL     1       5.725   1.812  11.526  0.00  0.00    +0.000 OA
ENDBRANCH   7  10
ENDBRANCH   1   8
BRANCH   4  12
ATOM     12  C   UNL     1       5.265   6.310  17.470  0.00  0.00    +0.000 C 
BRANCH  12  13
ATOM     13  C   UNL     1       4.754   6.030  18.858  0.00  0.00    +0.000 C 
ATOM     14  O   UNL     1       5.311   5.286  19.656  0.00  0.00    +0.000 OA
BRANCH  13  15
ATOM     15  O   UNL     1       3.601   6.707  19.092  0.00  0.00    +0.000 OA
BRANCH  15  16
ATOM     16  C   UNL     1       2.468   6.293  18.315  0.00  0.00    +0.000 C 
BRANCH  16  17
ATOM     17  C   UNL     1       1.936   5.000  18.876  0.00  0.00    +0.000 A 
ATOM     18  C   UNL     1       1.694   4.861  20.248  0.00  0.00    +0.000 A 
ATOM     19  C   UNL     1       1.185   3.665  20.759  0.00  0.00    +0.000 A 
ATOM     20  C   UNL     1       0.922   2.596  19.904  0.00  0.00    +0.000 A 
ATOM     21  C   UNL     1       1.175   2.717  18.540  0.00  0.00    +0.000 A 
ATOM     22  C   UNL     1       1.683   3.912  18.025  0.00  0.00    +0.000 A 
ENDBRANCH  16  17
ENDBRANCH  15  16
ENDBRANCH  13  15
ENDBRANCH  12  13
ENDBRANCH   4  12
TORSDOF 7
ENDMDL
MODEL 5
REMARK VINA RESULT:      -6.6      0.947      1.424
REMARK  Name = 
REMARK  8 active torsions:
REMARK  status: ('A' for Active; 'I' for Inactive)
REMARK    1  A    between atoms: C_1  and  C_2
REMARK    2  A    between atoms: C_2  and  C_4
REMARK    3  A    between atoms: C_5  and  C_6
REMARK    4  A    between atoms: C_9  and  C_10
REMARK    5  A    between atoms: C_10  and  C_11
REMARK    6  A    between atoms: C_11  and  O_13
REMARK    7  A    between atoms: O_13  and  C_14
REMARK    8  A    between atoms: C_14  and  C_15
REMARK                            x       y       z     vdW  Elec       q    Type
REMARK                         _______ _______ _______ _____ _____    ______ ____
ROOT
ATOM      1  C   UNL     1       7.053   4.889  15.838  0.00  0.00    +0.000 C 
ATOM      2  C   UNL     1       5.927   4.173  16.588  0.00  0.00    +0.000 C 
ATOM      3  C   UNL     1       4.580   4.812  16.265  0.00  0.00    +0.000 C 
ATOM      4  C   UNL     1       4.635   6.338  16.416  0.00  0.00    +0.000 C 
ATOM      5  O   UNL     1       5.732   6.843  15.642  0.00  0.00    +0.000 OA
ATOM      6  O   UNL     1       6.982   6.285  16.177  0.00  0.00    +0.000 OA
ENDROOT
BRANCH   1   8
ATOM      7  C   UNL     1       6.181   3.756  13.714  0.00  0.00    +0.000 C 
ATOM      8  C   UNL     1       7.024   4.578  14.359  0.00  0.00    +0.000 C 
BRANCH   7  10
ATOM      9  C   UNL     1       5.448   2.432  11.674  0.00  0.00    +0.000 C 
ATOM     10  C   UNL     1       6.380   3.452  12.269  0.00  0.00    +0.000 C 
ATOM     11  O   UNL     1       7.275   3.979  11.613  0.00  0.00    +0.000 OA
ENDBRANCH   7  10
ENDBRANCH   1   8
BRANCH   4  12
ATOM     12  C   UNL     1       4.687   6.839  17.861  0.00  0.00    +0.000 C 
BRANCH  12  13
ATOM     13  C   UNL     1       3.386   6.531  18.552  0.00  0.00    +0.000 C 
ATOM     14  O   UNL     1       2.285   6.677  18.035  0.00  0.00    +0.000 OA
BRANCH  13  15
ATOM     15  O   UNL     1       3.605   6.081  19.813  0.00  0.00    +0.000 OA
BRANCH  15  16
ATOM     16  C   UNL     1       4.017   4.711  19.922  0.00  0.00    +0.000 C 
BRANCH  16  17
ATOM     17  C   UNL     1       2.864   3.821  19.537  0.00  0.00    +0.000 A 
ATOM     18  C   UNL     1       3.001   2.874  18.514  0.00  0.00    +0.000 A 
ATOM     19  C   UNL     1       1.934   2.041  18.173  0.00  0.00    +0.000 A 
ATOM     20  C   UNL     1       0.717   2.154  18.845  0.00  0.00    +0.000 A 
ATOM     21  C   UNL     1       0.563   3.103  19.852  0.00  0.00    +0.000 A 
ATOM     22  C   UNL     1       1.629   3.938  20.196  0.00  0.00    +0.000 A 
ENDBRANCH  16  17
ENDBRANCH  15  16
ENDBRANCH  13  15
ENDBRANCH  12  13
ENDBRANCH   4  12
TORSDOF 7
ENDMDL
MODEL 6
REMARK VINA RESULT:      -6.5      1.399      2.080
REMARK  Name = 
REMARK  8 active torsions:
REMARK  status: ('A' for Active; 'I' for Inactive)
REMARK    1  A    between atoms: C_1  and  C_2
REMARK    2  A    between atoms: C_2  and  C_4
REMARK    3  A    between atoms: C_5  and  C_6
REMARK    4  A    between atoms: C_9  and  C_10
REMARK    5  A    between atoms: C_10  and  C_11
REMARK    6  A    between atoms: C_11  and  O_13
REMARK    7  A    between atoms: O_13  and  C_14
REMARK    8  A    between atoms: C_14  and  C_15
REMARK                            x       y       z     vdW  Elec       q    Type
REMARK                         _______ _______ _______ _____ _____    ______ ____
ROOT
ATOM      1  C   UNL     1       6.843   4.466  14.959  0.00  0.00    +0.000 C 
ATOM      2  C   UNL     1       6.619   3.915  16.370  0.00  0.00    +0.000 C 
ATOM      3  C   UNL     1       5.152   4.053  16.770  0.00  0.00    +0.000 C 
ATOM      4  C   UNL     1       4.631   5.471  16.502  0.00  0.00    +0.000 C 
ATOM      5  O   UNL     1       4.910   5.820  15.139  0.00  0.00    +0.000 OA
ATOM      6  O   UNL     1       6.366   5.823  14.942  0.00  0.00    +0.000 OA
ENDROOT
BRANCH   1   8
ATOM      7  C   UNL     1       6.430   3.626  12.577  0.00  0.00    +0.000 C 
ATOM      8  C   UNL     1       6.254   3.557  13.905  0.00  0.00    +0.000 C 
BRANCH   7  10
ATOM      9  C   UNL     1       6.412   1.566  11.091  0.00  0.00    +0.000 C 
ATOM     10  C   UNL     1       5.659   2.735  11.665  0.00  0.00    +0.000 C 
ATOM     11  O   UNL     1       4.487   2.962  11.375  0.00  0.00    +0.000 OA
ENDBRANCH   7  10
ENDBRANCH   1   8
BRANCH   4  12
ATOM     12  C   UNL     1       5.143   6.537  17.473  0.00  0.00    +0.000 C 
BRANCH  12  13
ATOM     13  C   UNL     1       4.810   6.139  18.886  0.00  0.00    +0.000 C 
ATOM     14  O   UNL     1       5.515   5.414  19.576  0.00  0.00    +0.000 OA
BRANCH  13  15
ATOM     15  O   UNL     1       3.632   6.688  19.276  0.00  0.00    +0.000 OA
BRANCH  15  16
ATOM     16  C   UNL     1       2.486   6.325  18.492  0.00  0.00    +0.000 C 
BRANCH  16  17
ATOM     17  C   UNL     1       1.947   5.011  18.994  0.00  0.00    +0.000 A 
ATOM     18  C   UNL     1       1.646   3.973  18.102  0.00  0.00    +0.000 A 
ATOM     19  C   UNL     1       1.162   2.752  18.574  0.00  0.00    +0.000 A 
ATOM     20  C   UNL     1       0.965   2.560  19.941  0.00  0.00    +0.000 A 
ATOM     21  C   UNL     1       1.243   3.591  20.836  0.00  0.00    +0.000 A 
ATOM     22  C   UNL     1       1.729   4.813  20.367  0.00  0.00    +0.000 A 
ENDBRANCH  16  17
ENDBRANCH  15  16
ENDBRANCH  13  15
ENDBRANCH  12  13
ENDBRANCH   4  12
TORSDOF 7
ENDMDL
MODEL 7
REMARK VINA RESULT:      -6.4      3.029      4.980
REMARK  Name = 
REMARK  8 active torsions:
REMARK  status: ('A' for Active; 'I' for Inactive)
REMARK    1  A    between atoms: C_1  and  C_2
REMARK    2  A    between atoms: C_2  and  C_4
REMARK    3  A    between atoms: C_5  and  C_6
REMARK    4  A    between atoms: C_9  and  C_10
REMARK    5  A    between atoms: C_10  and  C_11
REMARK    6  A    between atoms: C_11  and  O_13
REMARK    7  A    between atoms: O_13  and  C_14
REMARK    8  A    between atoms: C_14  and  C_15
REMARK                            x       y       z     vdW  Elec       q    Type
REMARK                         _______ _______ _______ _____ _____    ______ ____
ROOT
ATOM      1  C   UNL     1       7.761   5.418  18.670  0.00  0.00    +0.000 C 
ATOM      2  C   UNL     1       7.281   4.480  17.560  0.00  0.00    +0.000 C 
ATOM      3  C   UNL     1       5.773   4.616  17.361  0.00  0.00    +0.000 C 
ATOM      4  C   UNL     1       5.023   4.529  18.697  0.00  0.00    +0.000 C 
ATOM      5  O   UNL     1       5.589   5.479  19.610  0.00  0.00    +0.000 OA
ATOM      6  O   UNL     1       6.995   5.122  19.851  0.00  0.00    +0.000 OA
ENDROOT
BRANCH   1   8
ATOM      7  C   UNL     1       8.551   7.853  18.631  0.00  0.00    +0.000 C 
ATOM      8  C   UNL     1       7.739   6.863  18.228  0.00  0.00    +0.000 C 
BRANCH   7  10
ATOM      9  C   UNL     1       9.150  10.310  18.859  0.00  0.00    +0.000 C 
ATOM     10  C   UNL     1       8.302   9.257  18.201  0.00  0.00    +0.000 C 
ATOM     11  O   UNL     1       7.431   9.539  17.381  0.00  0.00    +0.000 OA
ENDBRANCH   7  10
ENDBRANCH   1   8
BRANCH   4  12
ATOM     12  C   UNL     1       4.959   3.129  19.307  0.00  0.00    +0.000 C 
BRANCH  12  13
ATOM     13  C   UNL     1       3.677   2.455  18.900  0.00  0.00    +0.000 C 
ATOM     14  O   UNL     1       3.552   1.777  17.887  0.00  0.00    +0.000 OA
BRANCH  13  15
ATOM     15  O   UNL     1       2.693   2.707  19.799  0.00  0.00    +0.000 OA
BRANCH  15  16
ATOM     16  C   UNL     1       1.528   3.364  19.280  0.00  0.00    +0.000 C 
BRANCH  16  17
ATOM     17  C   UNL     1       1.763   4.852  19.281  0.00  0.00    +0.000 A 
ATOM     18  C   UNL     1       1.730   5.581  20.476  0.00  0.00    +0.000 A 
ATOM     19  C   UNL     1       1.965   6.957  20.473  0.00  0.00    +0.000 A 
ATOM     20  C   UNL     1       2.225   7.618  19.273  0.00  0.00    +0.000 A 
ATOM     21  C   UNL     1       2.243   6.907  18.076  0.00  0.00    +0.000 A 
ATOM     22  C   UNL     1       2.009   5.530  18.076  0.00  0.00    +0.000 A 
ENDBRANCH  16  17
ENDBRANCH  15  16
ENDBRANCH  13  15
ENDBRANCH  12  13
ENDBRANCH   4  12
TORSDOF 7
ENDMDL
MODEL 8
REMARK VINA RESULT:      -6.2      1.953      2.789
REMARK  Name = 
REMARK  8 active torsions:
REMARK  status: ('A' for Active; 'I' for Inactive)
REMARK    1  A    between atoms: C_1  and  C_2
REMARK    2  A    between atoms: C_2  and  C_4
REMARK    3  A    between atoms: C_5  and  C_6
REMARK    4  A    between atoms: C_9  and  C_10
REMARK    5  A    between atoms: C_10  and  C_11
REMARK    6  A    between atoms: C_11  and  O_13
REMARK    7  A    between atoms: O_13  and  C_14
REMARK    8  A    between atoms: C_14  and  C_15
REMARK                            x       y       z     vdW  Elec       q    Type
REMARK                         _______ _______ _______ _____ _____    ______ ____
ROOT
ATOM      1  C   UNL     1       5.380   4.720  15.604  0.00  0.00    +0.000 C 
ATOM      2  C   UNL     1       5.104   6.215  15.789  0.00  0.00    +0.000 C 
ATOM      3  C   UNL     1       6.410   6.973  16.014  0.00  0.00    +0.000 C 
ATOM      4  C   UNL     1       7.268   6.301  17.093  0.00  0.00    +0.000 C 
ATOM      5  O   UNL     1       7.437   4.917  16.758  0.00  0.00    +0.000 OA
ATOM      6  O   UNL     1       6.118   4.268  16.753  0.00  0.00    +0.000 OA
ENDROOT
BRANCH   1   8
ATOM      7  C   UNL     1       5.590   3.585  13.319  0.00  0.00    +0.000 C 
ATOM      8  C   UNL     1       6.022   4.432  14.266  0.00  0.00    +0.000 C 
BRANCH   7  10
ATOM      9  C   UNL     1       6.149   2.016  11.401  0.00  0.00    +0.000 C 
ATOM     10  C   UNL     1       6.421   3.313  12.113  0.00  0.00    +0.000 C 
ATOM     11  O   UNL     1       7.299   4.088  11.743  0.00  0.00    +0.000 OA
ENDBRANCH   7  10
ENDBRANCH   1   8
BRANCH   4  12
ATOM     12  C   UNL     1       6.755   6.476  18.523  0.00  0.00    +0.000 C 
BRANCH  12  13
ATOM     13  C   UNL     1       7.219   5.325  19.374  0.00  0.00    +0.000 C 
ATOM     14  O   UNL     1       8.392   5.107  19.649  0.00  0.00    +0.000 OA
BRANCH  13  15
ATOM     15  O   UNL     1       6.166   4.573  19.782  0.00  0.00    +0.000 OA
BRANCH  15  16
ATOM     16  C   UNL     1       4.875   5.182  19.646  0.00  0.00    +0.000 C 
BRANCH  16  17
ATOM     17  C   UNL     1       3.916   4.175  19.065  0.00  0.00    +0.000 A 
ATOM     18  C   UNL     1       2.839   4.588  18.271  0.00  0.00    +0.000 A 
ATOM     19  C   UNL     1       1.964   3.649  17.722  0.00  0.00    +0.000 A 
ATOM     20  C   UNL     1       2.152   2.290  17.970  0.00  0.00    +0.000 A 
ATOM     21  C   UNL     1       3.210   1.869  18.772  0.00  0.00    +0.000 A 
ATOM     22  C   UNL     1       4.088   2.806  19.322  0.00  0.00    +0.000 A 
ENDBRANCH  16  17
ENDBRANCH  15  16
ENDBRANCH  13  15
ENDBRANCH  12  13
ENDBRANCH   4  12
TORSDOF 7
ENDMDL
MODEL 9
REMARK VINA RESULT:      -6.2      1.681      2.623
REMARK  Name = 
REMARK  8 active torsions:
REMARK  status: ('A' for Active; 'I' for Inactive)
REMARK    1  A    between atoms: C_1  and  C_2
REMARK    2  A    between atoms: C_2  and  C_4
REMARK    3  A    between atoms: C_5  and  C_6
REMARK    4  A    between atoms: C_9  and  C_10
REMARK    5  A    between atoms: C_10  and  C_11
REMARK    6  A    between atoms: C_11  and  O_13
REMARK    7  A    between atoms: O_13  and  C_14
REMARK    8  A    between atoms: C_14  and  C_15
REMARK                            x       y       z     vdW  Elec       q    Type
REMARK                         _______ _______ _______ _____ _____    ______ ____
ROOT
ATOM      1  C   UNL     1       6.342   5.166  14.224  0.00  0.00    +0.000 C 
ATOM      2  C   UNL     1       7.450   4.736  15.188  0.00  0.00    +0.000 C 
ATOM      3  C   UNL     1       6.865   3.945  16.355  0.00  0.00    +0.000 C 
ATOM      4  C   UNL     1       5.666   4.673  16.977  0.00  0.00    +0.000 C 
ATOM      5  O   UNL     1       4.725   4.988  15.943  0.00  0.00    +0.000 OA
ATOM      6  O   UNL     1       5.365   5.900  14.983  0.00  0.00    +0.000 OA
ENDROOT
BRANCH   1   8
ATOM      7  C   UNL     1       5.781   3.853  12.099  0.00  0.00    +0.000 C 
ATOM      8  C   UNL     1       5.804   3.996  13.433  0.00  0.00    +0.000 C 
BRANCH   7  10
ATOM      9  C   UNL     1       3.725   2.975  10.893  0.00  0.00    +0.000 C 
ATOM     10  C   UNL     1       5.083   2.694  11.475  0.00  0.00    +0.000 C 
ATOM     11  O   UNL     1       5.575   1.569  11.467  0.00  0.00    +0.000 OA
ENDBRANCH   7  10
ENDBRANCH   1   8
BRANCH   4  12
ATOM     12  C   UNL     1       6.025   5.906  17.808  0.00  0.00    +0.000 C 
BRANCH  12  13
ATOM     13  C   UNL     1       6.094   5.535  19.265  0.00  0.00    +0.000 C 
ATOM     14  O   UNL     1       7.127   5.540  19.923  0.00  0.00    +0.000 OA
BRANCH  13  15
ATOM     15  O   UNL     1       4.868   5.195  19.734  0.00  0.00    +0.000 OA
BRANCH  15  16
ATOM     16  C   UNL     1       4.684   3.807  20.047  0.00  0.00    +0.000 C 
BRANCH  16  17
ATOM     17  C   UNL     1       3.247   3.433  19.791  0.00  0.00    +0.000 A 
ATOM     18  C   UNL     1       2.872   2.817  18.590  0.00  0.00    +0.000 A 
ATOM     19  C   UNL     1       1.541   2.458  18.366  0.00  0.00    +0.000 A 
ATOM     20  C   UNL     1       0.573   2.720  19.335  0.00  0.00    +0.000 A 
ATOM     21  C   UNL     1       0.932   3.348  20.525  0.00  0.00    +0.000 A 
ATOM     22  C   UNL     1       2.263   3.708  20.754  0.00  0.00    +0.000 A 
ENDBRANCH  16  17
ENDBRANCH  15  16
ENDBRANCH  13  15
ENDBRANCH  12  13
ENDBRANCH   4  12
TORSDOF 7
ENDMDL
