MODEL 1
REMARK VINA RESULT:      -8.8      0.000      0.000
REMARK  Name = 
REMARK  5 active torsions:
REMARK  status: ('A' for Active; 'I' for Inactive)
REMARK    1  A    between atoms: C_2  and  C_3
REMARK    2  A    between atoms: C_2  and  C_15
REMARK    3  A    between atoms: C_4  and  C_5
REMARK    4  A    between atoms: C_15  and  C_16
REMARK    5  A    between atoms: C_16  and  C_17
REMARK                            x       y       z     vdW  Elec       q    Type
REMARK                         _______ _______ _______ _____ _____    ______ ____
ROOT
ATOM      1  O   UNL     1       7.525   6.430  16.323  0.00  0.00    +0.000 OA
ATOM      2  C   UNL     1       7.362   6.613  17.531  0.00  0.00    +0.000 C 
ENDROOT
BRANCH   2   3
ATOM      3  C   UNL     1       8.065   7.711  18.256  0.00  0.00    +0.000 C 
ATOM      4  C   UNL     1       8.113   8.962  17.770  0.00  0.00    +0.000 C 
BRANCH   4   5
ATOM      5  C   UNL     1       8.841  10.057  18.430  0.00  0.00    +0.000 A 
ATOM      6  C   UNL     1       9.162  10.027  19.792  0.00  0.00    +0.000 A 
ATOM      7  C   UNL     1       9.899  11.058  20.382  0.00  0.00    +0.000 A 
ATOM      8  C   UNL     1      10.357  12.136  19.615  0.00  0.00    +0.000 A 
ATOM      9  C   UNL     1      11.132  13.158  20.186  0.00  0.00    +0.000 A 
ATOM     10  C   UNL     1      11.600  14.216  19.405  0.00  0.00    +0.000 A 
ATOM     11  C   UNL     1      11.284  14.273  18.050  0.00  0.00    +0.000 A 
ATOM     12  C   UNL     1      10.510  13.266  17.471  0.00  0.00    +0.000 A 
ATOM     13  C   UNL     1      10.047  12.184  18.237  0.00  0.00    +0.000 A 
ATOM     14  C   UNL     1       9.294  11.144  17.662  0.00  0.00    +0.000 A 
ENDBRANCH   4   5
ENDBRANCH   2   3
BRANCH   2  15
ATOM     15  C   UNL     1       6.402   5.757  18.338  0.00  0.00    +0.000 C 
BRANCH  15  16
ATOM     16  C   UNL     1       4.936   6.015  18.004  0.00  0.00    +0.000 C 
BRANCH  16  17
ATOM     17  C   UNL     1       4.153   4.750  17.708  0.00  0.00    +0.000 C 
ATOM     18  O   UNL     1       4.180   4.234  16.587  0.00  0.00    +0.000 OA
ATOM     19  N   UNL     1       3.477   4.177  18.777  0.00  0.00    +0.000 N 
ATOM     20  C   UNL     1       2.853   2.866  18.613  0.00  0.00    +0.000 C 
ATOM     21  C   UNL     1       1.340   2.963  18.775  0.00  0.00    +0.000 C 
ATOM     22  C   UNL     1       0.970   3.646  20.092  0.00  0.00    +0.000 C 
ATOM     23  C   UNL     1       1.681   4.992  20.234  0.00  0.00    +0.000 C 
ATOM     24  C   UNL     1       3.190   4.846  20.047  0.00  0.00    +0.000 C 
ENDBRANCH  16  17
ENDBRANCH  15  16
ENDBRANCH   2  15
TORSDOF 5
ENDMDL
MODEL 2
REMARK VINA RESULT:      -8.7      5.883      6.803
REMARK  Name = 
REMARK  5 active torsions:
REMARK  status: ('A' for Active; 'I' for Inactive)
REMARK    1  A    between atoms: C_2  and  C_3
REMARK    2  A    between atoms: C_2  and  C_15
REMARK    3  A    between atoms: C_4  and  C_5
REMARK    4  A    between atoms: C_15  and  C_16
REMARK    5  A    between atoms: C_16  and  C_17
REMARK                            x       y       z     vdW  Elec       q    Type
REMARK                         _______ _______ _______ _____ _____    ______ ____
ROOT
ATOM      1  O   UNL     1       5.412   6.818  15.723  0.00  0.00    +0.000 OA
ATOM      2  C   UNL     1       4.861   5.999  16.462  0.00  0.00    +0.000 C 
ENDROOT
BRANCH   2   3
ATOM      3  C   UNL     1       4.034   6.430  17.626  0.00  0.00    +0.000 C 
ATOM      4  C   UNL     1       3.084   7.373  17.509  0.00  0.00    +0.000 C 
BRANCH   4   5
ATOM      5  C   UNL     1       2.287   7.861  18.645  0.00  0.00    +0.000 A 
ATOM      6  C   UNL     1       2.219   7.172  19.862  0.00  0.00    +0.000 A 
ATOM      7  C   UNL     1       1.494   7.684  20.941  0.00  0.00    +0.000 A 
ATOM      8  C   UNL     1       0.838   8.917  20.838  0.00  0.00    +0.000 A 
ATOM      9  C   UNL     1       0.139   9.463  21.926  0.00  0.00    +0.000 A 
ATOM     10  C   UNL     1      -0.494  10.702  21.816  0.00  0.00    +0.000 A 
ATOM     11  C   UNL     1      -0.449  11.400  20.612  0.00  0.00    +0.000 A 
ATOM     12  C   UNL     1       0.238  10.867  19.521  0.00  0.00    +0.000 A 
ATOM     13  C   UNL     1       0.897   9.630  19.619  0.00  0.00    +0.000 A 
ATOM     14  C   UNL     1       1.621   9.094  18.539  0.00  0.00    +0.000 A 
ENDBRANCH   4   5
ENDBRANCH   2   3
BRANCH   2  15
ATOM     15  C   UNL     1       4.959   4.506  16.200  0.00  0.00    +0.000 C 
BRANCH  15  16
ATOM     16  C   UNL     1       4.647   3.656  17.427  0.00  0.00    +0.000 C 
BRANCH  16  17
ATOM     17  C   UNL     1       3.181   3.286  17.549  0.00  0.00    +0.000 C 
ATOM     18  O   UNL     1       2.421   3.375  16.580  0.00  0.00    +0.000 OA
ATOM     19  N   UNL     1       2.772   2.779  18.775  0.00  0.00    +0.000 N 
ATOM     20  C   UNL     1       1.423   2.235  18.912  0.00  0.00    +0.000 C 
ATOM     21  C   UNL     1       0.608   3.052  19.908  0.00  0.00    +0.000 C 
ATOM     22  C   UNL     1       1.343   3.185  21.242  0.00  0.00    +0.000 C 
ATOM     23  C   UNL     1       2.762   3.718  21.040  0.00  0.00    +0.000 C 
ATOM     24  C   UNL     1       3.531   2.878  20.023  0.00  0.00    +0.000 C 
ENDBRANCH  16  17
ENDBRANCH  15  16
ENDBRANCH   2  15
TORSDOF 5
ENDMDL
MODEL 3
REMARK VINA RESULT:      -8.7      5.342      6.928
REMARK  Name = 
REMARK  5 active torsions:
REMARK  status: ('A' for Active; 'I' for Inactive)
REMARK    1  A    between atoms: C_2  and  C_3
REMARK    2  A    between atoms: C_2  and  C_15
REMARK    3  A    between atoms: C_4  and  C_5
REMARK    4  A    between atoms: C_15  and  C_16
REMARK    5  A    between atoms: C_16  and  C_17
REMARK                            x       y       z     vdW  Elec       q    Type
REMARK                         _______ _______ _______ _____ _____    ______ ____
ROOT
ATOM      1  O   UNL     1       5.155   6.729  15.559  0.00  0.00    +0.000 OA
ATOM      2  C   UNL     1       5.122   6.525  16.774  0.00  0.00    +0.000 C 
ENDROOT
BRANCH   2   3
ATOM      3  C   UNL     1       4.274   7.351  17.682  0.00  0.00    +0.000 C 
ATOM      4  C   UNL     1       2.953   7.489  17.483  0.00  0.00    +0.000 C 
BRANCH   4   5
ATOM      5  C   UNL     1       2.095   8.338  18.324  0.00  0.00    +0.000 A 
ATOM      6  C   UNL     1       1.276   9.339  17.788  0.00  0.00    +0.000 A 
ATOM      7  C   UNL     1       0.433  10.097  18.606  0.00  0.00    +0.000 A 
ATOM      8  C   UNL     1       0.369   9.854  19.982  0.00  0.00    +0.000 A 
ATOM      9  C   UNL     1      -0.502  10.580  20.810  0.00  0.00    +0.000 A 
ATOM     10  C   UNL     1      -0.571  10.313  22.178  0.00  0.00    +0.000 A 
ATOM     11  C   UNL     1       0.241   9.330  22.736  0.00  0.00    +0.000 A 
ATOM     12  C   UNL     1       1.115   8.604  21.926  0.00  0.00    +0.000 A 
ATOM     13  C   UNL     1       1.185   8.845  20.544  0.00  0.00    +0.000 A 
ATOM     14  C   UNL     1       2.037   8.100  19.709  0.00  0.00    +0.000 A 
ENDBRANCH   4   5
ENDBRANCH   2   3
BRANCH   2  15
ATOM     15  C   UNL     1       5.910   5.391  17.408  0.00  0.00    +0.000 C 
BRANCH  15  16
ATOM     16  C   UNL     1       5.210   4.769  18.611  0.00  0.00    +0.000 C 
BRANCH  16  17
ATOM     17  C   UNL     1       4.237   3.666  18.240  0.00  0.00    +0.000 C 
ATOM     18  O   UNL     1       4.317   3.087  17.153  0.00  0.00    +0.000 OA
ATOM     19  N   UNL     1       3.315   3.303  19.213  0.00  0.00    +0.000 N 
ATOM     20  C   UNL     1       2.468   2.132  18.997  0.00  0.00    +0.000 C 
ATOM     21  C   UNL     1       0.998   2.533  18.926  0.00  0.00    +0.000 C 
ATOM     22  C   UNL     1       0.592   3.353  20.151  0.00  0.00    +0.000 C 
ATOM     23  C   UNL     1       1.534   4.540  20.357  0.00  0.00    +0.000 C 
ATOM     24  C   UNL     1       2.993   4.091  20.404  0.00  0.00    +0.000 C 
ENDBRANCH  16  17
ENDBRANCH  15  16
ENDBRANCH   2  15
TORSDOF 5
ENDMDL
MODEL 4
REMARK VINA RESULT:      -8.7      1.146      1.240
REMARK  Name = 
REMARK  5 active torsions:
REMARK  status: ('A' for Active; 'I' for Inactive)
REMARK    1  A    between atoms: C_2  and  C_3
REMARK    2  A    between atoms: C_2  and  C_15
REMARK    3  A    between atoms: C_4  and  C_5
REMARK    4  A    between atoms: C_15  and  C_16
REMARK    5  A    between atoms: C_16  and  C_17
REMARK                            x       y       z     vdW  Elec       q    Type
REMARK                         _______ _______ _______ _____ _____    ______ ____
ROOT
ATOM      1  O   UNL     1       7.152   7.487  16.697  0.00  0.00    +0.000 OA
ATOM      2  C   UNL     1       7.709   7.327  17.785  0.00  0.00    +0.000 C 
ENDROOT
BRANCH   2   3
ATOM      3  C   UNL     1       8.357   8.462  18.505  0.00  0.00    +0.000 C 
ATOM      4  C   UNL     1       8.497   9.672  17.938  0.00  0.00    +0.000 C 
BRANCH   4   5
ATOM      5  C   UNL     1       9.177  10.797  18.596  0.00  0.00    +0.000 A 
ATOM      6  C   UNL     1       9.668  10.713  19.905  0.00  0.00    +0.000 A 
ATOM      7  C   UNL     1      10.355  11.782  20.487  0.00  0.00    +0.000 A 
ATOM      8  C   UNL     1      10.592  12.956  19.764  0.00  0.00    +0.000 A 
ATOM      9  C   UNL     1      11.314  14.023  20.323  0.00  0.00    +0.000 A 
ATOM     10  C   UNL     1      11.560  15.180  19.583  0.00  0.00    +0.000 A 
ATOM     11  C   UNL     1      11.072  15.291  18.284  0.00  0.00    +0.000 A 
ATOM     12  C   UNL     1      10.348  14.241  17.718  0.00  0.00    +0.000 A 
ATOM     13  C   UNL     1      10.107  13.061  18.440  0.00  0.00    +0.000 A 
ATOM     14  C   UNL     1       9.407  11.981  17.873  0.00  0.00    +0.000 A 
ENDBRANCH   4   5
ENDBRANCH   2   3
BRANCH   2  15
ATOM     15  C   UNL     1       7.729   5.973  18.472  0.00  0.00    +0.000 C 
BRANCH  15  16
ATOM     16  C   UNL     1       6.367   5.550  19.011  0.00  0.00    +0.000 C 
BRANCH  16  17
ATOM     17  C   UNL     1       5.684   4.494  18.163  0.00  0.00    +0.000 C 
ATOM     18  O   UNL     1       6.247   4.007  17.179  0.00  0.00    +0.000 OA
ATOM     19  N   UNL     1       4.437   4.063  18.599  0.00  0.00    +0.000 N 
ATOM     20  C   UNL     1       3.800   2.925  17.940  0.00  0.00    +0.000 C 
ATOM     21  C   UNL     1       2.501   3.350  17.263  0.00  0.00    +0.000 C 
ATOM     22  C   UNL     1       1.579   4.071  18.246  0.00  0.00    +0.000 C 
ATOM     23  C   UNL     1       2.304   5.224  18.939  0.00  0.00    +0.000 C 
ATOM     24  C   UNL     1       3.605   4.753  19.586  0.00  0.00    +0.000 C 
ENDBRANCH  16  17
ENDBRANCH  15  16
ENDBRANCH   2  15
TORSDOF 5
ENDMDL
MODEL 5
REMARK VINA RESULT:      -8.6      5.771      7.072
REMARK  Name = 
REMARK  5 active torsions:
REMARK  status: ('A' for Active; 'I' for Inactive)
REMARK    1  A    between atoms: C_2  and  C_3
REMARK    2  A    between atoms: C_2  and  C_15
REMARK    3  A    between atoms: C_4  and  C_5
REMARK    4  A    between atoms: C_15  and  C_16
REMARK    5  A    between atoms: C_16  and  C_17
REMARK                            x       y       z     vdW  Elec       q    Type
REMARK                         _______ _______ _______ _____ _____    ______ ____
ROOT
ATOM      1  O   UNL     1       5.921   4.765  19.016  0.00  0.00    +0.000 OA
ATOM      2  C   UNL     1       5.074   5.183  18.226  0.00  0.00    +0.000 C 
ENDROOT
BRANCH   2   3
ATOM      3  C   UNL     1       4.308   6.435  18.491  0.00  0.00    +0.000 C 
ATOM      4  C   UNL     1       3.031   6.408  18.910  0.00  0.00    +0.000 C 
BRANCH   4   5
ATOM      5  C   UNL     1       2.228   7.621  19.130  0.00  0.00    +0.000 A 
ATOM      6  C   UNL     1       1.880   8.486  18.086  0.00  0.00    +0.000 A 
ATOM      7  C   UNL     1       1.073   9.605  18.315  0.00  0.00    +0.000 A 
ATOM      8  C   UNL     1       0.572   9.872  19.594  0.00  0.00    +0.000 A 
ATOM      9  C   UNL     1      -0.271  10.969  19.832  0.00  0.00    +0.000 A 
ATOM     10  C   UNL     1      -0.781  11.212  21.108  0.00  0.00    +0.000 A 
ATOM     11  C   UNL     1      -0.439  10.371  22.164  0.00  0.00    +0.000 A 
ATOM     12  C   UNL     1       0.402   9.279  21.943  0.00  0.00    +0.000 A 
ATOM     13  C   UNL     1       0.909   9.009  20.662  0.00  0.00    +0.000 A 
ATOM     14  C   UNL     1       1.732   7.894  20.416  0.00  0.00    +0.000 A 
ENDBRANCH   4   5
ENDBRANCH   2   3
BRANCH   2  15
ATOM     15  C   UNL     1       4.794   4.469  16.914  0.00  0.00    +0.000 C 
BRANCH  15  16
ATOM     16  C   UNL     1       4.197   3.078  17.099  0.00  0.00    +0.000 C 
BRANCH  16  17
ATOM     17  C   UNL     1       2.730   3.097  17.483  0.00  0.00    +0.000 C 
ATOM     18  O   UNL     1       1.879   3.561  16.718  0.00  0.00    +0.000 OA
ATOM     19  N   UNL     1       2.400   2.503  18.694  0.00  0.00    +0.000 N 
ATOM     20  C   UNL     1       0.993   2.323  19.046  0.00  0.00    +0.000 C 
ATOM     21  C   UNL     1       0.638   3.132  20.288  0.00  0.00    +0.000 C 
ATOM     22  C   UNL     1       1.592   2.819  21.440  0.00  0.00    +0.000 C 
ATOM     23  C   UNL     1       3.050   2.982  21.009  0.00  0.00    +0.000 C 
ATOM     24  C   UNL     1       3.352   2.167  19.754  0.00  0.00    +0.000 C 
ENDBRANCH  16  17
ENDBRANCH  15  16
ENDBRANCH   2  15
TORSDOF 5
ENDMDL
MODEL 6
REMARK VINA RESULT:      -8.6      1.177      1.259
REMARK  Name = 
REMARK  5 active torsions:
REMARK  status: ('A' for Active; 'I' for Inactive)
REMARK    1  A    between atoms: C_2  and  C_3
REMARK    2  A    between atoms: C_2  and  C_15
REMARK    3  A    between atoms: C_4  and  C_5
REMARK    4  A    between atoms: C_15  and  C_16
REMARK    5  A    between atoms: C_16  and  C_17
REMARK                            x       y       z     vdW  Elec       q    Type
REMARK                         _______ _______ _______ _____ _____    ______ ____
ROOT
ATOM      1  O   UNL     1       7.711   5.656  18.795  0.00  0.00    +0.000 OA
ATOM      2  C   UNL     1       7.711   6.749  18.228  0.00  0.00    +0.000 C 
ENDROOT
BRANCH   2   3
ATOM      3  C   UNL     1       8.472   7.912  18.771  0.00  0.00    +0.000 C 
ATOM      4  C   UNL     1       8.413   9.126  18.198  0.00  0.00    +0.000 C 
BRANCH   4   5
ATOM      5  C   UNL     1       9.190  10.281  18.672  0.00  0.00    +0.000 A 
ATOM      6  C   UNL     1       9.352  10.565  20.034  0.00  0.00    +0.000 A 
ATOM      7  C   UNL     1      10.138  11.641  20.457  0.00  0.00    +0.000 A 
ATOM      8  C   UNL     1      10.806  12.445  19.527  0.00  0.00    +0.000 A 
ATOM      9  C   UNL     1      11.631  13.504  19.939  0.00  0.00    +0.000 A 
ATOM     10  C   UNL     1      12.307  14.286  19.001  0.00  0.00    +0.000 A 
ATOM     11  C   UNL     1      12.153  14.028  17.642  0.00  0.00    +0.000 A 
ATOM     12  C   UNL     1      11.333  12.982  17.218  0.00  0.00    +0.000 A 
ATOM     13  C   UNL     1      10.659  12.173  18.148  0.00  0.00    +0.000 A 
ATOM     14  C   UNL     1       9.854  11.094  17.738  0.00  0.00    +0.000 A 
ENDBRANCH   4   5
ENDBRANCH   2   3
BRANCH   2  15
ATOM     15  C   UNL     1       6.970   6.962  16.919  0.00  0.00    +0.000 C 
BRANCH  15  16
ATOM     16  C   UNL     1       5.458   6.817  17.050  0.00  0.00    +0.000 C 
BRANCH  16  17
ATOM     17  C   UNL     1       4.947   5.443  16.661  0.00  0.00    +0.000 C 
ATOM     18  O   UNL     1       5.166   4.978  15.538  0.00  0.00    +0.000 OA
ATOM     19  N   UNL     1       4.294   4.722  17.652  0.00  0.00    +0.000 N 
ATOM     20  C   UNL     1       3.935   3.327  17.408  0.00  0.00    +0.000 C 
ATOM     21  C   UNL     1       2.421   3.146  17.429  0.00  0.00    +0.000 C 
ATOM     22  C   UNL     1       1.818   3.706  18.717  0.00  0.00    +0.000 C 
ATOM     23  C   UNL     1       2.257   5.153  18.949  0.00  0.00    +0.000 C 
ATOM     24  C   UNL     1       3.778   5.286  18.901  0.00  0.00    +0.000 C 
ENDBRANCH  16  17
ENDBRANCH  15  16
ENDBRANCH   2  15
TORSDOF 5
ENDMDL
MODEL 7
REMARK VINA RESULT:      -8.6      0.925      1.020
REMARK  Name = 
REMARK  5 active torsions:
REMARK  status: ('A' for Active; 'I' for Inactive)
REMARK    1  A    between atoms: C_2  and  C_3
REMARK    2  A    between atoms: C_2  and  C_15
REMARK    3  A    between atoms: C_4  and  C_5
REMARK    4  A    between atoms: C_15  and  C_16
REMARK    5  A    between atoms: C_16  and  C_17
REMARK                            x       y       z     vdW  Elec       q    Type
REMARK                         _______ _______ _______ _____ _____    ______ ____
ROOT
ATOM      1  O   UNL     1       7.713   6.467  16.346  0.00  0.00    +0.000 OA
ATOM      2  C   UNL     1       7.395   6.954  17.432  0.00  0.00    +0.000 C 
ENDROOT
BRANCH   2   3
ATOM      3  C   UNL     1       8.254   7.962  18.118  0.00  0.00    +0.000 C 
ATOM      4  C   UNL     1       8.137   9.278  17.870  0.00  0.00    +0.000 C 
BRANCH   4   5
ATOM      5  C   UNL     1       9.002  10.295  18.486  0.00  0.00    +0.000 A 
ATOM      6  C   UNL     1       9.287  10.304  19.857  0.00  0.00    +0.000 A 
ATOM      7  C   UNL     1      10.152  11.254  20.408  0.00  0.00    +0.000 A 
ATOM      8  C   UNL     1      10.777  12.205  19.593  0.00  0.00    +0.000 A 
ATOM      9  C   UNL     1      11.680  13.140  20.126  0.00  0.00    +0.000 A 
ATOM     10  C   UNL     1      12.311  14.070  19.299  0.00  0.00    +0.000 A 
ATOM     11  C   UNL     1      12.036  14.087  17.935  0.00  0.00    +0.000 A 
ATOM     12  C   UNL     1      11.137  13.167  17.392  0.00  0.00    +0.000 A 
ATOM     13  C   UNL     1      10.506  12.212  18.206  0.00  0.00    +0.000 A 
ATOM     14  C   UNL     1       9.623  11.257  17.670  0.00  0.00    +0.000 A 
ENDBRANCH   4   5
ENDBRANCH   2   3
BRANCH   2  15
ATOM     15  C   UNL     1       6.087   6.587  18.111  0.00  0.00    +0.000 C 
BRANCH  15  16
ATOM     16  C   UNL     1       5.041   6.036  17.149  0.00  0.00    +0.000 C 
BRANCH  16  17
ATOM     17  C   UNL     1       4.885   4.529  17.224  0.00  0.00    +0.000 C 
ATOM     18  O   UNL     1       5.674   3.779  16.642  0.00  0.00    +0.000 OA
ATOM     19  N   UNL     1       3.862   4.054  18.034  0.00  0.00    +0.000 N 
ATOM     20  C   UNL     1       3.764   2.620  18.299  0.00  0.00    +0.000 C 
ATOM     21  C   UNL     1       2.465   2.053  17.735  0.00  0.00    +0.000 C 
ATOM     22  C   UNL     1       1.257   2.843  18.239  0.00  0.00    +0.000 C 
ATOM     23  C   UNL     1       1.428   4.340  17.977  0.00  0.00    +0.000 C 
ATOM     24  C   UNL     1       2.749   4.856  18.543  0.00  0.00    +0.000 C 
ENDBRANCH  16  17
ENDBRANCH  15  16
ENDBRANCH   2  15
TORSDOF 5
ENDMDL
MODEL 8
REMARK VINA RESULT:      -8.6      1.158      1.420
REMARK  Name = 
REMARK  5 active torsions:
REMARK  status: ('A' for Active; 'I' for Inactive)
REMARK    1  A    between atoms: C_2  and  C_3
REMARK    2  A    between atoms: C_2  and  C_15
REMARK    3  A    between atoms: C_4  and  C_5
REMARK    4  A    between atoms: C_15  and  C_16
REMARK    5  A    between atoms: C_16  and  C_17
REMARK                            x       y       z     vdW  Elec       q    Type
REMARK                         _______ _______ _______ _____ _____    ______ ____
ROOT
ATOM      1  O   UNL     1       7.918   5.470  17.573  0.00  0.00    +0.000 OA
ATOM      2  C   UNL     1       7.406   6.557  17.846  0.00  0.00    +0.000 C 
ENDROOT
BRANCH   2   3
ATOM      3  C   UNL     1       8.199   7.662  18.460  0.00  0.00    +0.000 C 
ATOM      4  C   UNL     1       8.149   8.917  17.984  0.00  0.00    +0.000 C 
BRANCH   4   5
ATOM      5  C   UNL     1       8.957  10.020  18.529  0.00  0.00    +0.000 A 
ATOM      6  C   UNL     1       9.041  10.277  19.902  0.00  0.00    +0.000 A 
ATOM      7  C   UNL     1       9.856  11.300  20.396  0.00  0.00    +0.000 A 
ATOM      8  C   UNL     1      10.630  12.077  19.526  0.00  0.00    +0.000 A 
ATOM      9  C   UNL     1      11.483  13.082  20.010  0.00  0.00    +0.000 A 
ATOM     10  C   UNL     1      12.265  13.835  19.133  0.00  0.00    +0.000 A 
ATOM     11  C   UNL     1      12.190  13.604  17.762  0.00  0.00    +0.000 A 
ATOM     12  C   UNL     1      11.342  12.612  17.267  0.00  0.00    +0.000 A 
ATOM     13  C   UNL     1      10.562  11.831  18.136  0.00  0.00    +0.000 A 
ATOM     14  C   UNL     1       9.727  10.806  17.655  0.00  0.00    +0.000 A 
ENDBRANCH   4   5
ENDBRANCH   2   3
BRANCH   2  15
ATOM     15  C   UNL     1       5.949   6.848  17.531  0.00  0.00    +0.000 C 
BRANCH  15  16
ATOM     16  C   UNL     1       5.067   5.604  17.552  0.00  0.00    +0.000 C 
BRANCH  16  17
ATOM     17  C   UNL     1       4.634   5.196  18.947  0.00  0.00    +0.000 C 
ATOM     18  O   UNL     1       5.465   4.992  19.837  0.00  0.00    +0.000 OA
ATOM     19  N   UNL     1       3.266   5.140  19.178  0.00  0.00    +0.000 N 
ATOM     20  C   UNL     1       2.775   4.931  20.538  0.00  0.00    +0.000 C 
ATOM     21  C   UNL     1       2.013   3.615  20.643  0.00  0.00    +0.000 C 
ATOM     22  C   UNL     1       0.912   3.531  19.586  0.00  0.00    +0.000 C 
ATOM     23  C   UNL     1       1.468   3.798  18.187  0.00  0.00    +0.000 C 
ATOM     24  C   UNL     1       2.237   5.117  18.137  0.00  0.00    +0.000 C 
ENDBRANCH  16  17
ENDBRANCH  15  16
ENDBRANCH   2  15
TORSDOF 5
ENDMDL
MODEL 9
REMARK VINA RESULT:      -8.6      1.409      2.159
REMARK  Name = 
REMARK  5 active torsions:
REMARK  status: ('A' for Active; 'I' for Inactive)
REMARK    1  A    between atoms: C_2  and  C_3
REMARK    2  A    between atoms: C_2  and  C_15
REMARK    3  A    between atoms: C_4  and  C_5
REMARK    4  A    between atoms: C_15  and  C_16
REMARK    5  A    between atoms: C_16  and  C_17
REMARK                            x       y       z     vdW  Elec       q    Type
REMARK                         _______ _______ _______ _____ _____    ______ ____
ROOT
ATOM      1  O   UNL     1       6.558   7.298  16.570  0.00  0.00    +0.000 OA
ATOM      2  C   UNL     1       7.335   7.509  17.503  0.00  0.00    +0.000 C 
ENDROOT
BRANCH   2   3
ATOM      3  C   UNL     1       7.884   8.870  17.770  0.00  0.00    +0.000 C 
ATOM      4  C   UNL     1       8.871   9.073  18.658  0.00  0.00    +0.000 C 
BRANCH   4   5
ATOM      5  C   UNL     1       9.400  10.406  18.987  0.00  0.00    +0.000 A 
ATOM      6  C   UNL     1      10.091  11.187  18.053  0.00  0.00    +0.000 A 
ATOM      7  C   UNL     1      10.539  12.471  18.377  0.00  0.00    +0.000 A 
ATOM      8  C   UNL     1      10.283  13.017  19.640  0.00  0.00    +0.000 A 
ATOM      9  C   UNL     1      10.692  14.320  19.967  0.00  0.00    +0.000 A 
ATOM     10  C   UNL     1      10.412  14.860  21.223  0.00  0.00    +0.000 A 
ATOM     11  C   UNL     1       9.736  14.097  22.172  0.00  0.00    +0.000 A 
ATOM     12  C   UNL     1       9.328  12.799  21.862  0.00  0.00    +0.000 A 
ATOM     13  C   UNL     1       9.584  12.246  20.597  0.00  0.00    +0.000 A 
ATOM     14  C   UNL     1       9.151  10.951  20.258  0.00  0.00    +0.000 A 
ENDBRANCH   4   5
ENDBRANCH   2   3
BRANCH   2  15
ATOM     15  C   UNL     1       7.742   6.402  18.460  0.00  0.00    +0.000 C 
BRANCH  15  16
ATOM     16  C   UNL     1       6.557   5.729  19.144  0.00  0.00    +0.000 C 
BRANCH  16  17
ATOM     17  C   UNL     1       5.917   4.638  18.308  0.00  0.00    +0.000 C 
ATOM     18  O   UNL     1       6.552   4.065  17.418  0.00  0.00    +0.000 OA
ATOM     19  N   UNL     1       4.620   4.278  18.649  0.00  0.00    +0.000 N 
ATOM     20  C   UNL     1       4.005   3.117  18.010  0.00  0.00    +0.000 C 
ATOM     21  C   UNL     1       2.793   3.532  17.183  0.00  0.00    +0.000 C 
ATOM     22  C   UNL     1       1.810   4.350  18.021  0.00  0.00    +0.000 C 
ATOM     23  C   UNL     1       2.510   5.526  18.702  0.00  0.00    +0.000 C 
ATOM     24  C   UNL     1       3.725   5.062  19.502  0.00  0.00    +0.000 C 
ENDBRANCH  16  17
ENDBRANCH  15  16
ENDBRANCH   2  15
TORSDOF 5
ENDMDL
