MODEL 1
REMARK VINA RESULT:      -6.9      0.000      0.000
REMARK  Name = 
REMARK  18 active torsions:
REMARK  status: ('A' for Active; 'I' for Inactive)
REMARK    1  A    between atoms: C_1  and  C_2
REMARK    2  A    between atoms: C_2  and  O_3
REMARK    3  A    between atoms: O_3  and  C_4
REMARK    4  A    between atoms: C_7  and  C_8
REMARK    5  A    between atoms: C_8  and  N_9
REMARK    6  A    between atoms: N_9  and  C_10
REMARK    7  A    between atoms: N_9  and  C_11
REMARK    8  A    between atoms: C_11  and  C_12
REMARK    9  A    between atoms: C_12  and  O_13
REMARK   10  A    between atoms: C_12  and  C_14
REMARK   11  A    between atoms: C_14  and  O_15
REMARK   12  A    between atoms: O_15  and  C_16
REMARK   13  A    between atoms: C_16  and  C_17
REMARK   14  A    between atoms: C_16  and  C_25
REMARK   15  A    between atoms: C_20  and  O_21
REMARK   16  A    between atoms: O_21  and  C_22
REMARK   17  A    between atoms: C_28  and  O_29
REMARK   18  A    between atoms: O_29  and  C_30
REMARK                            x       y       z     vdW  Elec       q    Type
REMARK                         _______ _______ _______ _____ _____    ______ ____
ROOT
ATOM      1  O   UNL     1       1.225   9.481  18.997  0.00  0.00    +0.000 OA
ENDROOT
BRANCH   1   2
ATOM      2  C   UNL     1       1.504   8.403  19.891  0.00  0.00    +0.000 C 
BRANCH   2   3
ATOM      3  C   UNL     1       2.456   7.342  19.324  0.00  0.00    +0.000 C 
BRANCH   3   4
ATOM      4  O   UNL     1       2.263   7.253  17.910  0.00  0.00    +0.000 OA
ATOM      5  H   UNL     1       1.698   6.481  17.735  0.00  0.00    +0.000 HD
ENDBRANCH   3   4
BRANCH   3   6
ATOM      6  C   UNL     1       2.235   5.981  20.033  0.00  0.00    +0.000 C 
BRANCH   6   7
ATOM      7  N   UNL     1       2.375   4.787  19.168  0.00  0.00    +0.000 NA
ATOM      8  C   UNL     1       1.359   3.799  19.561  0.00  0.00    +0.000 C 
BRANCH   7   9
ATOM      9  C   UNL     1       3.731   4.214  19.279  0.00  0.00    +0.000 C 
BRANCH   9  13
ATOM     10  C   UNL     1       6.435   5.157  16.048  0.00  0.00    +0.000 A 
ATOM     11  C   UNL     1       6.698   5.617  17.336  0.00  0.00    +0.000 A 
ATOM     12  C   UNL     1       5.819   5.325  18.382  0.00  0.00    +0.000 A 
ATOM     13  C   UNL     1       4.652   4.587  18.139  0.00  0.00    +0.000 A 
ATOM     14  C   UNL     1       4.370   4.169  16.833  0.00  0.00    +0.000 A 
ATOM     15  C   UNL     1       5.248   4.465  15.788  0.00  0.00    +0.000 A 
BRANCH  10  16
ATOM     16  O   UNL     1       7.391   5.443  15.112  0.00  0.00    +0.000 OA
BRANCH  16  18
ATOM     17  C   UNL     1       8.095   5.495  12.837  0.00  0.00    +0.000 C 
ATOM     18  C   UNL     1       7.224   4.785  13.856  0.00  0.00    +0.000 C 
ENDBRANCH  16  18
ENDBRANCH  10  16
ENDBRANCH   9  13
ENDBRANCH   7   9
ENDBRANCH   6   7
ENDBRANCH   3   6
ENDBRANCH   2   3
ENDBRANCH   1   2
BRANCH   1  19
ATOM     19  C   UNL     1       0.512  10.596  19.559  0.00  0.00    +0.000 C 
BRANCH  19  20
ATOM     20  C   UNL     1       1.368  11.849  19.523  0.00  0.00    +0.000 A 
ATOM     21  C   UNL     1       2.050  12.218  18.355  0.00  0.00    +0.000 A 
ATOM     22  C   UNL     1       2.847  13.362  18.336  0.00  0.00    +0.000 A 
ATOM     23  C   UNL     1       2.966  14.161  19.472  0.00  0.00    +0.000 A 
ATOM     24  C   UNL     1       2.322  13.783  20.651  0.00  0.00    +0.000 A 
ATOM     25  C   UNL     1       1.524  12.636  20.675  0.00  0.00    +0.000 A 
BRANCH  23  26
ATOM     26  O   UNL     1       3.764  15.264  19.336  0.00  0.00    +0.000 OA
ATOM     27  C   UNL     1       3.793  16.129  20.466  0.00  0.00    +0.000 C 
ENDBRANCH  23  26
ENDBRANCH  19  20
BRANCH  19  28
ATOM     28  C   UNL     1      -0.836  10.760  18.857  0.00  0.00    +0.000 A 
ATOM     29  C   UNL     1      -1.178  10.001  17.728  0.00  0.00    +0.000 A 
ATOM     30  C   UNL     1      -2.433  10.133  17.130  0.00  0.00    +0.000 A 
ATOM     31  C   UNL     1      -3.381  11.010  17.656  0.00  0.00    +0.000 A 
ATOM     32  C   UNL     1      -3.052  11.786  18.765  0.00  0.00    +0.000 A 
ATOM     33  C   UNL     1      -1.794  11.658  19.363  0.00  0.00    +0.000 A 
BRANCH  31  34
ATOM     34  O   UNL     1      -4.570  11.053  16.983  0.00  0.00    +0.000 OA
ATOM     35  C   UNL     1      -5.721  11.267  17.791  0.00  0.00    +0.000 C 
ENDBRANCH  31  34
ENDBRANCH  19  28
ENDBRANCH   1  19
TORSDOF 14
ENDMDL
MODEL 2
REMARK VINA RESULT:      -6.8      0.742      1.644
REMARK  Name = 
REMARK  18 active torsions:
REMARK  status: ('A' for Active; 'I' for Inactive)
REMARK    1  A    between atoms: C_1  and  C_2
REMARK    2  A    between atoms: C_2  and  O_3
REMARK    3  A    between atoms: O_3  and  C_4
REMARK    4  A    between atoms: C_7  and  C_8
REMARK    5  A    between atoms: C_8  and  N_9
REMARK    6  A    between atoms: N_9  and  C_10
REMARK    7  A    between atoms: N_9  and  C_11
REMARK    8  A    between atoms: C_11  and  C_12
REMARK    9  A    between atoms: C_12  and  O_13
REMARK   10  A    between atoms: C_12  and  C_14
REMARK   11  A    between atoms: C_14  and  O_15
REMARK   12  A    between atoms: O_15  and  C_16
REMARK   13  A    between atoms: C_16  and  C_17
REMARK   14  A    between atoms: C_16  and  C_25
REMARK   15  A    between atoms: C_20  and  O_21
REMARK   16  A    between atoms: O_21  and  C_22
REMARK   17  A    between atoms: C_28  and  O_29
REMARK   18  A    between atoms: O_29  and  C_30
REMARK                            x       y       z     vdW  Elec       q    Type
REMARK                         _______ _______ _______ _____ _____    ______ ____
ROOT
ATOM      1  O   UNL     1       1.021   9.369  19.360  0.00  0.00    +0.000 OA
ENDROOT
BRANCH   1   2
ATOM      2  C   UNL     1       1.364   8.513  20.450  0.00  0.00    +0.000 C 
BRANCH   2   3
ATOM      3  C   UNL     1       2.193   7.284  20.052  0.00  0.00    +0.000 C 
BRANCH   3   4
ATOM      4  O   UNL     1       2.383   7.293  18.635  0.00  0.00    +0.000 OA
ATOM      5  H   UNL     1       2.566   8.209  18.365  0.00  0.00    +0.000 HD
ENDBRANCH   3   4
BRANCH   3   6
ATOM      6  C   UNL     1       1.505   5.984  20.543  0.00  0.00    +0.000 C 
BRANCH   6   7
ATOM      7  N   UNL     1       1.910   4.748  19.836  0.00  0.00    +0.000 NA
ATOM      8  C   UNL     1       0.939   3.688  20.146  0.00  0.00    +0.000 C 
BRANCH   7   9
ATOM      9  C   UNL     1       3.273   4.339  20.231  0.00  0.00    +0.000 C 
BRANCH   9  13
ATOM     10  C   UNL     1       6.029   4.321  16.907  0.00  0.00    +0.000 A 
ATOM     11  C   UNL     1       4.787   3.701  16.789  0.00  0.00    +0.000 A 
ATOM     12  C   UNL     1       3.897   3.693  17.866  0.00  0.00    +0.000 A 
ATOM     13  C   UNL     1       4.257   4.289  19.084  0.00  0.00    +0.000 A 
ATOM     14  C   UNL     1       5.524   4.868  19.211  0.00  0.00    +0.000 A 
ATOM     15  C   UNL     1       6.414   4.871  18.134  0.00  0.00    +0.000 A 
BRANCH  10  16
ATOM     16  O   UNL     1       6.796   4.328  15.775  0.00  0.00    +0.000 OA
BRANCH  16  18
ATOM     17  C   UNL     1       7.082   4.764  13.451  0.00  0.00    +0.000 C 
ATOM     18  C   UNL     1       6.265   5.085  14.688  0.00  0.00    +0.000 C 
ENDBRANCH  16  18
ENDBRANCH  10  16
ENDBRANCH   9  13
ENDBRANCH   7   9
ENDBRANCH   6   7
ENDBRANCH   3   6
ENDBRANCH   2   3
ENDBRANCH   1   2
BRANCH   1  19
ATOM     19  C   UNL     1       0.327  10.580  19.706  0.00  0.00    +0.000 C 
BRANCH  19  20
ATOM     20  C   UNL     1       1.253  11.777  19.589  0.00  0.00    +0.000 A 
ATOM     21  C   UNL     1       1.381  12.689  20.646  0.00  0.00    +0.000 A 
ATOM     22  C   UNL     1       2.222  13.795  20.524  0.00  0.00    +0.000 A 
ATOM     23  C   UNL     1       2.955  14.002  19.356  0.00  0.00    +0.000 A 
ATOM     24  C   UNL     1       2.806  13.122  18.284  0.00  0.00    +0.000 A 
ATOM     25  C   UNL     1       1.963  12.013  18.401  0.00  0.00    +0.000 A 
BRANCH  23  26
ATOM     26  O   UNL     1       3.754  15.112  19.351  0.00  0.00    +0.000 OA
ATOM     27  C   UNL     1       4.683  15.188  20.427  0.00  0.00    +0.000 C 
ENDBRANCH  23  26
ENDBRANCH  19  20
BRANCH  19  28
ATOM     28  C   UNL     1      -0.944  10.710  18.866  0.00  0.00    +0.000 A 
ATOM     29  C   UNL     1      -1.983  11.579  19.232  0.00  0.00    +0.000 A 
ATOM     30  C   UNL     1      -3.116  11.719  18.426  0.00  0.00    +0.000 A 
ATOM     31  C   UNL     1      -3.228  11.010  17.230  0.00  0.00    +0.000 A 
ATOM     32  C   UNL     1      -2.214  10.129  16.861  0.00  0.00    +0.000 A 
ATOM     33  C   UNL     1      -1.080   9.985  17.669  0.00  0.00    +0.000 A 
BRANCH  31  34
ATOM     34  O   UNL     1      -4.382  11.228  16.530  0.00  0.00    +0.000 OA
ATOM     35  C   UNL     1      -5.374  11.989  17.210  0.00  0.00    +0.000 C 
ENDBRANCH  31  34
ENDBRANCH  19  28
ENDBRANCH   1  19
TORSDOF 14
ENDMDL
MODEL 3
REMARK VINA RESULT:      -6.8      1.647      2.290
REMARK  Name = 
REMARK  18 active torsions:
REMARK  status: ('A' for Active; 'I' for Inactive)
REMARK    1  A    between atoms: C_1  and  C_2
REMARK    2  A    between atoms: C_2  and  O_3
REMARK    3  A    between atoms: O_3  and  C_4
REMARK    4  A    between atoms: C_7  and  C_8
REMARK    5  A    between atoms: C_8  and  N_9
REMARK    6  A    between atoms: N_9  and  C_10
REMARK    7  A    between atoms: N_9  and  C_11
REMARK    8  A    between atoms: C_11  and  C_12
REMARK    9  A    between atoms: C_12  and  O_13
REMARK   10  A    between atoms: C_12  and  C_14
REMARK   11  A    between atoms: C_14  and  O_15
REMARK   12  A    between atoms: O_15  and  C_16
REMARK   13  A    between atoms: C_16  and  C_17
REMARK   14  A    between atoms: C_16  and  C_25
REMARK   15  A    between atoms: C_20  and  O_21
REMARK   16  A    between atoms: O_21  and  C_22
REMARK   17  A    between atoms: C_28  and  O_29
REMARK   18  A    between atoms: O_29  and  C_30
REMARK                            x       y       z     vdW  Elec       q    Type
REMARK                         _______ _______ _______ _____ _____    ______ ____
ROOT
ATOM      1  O   UNL     1       0.904   9.120  18.544  0.00  0.00    +0.000 OA
ENDROOT
BRANCH   1   2
ATOM      2  C   UNL     1       1.999   8.544  19.257  0.00  0.00    +0.000 C 
BRANCH   2   3
ATOM      3  C   UNL     1       1.589   7.523  20.326  0.00  0.00    +0.000 C 
BRANCH   3   4
ATOM      4  O   UNL     1       1.752   8.114  21.618  0.00  0.00    +0.000 OA
ATOM      5  H   UNL     1       1.825   7.394  22.268  0.00  0.00    +0.000 HD
ENDBRANCH   3   4
BRANCH   3   6
ATOM      6  C   UNL     1       2.410   6.217  20.172  0.00  0.00    +0.000 C 
BRANCH   6   7
ATOM      7  N   UNL     1       1.754   5.146  19.388  0.00  0.00    +0.000 NA
ATOM      8  C   UNL     1       1.121   4.200  20.320  0.00  0.00    +0.000 C 
BRANCH   7   9
ATOM      9  C   UNL     1       2.729   4.454  18.523  0.00  0.00    +0.000 C 
BRANCH   9  13
ATOM     10  C   UNL     1       6.509   6.462  17.957  0.00  0.00    +0.000 A 
ATOM     11  C   UNL     1       6.364   5.520  18.972  0.00  0.00    +0.000 A 
ATOM     12  C   UNL     1       5.138   4.877  19.167  0.00  0.00    +0.000 A 
ATOM     13  C   UNL     1       4.038   5.193  18.357  0.00  0.00    +0.000 A 
ATOM     14  C   UNL     1       4.179   6.175  17.370  0.00  0.00    +0.000 A 
ATOM     15  C   UNL     1       5.403   6.819  17.180  0.00  0.00    +0.000 A 
BRANCH  10  16
ATOM     16  O   UNL     1       7.765   6.984  17.811  0.00  0.00    +0.000 OA
BRANCH  16  18
ATOM     17  C   UNL     1       8.660   9.054  18.578  0.00  0.00    +0.000 C 
ATOM     18  C   UNL     1       7.811   8.380  17.517  0.00  0.00    +0.000 C 
ENDBRANCH  16  18
ENDBRANCH  10  16
ENDBRANCH   9  13
ENDBRANCH   7   9
ENDBRANCH   6   7
ENDBRANCH   3   6
ENDBRANCH   2   3
ENDBRANCH   1   2
BRANCH   1  19
ATOM     19  C   UNL     1       0.207  10.184  19.214  0.00  0.00    +0.000 C 
BRANCH  19  20
ATOM     20  C   UNL     1       1.096  11.408  19.341  0.00  0.00    +0.000 A 
ATOM     21  C   UNL     1       1.221  12.078  20.566  0.00  0.00    +0.000 A 
ATOM     22  C   UNL     1       2.027  13.211  20.671  0.00  0.00    +0.000 A 
ATOM     23  C   UNL     1       2.729  13.684  19.563  0.00  0.00    +0.000 A 
ATOM     24  C   UNL     1       2.582  13.049  18.330  0.00  0.00    +0.000 A 
ATOM     25  C   UNL     1       1.773  11.914  18.220  0.00  0.00    +0.000 A 
BRANCH  23  26
ATOM     26  O   UNL     1       3.497  14.795  19.783  0.00  0.00    +0.000 OA
ATOM     27  C   UNL     1       3.142  15.552  20.935  0.00  0.00    +0.000 C 
ENDBRANCH  23  26
ENDBRANCH  19  20
BRANCH  19  28
ATOM     28  C   UNL     1      -1.118  10.466  18.505  0.00  0.00    +0.000 A 
ATOM     29  C   UNL     1      -2.051  11.378  19.021  0.00  0.00    +0.000 A 
ATOM     30  C   UNL     1      -3.234  11.657  18.333  0.00  0.00    +0.000 A 
ATOM     31  C   UNL     1      -3.504  11.049  17.108  0.00  0.00    +0.000 A 
ATOM     32  C   UNL     1      -2.597  10.126  16.589  0.00  0.00    +0.000 A 
ATOM     33  C   UNL     1      -1.412   9.843  17.279  0.00  0.00    +0.000 A 
BRANCH  31  34
ATOM     34  O   UNL     1      -4.694  11.399  16.532  0.00  0.00    +0.000 OA
ATOM     35  C   UNL     1      -5.560  12.179  17.348  0.00  0.00    +0.000 C 
ENDBRANCH  31  34
ENDBRANCH  19  28
ENDBRANCH   1  19
TORSDOF 14
ENDMDL
MODEL 4
REMARK VINA RESULT:      -6.7      1.641      2.550
REMARK  Name = 
REMARK  18 active torsions:
REMARK  status: ('A' for Active; 'I' for Inactive)
REMARK    1  A    between atoms: C_1  and  C_2
REMARK    2  A    between atoms: C_2  and  O_3
REMARK    3  A    between atoms: O_3  and  C_4
REMARK    4  A    between atoms: C_7  and  C_8
REMARK    5  A    between atoms: C_8  and  N_9
REMARK    6  A    between atoms: N_9  and  C_10
REMARK    7  A    between atoms: N_9  and  C_11
REMARK    8  A    between atoms: C_11  and  C_12
REMARK    9  A    between atoms: C_12  and  O_13
REMARK   10  A    between atoms: C_12  and  C_14
REMARK   11  A    between atoms: C_14  and  O_15
REMARK   12  A    between atoms: O_15  and  C_16
REMARK   13  A    between atoms: C_16  and  C_17
REMARK   14  A    between atoms: C_16  and  C_25
REMARK   15  A    between atoms: C_20  and  O_21
REMARK   16  A    between atoms: O_21  and  C_22
REMARK   17  A    between atoms: C_28  and  O_29
REMARK   18  A    between atoms: O_29  and  C_30
REMARK                            x       y       z     vdW  Elec       q    Type
REMARK                         _______ _______ _______ _____ _____    ______ ____
ROOT
ATOM      1  O   UNL     1       0.935   9.141  18.801  0.00  0.00    +0.000 OA
ENDROOT
BRANCH   1   2
ATOM      2  C   UNL     1       1.959   8.565  19.610  0.00  0.00    +0.000 C 
BRANCH   2   3
ATOM      3  C   UNL     1       1.842   7.046  19.791  0.00  0.00    +0.000 C 
BRANCH   3   4
ATOM      4  O   UNL     1       1.831   6.745  21.189  0.00  0.00    +0.000 OA
ATOM      5  H   UNL     1       2.754   6.655  21.481  0.00  0.00    +0.000 HD
ENDBRANCH   3   4
BRANCH   3   6
ATOM      6  C   UNL     1       2.991   6.320  19.044  0.00  0.00    +0.000 C 
BRANCH   6   7
ATOM      7  N   UNL     1       2.570   5.206  18.165  0.00  0.00    +0.000 NA
ATOM      8  C   UNL     1       1.851   4.212  18.977  0.00  0.00    +0.000 C 
BRANCH   7   9
ATOM      9  C   UNL     1       3.736   4.592  17.499  0.00  0.00    +0.000 C 
BRANCH   9  13
ATOM     10  C   UNL     1       7.370   6.809  18.219  0.00  0.00    +0.000 A 
ATOM     11  C   UNL     1       6.555   7.135  17.138  0.00  0.00    +0.000 A 
ATOM     12  C   UNL     1       5.385   6.412  16.894  0.00  0.00    +0.000 A 
ATOM     13  C   UNL     1       5.033   5.336  17.721  0.00  0.00    +0.000 A 
ATOM     14  C   UNL     1       5.882   4.983  18.777  0.00  0.00    +0.000 A 
ATOM     15  C   UNL     1       7.053   5.705  19.017  0.00  0.00    +0.000 A 
BRANCH  10  16
ATOM     16  O   UNL     1       8.456   7.619  18.406  0.00  0.00    +0.000 OA
BRANCH  16  18
ATOM     17  C   UNL     1       9.051   9.835  19.046  0.00  0.00    +0.000 C 
ATOM     18  C   UNL     1       8.253   8.991  18.070  0.00  0.00    +0.000 C 
ENDBRANCH  16  18
ENDBRANCH  10  16
ENDBRANCH   9  13
ENDBRANCH   7   9
ENDBRANCH   6   7
ENDBRANCH   3   6
ENDBRANCH   2   3
ENDBRANCH   1   2
BRANCH   1  19
ATOM     19  C   UNL     1       0.251  10.274  19.365  0.00  0.00    +0.000 C 
BRANCH  19  20
ATOM     20  C   UNL     1       1.166  11.485  19.405  0.00  0.00    +0.000 A 
ATOM     21  C   UNL     1       1.320  12.228  20.583  0.00  0.00    +0.000 A 
ATOM     22  C   UNL     1       2.150  13.348  20.606  0.00  0.00    +0.000 A 
ATOM     23  C   UNL     1       2.848  13.736  19.463  0.00  0.00    +0.000 A 
ATOM     24  C   UNL     1       2.673  13.026  18.275  0.00  0.00    +0.000 A 
ATOM     25  C   UNL     1       1.840  11.904  18.246  0.00  0.00    +0.000 A 
BRANCH  23  26
ATOM     26  O   UNL     1       3.640  14.842  19.604  0.00  0.00    +0.000 OA
ATOM     27  C   UNL     1       3.131  16.027  19.002  0.00  0.00    +0.000 C 
ENDBRANCH  23  26
ENDBRANCH  19  20
BRANCH  19  28
ATOM     28  C   UNL     1      -1.055  10.523  18.610  0.00  0.00    +0.000 A 
ATOM     29  C   UNL     1      -1.997  11.463  19.055  0.00  0.00    +0.000 A 
ATOM     30  C   UNL     1      -3.161  11.710  18.325  0.00  0.00    +0.000 A 
ATOM     31  C   UNL     1      -3.403  11.040  17.127  0.00  0.00    +0.000 A 
ATOM     32  C   UNL     1      -2.488  10.090  16.679  0.00  0.00    +0.000 A 
ATOM     33  C   UNL     1      -1.322   9.839  17.411  0.00  0.00    +0.000 A 
BRANCH  31  34
ATOM     34  O   UNL     1      -4.577  11.364  16.505  0.00  0.00    +0.000 OA
ATOM     35  C   UNL     1      -5.511  12.085  17.301  0.00  0.00    +0.000 C 
ENDBRANCH  31  34
ENDBRANCH  19  28
ENDBRANCH   1  19
TORSDOF 14
ENDMDL
MODEL 5
REMARK VINA RESULT:      -6.5      1.241      4.950
REMARK  Name = 
REMARK  18 active torsions:
REMARK  status: ('A' for Active; 'I' for Inactive)
REMARK    1  A    between atoms: C_1  and  C_2
REMARK    2  A    between atoms: C_2  and  O_3
REMARK    3  A    between atoms: O_3  and  C_4
REMARK    4  A    between atoms: C_7  and  C_8
REMARK    5  A    between atoms: C_8  and  N_9
REMARK    6  A    between atoms: N_9  and  C_10
REMARK    7  A    between atoms: N_9  and  C_11
REMARK    8  A    between atoms: C_11  and  C_12
REMARK    9  A    between atoms: C_12  and  O_13
REMARK   10  A    between atoms: C_12  and  C_14
REMARK   11  A    between atoms: C_14  and  O_15
REMARK   12  A    between atoms: O_15  and  C_16
REMARK   13  A    between atoms: C_16  and  C_17
REMARK   14  A    between atoms: C_16  and  C_25
REMARK   15  A    between atoms: C_20  and  O_21
REMARK   16  A    between atoms: O_21  and  C_22
REMARK   17  A    between atoms: C_28  and  O_29
REMARK   18  A    between atoms: O_29  and  C_30
REMARK                            x       y       z     vdW  Elec       q    Type
REMARK                         _______ _______ _______ _____ _____    ______ ____
ROOT
ATOM      1  O   UNL     1       1.220   9.920  19.969  0.00  0.00    +0.000 OA
ENDROOT
BRANCH   1   2
ATOM      2  C   UNL     1       1.445   8.543  19.668  0.00  0.00    +0.000 C 
BRANCH   2   3
ATOM      3  C   UNL     1       1.268   7.597  20.863  0.00  0.00    +0.000 C 
BRANCH   3   4
ATOM      4  O   UNL     1       1.830   8.210  22.026  0.00  0.00    +0.000 OA
ATOM      5  H   UNL     1       2.743   7.889  22.119  0.00  0.00    +0.000 HD
ENDBRANCH   3   4
BRANCH   3   6
ATOM      6  C   UNL     1       1.906   6.217  20.561  0.00  0.00    +0.000 C 
BRANCH   6   7
ATOM      7  N   UNL     1       2.505   6.077  19.214  0.00  0.00    +0.000 NA
ATOM      8  C   UNL     1       1.779   5.028  18.482  0.00  0.00    +0.000 C 
BRANCH   7   9
ATOM      9  C   UNL     1       3.941   5.750  19.309  0.00  0.00    +0.000 C 
BRANCH   9  13
ATOM     10  C   UNL     1       5.764   5.226  15.430  0.00  0.00    +0.000 A 
ATOM     11  C   UNL     1       5.784   4.187  16.358  0.00  0.00    +0.000 A 
ATOM     12  C   UNL     1       5.207   4.357  17.619  0.00  0.00    +0.000 A 
ATOM     13  C   UNL     1       4.624   5.583  17.970  0.00  0.00    +0.000 A 
ATOM     14  C   UNL     1       4.650   6.637  17.050  0.00  0.00    +0.000 A 
ATOM     15  C   UNL     1       5.231   6.467  15.791  0.00  0.00    +0.000 A 
BRANCH  10  16
ATOM     16  O   UNL     1       6.298   4.934  14.205  0.00  0.00    +0.000 OA
BRANCH  16  18
ATOM     17  C   UNL     1       6.487   3.507  12.307  0.00  0.00    +0.000 C 
ATOM     18  C   UNL     1       5.602   3.933  13.463  0.00  0.00    +0.000 C 
ENDBRANCH  16  18
ENDBRANCH  10  16
ENDBRANCH   9  13
ENDBRANCH   7   9
ENDBRANCH   6   7
ENDBRANCH   3   6
ENDBRANCH   2   3
ENDBRANCH   1   2
BRANCH   1  19
ATOM     19  C   UNL     1       0.938  10.772  18.845  0.00  0.00    +0.000 C 
BRANCH  19  20
ATOM     20  C   UNL     1      -0.558  10.857  18.602  0.00  0.00    +0.000 A 
ATOM     21  C   UNL     1      -1.180  10.025  17.661  0.00  0.00    +0.000 A 
ATOM     22  C   UNL     1      -2.552  10.122  17.433  0.00  0.00    +0.000 A 
ATOM     23  C   UNL     1      -3.325  11.037  18.146  0.00  0.00    +0.000 A 
ATOM     24  C   UNL     1      -2.711  11.896  19.057  0.00  0.00    +0.000 A 
ATOM     25  C   UNL     1      -1.335  11.804  19.288  0.00  0.00    +0.000 A 
BRANCH  23  26
ATOM     26  O   UNL     1      -4.660  11.038  17.848  0.00  0.00    +0.000 OA
ATOM     27  C   UNL     1      -5.036  11.890  16.772  0.00  0.00    +0.000 C 
ENDBRANCH  23  26
ENDBRANCH  19  20
BRANCH  19  28
ATOM     28  C   UNL     1       1.601  12.135  19.045  0.00  0.00    +0.000 A 
ATOM     29  C   UNL     1       1.783  12.687  20.322  0.00  0.00    +0.000 A 
ATOM     30  C   UNL     1       2.433  13.912  20.486  0.00  0.00    +0.000 A 
ATOM     31  C   UNL     1       2.932  14.604  19.383  0.00  0.00    +0.000 A 
ATOM     32  C   UNL     1       2.743  14.080  18.106  0.00  0.00    +0.000 A 
ATOM     33  C   UNL     1       2.089  12.854  17.939  0.00  0.00    +0.000 A 
BRANCH  31  34
ATOM     34  O   UNL     1       3.545  15.792  19.670  0.00  0.00    +0.000 OA
ATOM     35  C   UNL     1       4.010  15.932  21.007  0.00  0.00    +0.000 C 
ENDBRANCH  31  34
ENDBRANCH  19  28
ENDBRANCH   1  19
TORSDOF 14
ENDMDL
MODEL 6
REMARK VINA RESULT:      -6.5      3.546     10.358
REMARK  Name = 
REMARK  18 active torsions:
REMARK  status: ('A' for Active; 'I' for Inactive)
REMARK    1  A    between atoms: C_1  and  C_2
REMARK    2  A    between atoms: C_2  and  O_3
REMARK    3  A    between atoms: O_3  and  C_4
REMARK    4  A    between atoms: C_7  and  C_8
REMARK    5  A    between atoms: C_8  and  N_9
REMARK    6  A    between atoms: N_9  and  C_10
REMARK    7  A    between atoms: N_9  and  C_11
REMARK    8  A    between atoms: C_11  and  C_12
REMARK    9  A    between atoms: C_12  and  O_13
REMARK   10  A    between atoms: C_12  and  C_14
REMARK   11  A    between atoms: C_14  and  O_15
REMARK   12  A    between atoms: O_15  and  C_16
REMARK   13  A    between atoms: C_16  and  C_17
REMARK   14  A    between atoms: C_16  and  C_25
REMARK   15  A    between atoms: C_20  and  O_21
REMARK   16  A    between atoms: O_21  and  C_22
REMARK   17  A    between atoms: C_28  and  O_29
REMARK   18  A    between atoms: O_29  and  C_30
REMARK                            x       y       z     vdW  Elec       q    Type
REMARK                         _______ _______ _______ _____ _____    ______ ____
ROOT
ATOM      1  O   UNL     1       1.068  12.244  18.486  0.00  0.00    +0.000 OA
ENDROOT
BRANCH   1   2
ATOM      2  C   UNL     1       2.015  13.044  19.195  0.00  0.00    +0.000 C 
BRANCH   2   3
ATOM      3  C   UNL     1       1.626  14.523  19.319  0.00  0.00    +0.000 C 
BRANCH   3   4
ATOM      4  O   UNL     1       2.818  15.312  19.372  0.00  0.00    +0.000 OA
ATOM      5  H   UNL     1       2.705  16.061  18.761  0.00  0.00    +0.000 HD
ENDBRANCH   3   4
BRANCH   3   6
ATOM      6  C   UNL     1       0.721  14.743  20.559  0.00  0.00    +0.000 C 
BRANCH   6   7
ATOM      7  N   UNL     1      -0.667  15.163  20.262  0.00  0.00    +0.000 NA
ATOM      8  C   UNL     1      -0.627  16.283  19.309  0.00  0.00    +0.000 C 
BRANCH   7   9
ATOM      9  C   UNL     1      -1.374  15.553  21.497  0.00  0.00    +0.000 C 
BRANCH   9  13
ATOM     10  C   UNL     1      -4.747  12.985  22.318  0.00  0.00    +0.000 A 
ATOM     11  C   UNL     1      -4.908  14.118  21.524  0.00  0.00    +0.000 A 
ATOM     12  C   UNL     1      -3.822  14.959  21.266  0.00  0.00    +0.000 A 
ATOM     13  C   UNL     1      -2.566  14.683  21.825  0.00  0.00    +0.000 A 
ATOM     14  C   UNL     1      -2.423  13.569  22.661  0.00  0.00    +0.000 A 
ATOM     15  C   UNL     1      -3.510  12.732  22.920  0.00  0.00    +0.000 A 
BRANCH  10  16
ATOM     16  O   UNL     1      -5.856  12.196  22.454  0.00  0.00    +0.000 OA
BRANCH  16  18
ATOM     17  C   UNL     1      -7.278  13.182  24.091  0.00  0.00    +0.000 C 
ATOM     18  C   UNL     1      -7.086  12.903  22.613  0.00  0.00    +0.000 C 
ENDBRANCH  16  18
ENDBRANCH  10  16
ENDBRANCH   9  13
ENDBRANCH   7   9
ENDBRANCH   6   7
ENDBRANCH   3   6
ENDBRANCH   2   3
ENDBRANCH   1   2
BRANCH   1  19
ATOM     19  C   UNL     1       0.374  11.254  19.265  0.00  0.00    +0.000 C 
BRANCH  19  20
ATOM     20  C   UNL     1      -1.079  11.161  18.836  0.00  0.00    +0.000 A 
ATOM     21  C   UNL     1      -2.031  12.064  19.328  0.00  0.00    +0.000 A 
ATOM     22  C   UNL     1      -3.367  11.961  18.940  0.00  0.00    +0.000 A 
ATOM     23  C   UNL     1      -3.771  10.967  18.050  0.00  0.00    +0.000 A 
ATOM     24  C   UNL     1      -2.839  10.039  17.583  0.00  0.00    +0.000 A 
ATOM     25  C   UNL     1      -1.500  10.138  17.970  0.00  0.00    +0.000 A 
BRANCH  23  26
ATOM     26  O   UNL     1      -5.101  10.967  17.732  0.00  0.00    +0.000 OA
ATOM     27  C   UNL     1      -5.549  12.113  17.017  0.00  0.00    +0.000 C 
ENDBRANCH  23  26
ENDBRANCH  19  20
BRANCH  19  28
ATOM     28  C   UNL     1       1.116   9.920  19.193  0.00  0.00    +0.000 A 
ATOM     29  C   UNL     1       1.066   8.990  20.243  0.00  0.00    +0.000 A 
ATOM     30  C   UNL     1       1.712   7.756  20.138  0.00  0.00    +0.000 A 
ATOM     31  C   UNL     1       2.406   7.415  18.977  0.00  0.00    +0.000 A 
ATOM     32  C   UNL     1       2.482   8.333  17.932  0.00  0.00    +0.000 A 
ATOM     33  C   UNL     1       1.838   9.571  18.037  0.00  0.00    +0.000 A 
BRANCH  31  34
ATOM     34  O   UNL     1       2.999   6.183  18.994  0.00  0.00    +0.000 OA
ATOM     35  C   UNL     1       2.250   5.154  19.631  0.00  0.00    +0.000 C 
ENDBRANCH  31  34
ENDBRANCH  19  28
ENDBRANCH   1  19
TORSDOF 14
ENDMDL
MODEL 7
REMARK VINA RESULT:      -6.5      2.835     10.527
REMARK  Name = 
REMARK  18 active torsions:
REMARK  status: ('A' for Active; 'I' for Inactive)
REMARK    1  A    between atoms: C_1  and  C_2
REMARK    2  A    between atoms: C_2  and  O_3
REMARK    3  A    between atoms: O_3  and  C_4
REMARK    4  A    between atoms: C_7  and  C_8
REMARK    5  A    between atoms: C_8  and  N_9
REMARK    6  A    between atoms: N_9  and  C_10
REMARK    7  A    between atoms: N_9  and  C_11
REMARK    8  A    between atoms: C_11  and  C_12
REMARK    9  A    between atoms: C_12  and  O_13
REMARK   10  A    between atoms: C_12  and  C_14
REMARK   11  A    between atoms: C_14  and  O_15
REMARK   12  A    between atoms: O_15  and  C_16
REMARK   13  A    between atoms: C_16  and  C_17
REMARK   14  A    between atoms: C_16  and  C_25
REMARK   15  A    between atoms: C_20  and  O_21
REMARK   16  A    between atoms: O_21  and  C_22
REMARK   17  A    between atoms: C_28  and  O_29
REMARK   18  A    between atoms: O_29  and  C_30
REMARK                            x       y       z     vdW  Elec       q    Type
REMARK                         _______ _______ _______ _____ _____    ______ ____
ROOT
ATOM      1  O   UNL     1       3.069   7.608  17.396  0.00  0.00    +0.000 OA
ENDROOT
BRANCH   1   2
ATOM      2  C   UNL     1       2.508   8.481  18.376  0.00  0.00    +0.000 C 
BRANCH   2   3
ATOM      3  C   UNL     1       1.472   9.469  17.823  0.00  0.00    +0.000 C 
BRANCH   3   4
ATOM      4  O   UNL     1       2.145  10.658  17.402  0.00  0.00    +0.000 OA
ATOM      5  H   UNL     1       1.971  10.778  16.453  0.00  0.00    +0.000 HD
ENDBRANCH   3   4
BRANCH   3   6
ATOM      6  C   UNL     1       0.379   9.758  18.884  0.00  0.00    +0.000 C 
BRANCH   6   7
ATOM      7  N   UNL     1       0.860   9.841  20.282  0.00  0.00    +0.000 NA
ATOM      8  C   UNL     1       0.040   8.948  21.115  0.00  0.00    +0.000 C 
BRANCH   7   9
ATOM      9  C   UNL     1       0.791  11.229  20.780  0.00  0.00    +0.000 C 
BRANCH   9  13
ATOM     10  C   UNL     1      -3.087  12.561  22.131  0.00  0.00    +0.000 A 
ATOM     11  C   UNL     1      -2.175  12.029  23.040  0.00  0.00    +0.000 A 
ATOM     12  C   UNL     1      -0.924  11.585  22.605  0.00  0.00    +0.000 A 
ATOM     13  C   UNL     1      -0.585  11.648  21.245  0.00  0.00    +0.000 A 
ATOM     14  C   UNL     1      -1.524  12.139  20.332  0.00  0.00    +0.000 A 
ATOM     15  C   UNL     1      -2.776  12.579  20.768  0.00  0.00    +0.000 A 
BRANCH  10  16
ATOM     16  O   UNL     1      -4.256  13.025  22.670  0.00  0.00    +0.000 OA
BRANCH  16  18
ATOM     17  C   UNL     1      -4.322  14.957  24.061  0.00  0.00    +0.000 C 
ATOM     18  C   UNL     1      -4.169  13.448  24.030  0.00  0.00    +0.000 C 
ENDBRANCH  16  18
ENDBRANCH  10  16
ENDBRANCH   9  13
ENDBRANCH   7   9
ENDBRANCH   6   7
ENDBRANCH   3   6
ENDBRANCH   2   3
ENDBRANCH   1   2
BRANCH   1  19
ATOM     19  C   UNL     1       3.868   6.524  17.903  0.00  0.00    +0.000 C 
BRANCH  19  20
ATOM     20  C   UNL     1       3.015   5.568  18.718  0.00  0.00    +0.000 A 
ATOM     21  C   UNL     1       3.220   5.425  20.097  0.00  0.00    +0.000 A 
ATOM     22  C   UNL     1       2.443   4.533  20.835  0.00  0.00    +0.000 A 
ATOM     23  C   UNL     1       1.444   3.783  20.215  0.00  0.00    +0.000 A 
ATOM     24  C   UNL     1       1.258   3.889  18.837  0.00  0.00    +0.000 A 
ATOM     25  C   UNL     1       2.035   4.781  18.093  0.00  0.00    +0.000 A 
BRANCH  23  26
ATOM     26  O   UNL     1       0.738   2.949  21.038  0.00  0.00    +0.000 OA
ATOM     27  C   UNL     1       1.519   2.250  22.001  0.00  0.00    +0.000 C 
ENDBRANCH  23  26
ENDBRANCH  19  20
BRANCH  19  28
ATOM     28  C   UNL     1       4.613   5.845  16.754  0.00  0.00    +0.000 A 
ATOM     29  C   UNL     1       4.971   6.543  15.591  0.00  0.00    +0.000 A 
ATOM     30  C   UNL     1       5.694   5.916  14.573  0.00  0.00    +0.000 A 
ATOM     31  C   UNL     1       6.092   4.586  14.702  0.00  0.00    +0.000 A 
ATOM     32  C   UNL     1       5.729   3.871  15.842  0.00  0.00    +0.000 A 
ATOM     33  C   UNL     1       5.002   4.497  16.861  0.00  0.00    +0.000 A 
BRANCH  31  34
ATOM     34  O   UNL     1       6.790   4.082  13.640  0.00  0.00    +0.000 OA
ATOM     35  C   UNL     1       7.657   5.002  12.987  0.00  0.00    +0.000 C 
ENDBRANCH  31  34
ENDBRANCH  19  28
ENDBRANCH   1  19
TORSDOF 14
ENDMDL
MODEL 8
REMARK VINA RESULT:      -6.4      2.604     10.319
REMARK  Name = 
REMARK  18 active torsions:
REMARK  status: ('A' for Active; 'I' for Inactive)
REMARK    1  A    between atoms: C_1  and  C_2
REMARK    2  A    between atoms: C_2  and  O_3
REMARK    3  A    between atoms: O_3  and  C_4
REMARK    4  A    between atoms: C_7  and  C_8
REMARK    5  A    between atoms: C_8  and  N_9
REMARK    6  A    between atoms: N_9  and  C_10
REMARK    7  A    between atoms: N_9  and  C_11
REMARK    8  A    between atoms: C_11  and  C_12
REMARK    9  A    between atoms: C_12  and  O_13
REMARK   10  A    between atoms: C_12  and  C_14
REMARK   11  A    between atoms: C_14  and  O_15
REMARK   12  A    between atoms: O_15  and  C_16
REMARK   13  A    between atoms: C_16  and  C_17
REMARK   14  A    between atoms: C_16  and  C_25
REMARK   15  A    between atoms: C_20  and  O_21
REMARK   16  A    between atoms: O_21  and  C_22
REMARK   17  A    between atoms: C_28  and  O_29
REMARK   18  A    between atoms: O_29  and  C_30
REMARK                            x       y       z     vdW  Elec       q    Type
REMARK                         _______ _______ _______ _____ _____    ______ ____
ROOT
ATOM      1  O   UNL     1       2.897   7.880  17.661  0.00  0.00    +0.000 OA
ENDROOT
BRANCH   1   2
ATOM      2  C   UNL     1       2.060   8.685  18.492  0.00  0.00    +0.000 C 
BRANCH   2   3
ATOM      3  C   UNL     1       1.301   9.788  17.743  0.00  0.00    +0.000 C 
BRANCH   3   4
ATOM      4  O   UNL     1       2.227  10.809  17.359  0.00  0.00    +0.000 OA
ATOM      5  H   UNL     1       2.691  10.503  16.560  0.00  0.00    +0.000 HD
ENDBRANCH   3   4
BRANCH   3   6
ATOM      6  C   UNL     1       0.148  10.343  18.619  0.00  0.00    +0.000 C 
BRANCH   6   7
ATOM      7  N   UNL     1       0.460  11.583  19.366  0.00  0.00    +0.000 NA
ATOM      8  C   UNL     1       0.299  11.320  20.804  0.00  0.00    +0.000 C 
BRANCH   7   9
ATOM      9  C   UNL     1      -0.416  12.690  18.936  0.00  0.00    +0.000 C 
BRANCH   9  13
ATOM     10  C   UNL     1       1.601  16.507  18.822  0.00  0.00    +0.000 A 
ATOM     11  C   UNL     1       0.219  16.451  18.987  0.00  0.00    +0.000 A 
ATOM     12  C   UNL     1      -0.439  15.219  19.011  0.00  0.00    +0.000 A 
ATOM     13  C   UNL     1       0.283  14.028  18.846  0.00  0.00    +0.000 A 
ATOM     14  C   UNL     1       1.665  14.094  18.633  0.00  0.00    +0.000 A 
ATOM     15  C   UNL     1       2.320  15.327  18.605  0.00  0.00    +0.000 A 
BRANCH  10  16
ATOM     16  O   UNL     1       2.153  17.757  18.877  0.00  0.00    +0.000 OA
BRANCH  16  18
ATOM     17  C   UNL     1       2.785  18.218  21.127  0.00  0.00    +0.000 C 
ATOM     18  C   UNL     1       1.792  18.528  20.023  0.00  0.00    +0.000 C 
ENDBRANCH  16  18
ENDBRANCH  10  16
ENDBRANCH   9  13
ENDBRANCH   7   9
ENDBRANCH   6   7
ENDBRANCH   3   6
ENDBRANCH   2   3
ENDBRANCH   1   2
BRANCH   1  19
ATOM     19  C   UNL     1       3.749   6.945  18.345  0.00  0.00    +0.000 C 
BRANCH  19  20
ATOM     20  C   UNL     1       2.928   5.832  18.971  0.00  0.00    +0.000 A 
ATOM     21  C   UNL     1       2.944   5.620  20.356  0.00  0.00    +0.000 A 
ATOM     22  C   UNL     1       2.199   4.585  20.920  0.00  0.00    +0.000 A 
ATOM     23  C   UNL     1       1.418   3.756  20.116  0.00  0.00    +0.000 A 
ATOM     24  C   UNL     1       1.424   3.933  18.732  0.00  0.00    +0.000 A 
ATOM     25  C   UNL     1       2.171   4.968  18.162  0.00  0.00    +0.000 A 
BRANCH  23  26
ATOM     26  O   UNL     1       0.722   2.782  20.777  0.00  0.00    +0.000 OA
ATOM     27  C   UNL     1       1.332   2.313  21.974  0.00  0.00    +0.000 C 
ENDBRANCH  23  26
ENDBRANCH  19  20
BRANCH  19  28
ATOM     28  C   UNL     1       4.835   6.439  17.396  0.00  0.00    +0.000 A 
ATOM     29  C   UNL     1       6.008   5.834  17.873  0.00  0.00    +0.000 A 
ATOM     30  C   UNL     1       6.967   5.336  16.988  0.00  0.00    +0.000 A 
ATOM     31  C   UNL     1       6.769   5.413  15.610  0.00  0.00    +0.000 A 
ATOM     32  C   UNL     1       5.619   6.027  15.119  0.00  0.00    +0.000 A 
ATOM     33  C   UNL     1       4.659   6.530  16.004  0.00  0.00    +0.000 A 
BRANCH  31  34
ATOM     34  O   UNL     1       7.778   4.894  14.847  0.00  0.00    +0.000 OA
ATOM     35  C   UNL     1       7.628   5.061  13.442  0.00  0.00    +0.000 C 
ENDBRANCH  31  34
ENDBRANCH  19  28
ENDBRANCH   1  19
TORSDOF 14
ENDMDL
MODEL 9
REMARK VINA RESULT:      -6.4      2.719      9.996
REMARK  Name = 
REMARK  18 active torsions:
REMARK  status: ('A' for Active; 'I' for Inactive)
REMARK    1  A    between atoms: C_1  and  C_2
REMARK    2  A    between atoms: C_2  and  O_3
REMARK    3  A    between atoms: O_3  and  C_4
REMARK    4  A    between atoms: C_7  and  C_8
REMARK    5  A    between atoms: C_8  and  N_9
REMARK    6  A    between atoms: N_9  and  C_10
REMARK    7  A    between atoms: N_9  and  C_11
REMARK    8  A    between atoms: C_11  and  C_12
REMARK    9  A    between atoms: C_12  and  O_13
REMARK   10  A    between atoms: C_12  and  C_14
REMARK   11  A    between atoms: C_14  and  O_15
REMARK   12  A    between atoms: O_15  and  C_16
REMARK   13  A    between atoms: C_16  and  C_17
REMARK   14  A    between atoms: C_16  and  C_25
REMARK   15  A    between atoms: C_20  and  O_21
REMARK   16  A    between atoms: O_21  and  C_22
REMARK   17  A    between atoms: C_28  and  O_29
REMARK   18  A    between atoms: O_29  and  C_30
REMARK                            x       y       z     vdW  Elec       q    Type
REMARK                         _______ _______ _______ _____ _____    ______ ____
ROOT
ATOM      1  O   UNL     1       2.915   7.431  17.408  0.00  0.00    +0.000 OA
ENDROOT
BRANCH   1   2
ATOM      2  C   UNL     1       2.309   8.271  18.390  0.00  0.00    +0.000 C 
BRANCH   2   3
ATOM      3  C   UNL     1       1.455   9.407  17.811  0.00  0.00    +0.000 C 
BRANCH   3   4
ATOM      4  O   UNL     1       2.316  10.354  17.172  0.00  0.00    +0.000 OA
ATOM      5  H   UNL     1       2.140  11.226  17.563  0.00  0.00    +0.000 HD
ENDBRANCH   3   4
BRANCH   3   6
ATOM      6  C   UNL     1       0.591  10.056  18.922  0.00  0.00    +0.000 C 
BRANCH   6   7
ATOM      7  N   UNL     1       1.131  11.313  19.490  0.00  0.00    +0.000 NA
ATOM      8  C   UNL     1       0.926  11.298  20.946  0.00  0.00    +0.000 C 
BRANCH   7   9
ATOM      9  C   UNL     1       0.476  12.488  18.882  0.00  0.00    +0.000 C 
BRANCH   9  13
ATOM     10  C   UNL     1       3.022  15.976  18.900  0.00  0.00    +0.000 A 
ATOM     11  C   UNL     1       1.802  15.997  19.573  0.00  0.00    +0.000 A 
ATOM     12  C   UNL     1       0.969  14.875  19.559  0.00  0.00    +0.000 A 
ATOM     13  C   UNL     1       1.343  13.727  18.847  0.00  0.00    +0.000 A 
ATOM     14  C   UNL     1       2.548  13.729  18.134  0.00  0.00    +0.000 A 
ATOM     15  C   UNL     1       3.377  14.853  18.146  0.00  0.00    +0.000 A 
BRANCH  10  16
ATOM     16  O   UNL     1       3.789  17.101  19.031  0.00  0.00    +0.000 OA
BRANCH  16  18
ATOM     17  C   UNL     1       5.643  17.958  20.256  0.00  0.00    +0.000 C 
ATOM     18  C   UNL     1       5.166  16.864  19.320  0.00  0.00    +0.000 C 
ENDBRANCH  16  18
ENDBRANCH  10  16
ENDBRANCH   9  13
ENDBRANCH   7   9
ENDBRANCH   6   7
ENDBRANCH   3   6
ENDBRANCH   2   3
ENDBRANCH   1   2
BRANCH   1  19
ATOM     19  C   UNL     1       3.778   6.397  17.911  0.00  0.00    +0.000 C 
BRANCH  19  20
ATOM     20  C   UNL     1       2.979   5.366  18.689  0.00  0.00    +0.000 A 
ATOM     21  C   UNL     1       3.320   5.043  20.010  0.00  0.00    +0.000 A 
ATOM     22  C   UNL     1       2.591   4.084  20.711  0.00  0.00    +0.000 A 
ATOM     23  C   UNL     1       1.505   3.444  20.115  0.00  0.00    +0.000 A 
ATOM     24  C   UNL     1       1.180   3.730  18.789  0.00  0.00    +0.000 A 
ATOM     25  C   UNL     1       1.910   4.689  18.081  0.00  0.00    +0.000 A 
BRANCH  23  26
ATOM     26  O   UNL     1       0.857   2.530  20.899  0.00  0.00    +0.000 OA
ATOM     27  C   UNL     1       1.392   2.373  22.208  0.00  0.00    +0.000 C 
ENDBRANCH  23  26
ENDBRANCH  19  20
BRANCH  19  28
ATOM     28  C   UNL     1       4.593   5.795  16.767  0.00  0.00    +0.000 A 
ATOM     29  C   UNL     1       5.024   6.572  15.681  0.00  0.00    +0.000 A 
ATOM     30  C   UNL     1       5.809   6.014  14.669  0.00  0.00    +0.000 A 
ATOM     31  C   UNL     1       6.196   4.676  14.727  0.00  0.00    +0.000 A 
ATOM     32  C   UNL     1       5.762   3.885  15.789  0.00  0.00    +0.000 A 
ATOM     33  C   UNL     1       4.973   4.441  16.802  0.00  0.00    +0.000 A 
BRANCH  31  34
ATOM     34  O   UNL     1       6.960   4.244  13.678  0.00  0.00    +0.000 OA
ATOM     35  C   UNL     1       6.260   3.524  12.670  0.00  0.00    +0.000 C 
ENDBRANCH  31  34
ENDBRANCH  19  28
ENDBRANCH   1  19
TORSDOF 14
ENDMDL
