MODEL 1
REMARK VINA RESULT:      -9.0      0.000      0.000
REMARK  Name = 
REMARK  9 active torsions:
REMARK  status: ('A' for Active; 'I' for Inactive)
REMARK    1  A    between atoms: C_1  and  C_2
REMARK    2  A    between atoms: C_2  and  C_3
REMARK    3  A    between atoms: C_3  and  C_4
REMARK    4  A    between atoms: C_4  and  C_5
REMARK    5  A    between atoms: C_11  and  O_12
REMARK    6  A    between atoms: N_14  and  C_15
REMARK    7  A    between atoms: C_15  and  C_16
REMARK    8  A    between atoms: C_19  and  C_20
REMARK    9  A    between atoms: C_25  and  C_26
REMARK                            x       y       z     vdW  Elec       q    Type
REMARK                         _______ _______ _______ _____ _____    ______ ____
ROOT
ATOM      1  C   UNL     1       3.047   7.185  18.945  0.00  0.00    +0.000 A 
ATOM      2  C   UNL     1       2.953   7.922  17.761  0.00  0.00    +0.000 A 
ATOM      3  C   UNL     1       1.977   8.926  17.609  0.00  0.00    +0.000 A 
ATOM      4  C   UNL     1       1.090   9.255  18.645  0.00  0.00    +0.000 A 
ATOM      5  C   UNL     1       1.229   8.522  19.843  0.00  0.00    +0.000 A 
ATOM      6  C   UNL     1       2.172   7.494  19.989  0.00  0.00    +0.000 A 
ENDROOT
BRANCH   4   7
ATOM      7  C   UNL     1      -0.017  10.251  18.488  0.00  0.00    +0.000 A 
ATOM      8  C   UNL     1      -1.209   9.799  17.859  0.00  0.00    +0.000 A 
ATOM      9  C   UNL     1      -2.313  10.626  17.630  0.00  0.00    +0.000 A 
ATOM     10  C   UNL     1      -2.252  11.959  17.984  0.00  0.00    +0.000 A 
ATOM     11  C   UNL     1      -1.097  12.449  18.591  0.00  0.00    +0.000 A 
ATOM     12  C   UNL     1       0.016  11.619  18.877  0.00  0.00    +0.000 A 
BRANCH  12  13
ATOM     13  C   UNL     1       1.111  12.251  19.614  0.00  0.00    +0.000 A 
ATOM     14  N   UNL     1       1.210  12.272  20.987  0.00  0.00    +0.000 NA
ATOM     15  N   UNL     1       2.280  12.994  21.289  0.00  0.00    +0.000 NA
ATOM     16  N   UNL     1       2.751  13.409  20.111  0.00  0.00    +0.000 N 
ATOM     17  N   UNL     1       2.087  12.973  19.031  0.00  0.00    +0.000 NA
ATOM     18  H   UNL     1       3.554  14.027  20.041  0.00  0.00    +0.000 HD
ENDBRANCH  12  13
ENDBRANCH   4   7
BRANCH   1  19
ATOM     19  C   UNL     1       3.984   6.012  19.052  0.00  0.00    +0.000 C 
BRANCH  19  28
ATOM     20  C   UNL     1       3.412   4.052  17.423  0.00  0.00    +0.000 A 
ATOM     21  N   UNL     1       4.000   3.518  16.364  0.00  0.00    +0.000 NA
ATOM     22  C   UNL     1       5.171   4.196  16.173  0.00  0.00    +0.000 A 
ATOM     23  C   UNL     1       6.168   4.022  15.216  0.00  0.00    +0.000 A 
ATOM     24  N   UNL     1       7.262   4.818  15.262  0.00  0.00    +0.000 NA
ATOM     25  N   UNL     1       7.396   5.785  16.235  0.00  0.00    +0.000 NA
ATOM     26  C   UNL     1       6.441   5.974  17.161  0.00  0.00    +0.000 A 
ATOM     27  C   UNL     1       5.310   5.182  17.137  0.00  0.00    +0.000 A 
ATOM     28  N   UNL     1       4.163   5.100  17.919  0.00  0.00    +0.000 N 
BRANCH  26  29
ATOM     29  O   UNL     1       6.678   6.946  18.090  0.00  0.00    +0.000 OA
ATOM     30  H   UNL     1       7.483   7.357  17.721  0.00  0.00    +0.000 HD
ENDBRANCH  26  29
BRANCH  20  31
ATOM     31  C   UNL     1       2.126   3.500  17.956  0.00  0.00    +0.000 C 
BRANCH  31  32
ATOM     32  C   UNL     1       2.318   2.434  19.037  0.00  0.00    +0.000 C 
BRANCH  32  34
ATOM     33  C   UNL     1       0.998   4.095  20.403  0.00  0.00    +0.000 C 
ATOM     34  C   UNL     1       1.434   2.644  20.270  0.00  0.00    +0.000 C 
ENDBRANCH  32  34
ENDBRANCH  31  32
ENDBRANCH  20  31
ENDBRANCH  19  28
ENDBRANCH   1  19
TORSDOF 8
ENDMDL
MODEL 2
REMARK VINA RESULT:      -8.8      2.534      8.666
REMARK  Name = 
REMARK  9 active torsions:
REMARK  status: ('A' for Active; 'I' for Inactive)
REMARK    1  A    between atoms: C_1  and  C_2
REMARK    2  A    between atoms: C_2  and  C_3
REMARK    3  A    between atoms: C_3  and  C_4
REMARK    4  A    between atoms: C_4  and  C_5
REMARK    5  A    between atoms: C_11  and  O_12
REMARK    6  A    between atoms: N_14  and  C_15
REMARK    7  A    between atoms: C_15  and  C_16
REMARK    8  A    between atoms: C_19  and  C_20
REMARK    9  A    between atoms: C_25  and  C_26
REMARK                            x       y       z     vdW  Elec       q    Type
REMARK                         _______ _______ _______ _____ _____    ______ ____
ROOT
ATOM      1  C   UNL     1       1.258   8.988  19.475  0.00  0.00    +0.000 A 
ATOM      2  C   UNL     1       1.681   7.845  20.160  0.00  0.00    +0.000 A 
ATOM      3  C   UNL     1       2.537   6.910  19.546  0.00  0.00    +0.000 A 
ATOM      4  C   UNL     1       3.031   7.105  18.248  0.00  0.00    +0.000 A 
ATOM      5  C   UNL     1       2.618   8.283  17.591  0.00  0.00    +0.000 A 
ATOM      6  C   UNL     1       1.734   9.200  18.180  0.00  0.00    +0.000 A 
ENDROOT
BRANCH   4   7
ATOM      7  C   UNL     1       3.869   6.090  17.532  0.00  0.00    +0.000 A 
ATOM      8  C   UNL     1       5.003   6.572  16.822  0.00  0.00    +0.000 A 
ATOM      9  C   UNL     1       5.859   5.740  16.095  0.00  0.00    +0.000 A 
ATOM     10  C   UNL     1       5.589   4.388  16.011  0.00  0.00    +0.000 A 
ATOM     11  C   UNL     1       4.479   3.874  16.679  0.00  0.00    +0.000 A 
ATOM     12  C   UNL     1       3.624   4.690  17.463  0.00  0.00    +0.000 A 
BRANCH  12  13
ATOM     13  C   UNL     1       2.565   3.991  18.191  0.00  0.00    +0.000 A 
ATOM     14  N   UNL     1       2.753   3.328  19.383  0.00  0.00    +0.000 NA
ATOM     15  N   UNL     1       1.599   2.756  19.696  0.00  0.00    +0.000 NA
ATOM     16  N   UNL     1       0.787   3.055  18.680  0.00  0.00    +0.000 N 
ATOM     17  N   UNL     1       1.313   3.830  17.721  0.00  0.00    +0.000 NA
ATOM     18  H   UNL     1      -0.165   2.704  18.631  0.00  0.00    +0.000 HD
ENDBRANCH  12  13
ENDBRANCH   4   7
BRANCH   1  19
ATOM     19  C   UNL     1       0.223   9.906  20.070  0.00  0.00    +0.000 C 
BRANCH  19  28
ATOM     20  C   UNL     1      -1.184  11.127  18.239  0.00  0.00    +0.000 A 
ATOM     21  N   UNL     1      -1.339  12.389  17.871  0.00  0.00    +0.000 NA
ATOM     22  C   UNL     1      -0.524  13.142  18.668  0.00  0.00    +0.000 A 
ATOM     23  C   UNL     1      -0.295  14.516  18.683  0.00  0.00    +0.000 A 
ATOM     24  N   UNL     1       0.599  15.018  19.567  0.00  0.00    +0.000 NA
ATOM     25  N   UNL     1       1.275  14.193  20.440  0.00  0.00    +0.000 NA
ATOM     26  C   UNL     1       1.061  12.866  20.447  0.00  0.00    +0.000 A 
ATOM     27  C   UNL     1       0.151  12.325  19.561  0.00  0.00    +0.000 A 
ATOM     28  N   UNL     1      -0.299  11.035  19.297  0.00  0.00    +0.000 N 
BRANCH  26  29
ATOM     29  O   UNL     1       1.794  12.137  21.338  0.00  0.00    +0.000 OA
ATOM     30  H   UNL     1       2.058  11.381  20.781  0.00  0.00    +0.000 HD
ENDBRANCH  26  29
BRANCH  20  31
ATOM     31  C   UNL     1      -1.888  10.018  17.522  0.00  0.00    +0.000 C 
BRANCH  31  32
ATOM     32  C   UNL     1      -3.409  10.185  17.478  0.00  0.00    +0.000 C 
BRANCH  32  34
ATOM     33  C   UNL     1      -2.938  10.353  15.005  0.00  0.00    +0.000 C 
ATOM     34  C   UNL     1      -3.937  10.640  16.115  0.00  0.00    +0.000 C 
ENDBRANCH  32  34
ENDBRANCH  31  32
ENDBRANCH  20  31
ENDBRANCH  19  28
ENDBRANCH   1  19
TORSDOF 8
ENDMDL
MODEL 3
REMARK VINA RESULT:      -8.8      2.517      8.610
REMARK  Name = 
REMARK  9 active torsions:
REMARK  status: ('A' for Active; 'I' for Inactive)
REMARK    1  A    between atoms: C_1  and  C_2
REMARK    2  A    between atoms: C_2  and  C_3
REMARK    3  A    between atoms: C_3  and  C_4
REMARK    4  A    between atoms: C_4  and  C_5
REMARK    5  A    between atoms: C_11  and  O_12
REMARK    6  A    between atoms: N_14  and  C_15
REMARK    7  A    between atoms: C_15  and  C_16
REMARK    8  A    between atoms: C_19  and  C_20
REMARK    9  A    between atoms: C_25  and  C_26
REMARK                            x       y       z     vdW  Elec       q    Type
REMARK                         _______ _______ _______ _____ _____    ______ ____
ROOT
ATOM      1  C   UNL     1       1.168   9.002  19.596  0.00  0.00    +0.000 A 
ATOM      2  C   UNL     1       1.511   9.167  18.251  0.00  0.00    +0.000 A 
ATOM      3  C   UNL     1       2.367   8.254  17.605  0.00  0.00    +0.000 A 
ATOM      4  C   UNL     1       2.876   7.126  18.266  0.00  0.00    +0.000 A 
ATOM      5  C   UNL     1       2.487   6.962  19.612  0.00  0.00    +0.000 A 
ATOM      6  C   UNL     1       1.667   7.888  20.275  0.00  0.00    +0.000 A 
ENDROOT
BRANCH   4   7
ATOM      7  C   UNL     1       3.858   6.186  17.639  0.00  0.00    +0.000 A 
ATOM      8  C   UNL     1       5.043   6.755  17.096  0.00  0.00    +0.000 A 
ATOM      9  C   UNL     1       6.035   5.999  16.465  0.00  0.00    +0.000 A 
ATOM     10  C   UNL     1       5.861   4.637  16.312  0.00  0.00    +0.000 A 
ATOM     11  C   UNL     1       4.708   4.038  16.816  0.00  0.00    +0.000 A 
ATOM     12  C   UNL     1       3.710   4.778  17.502  0.00  0.00    +0.000 A 
BRANCH  12  13
ATOM     13  C   UNL     1       2.611   3.995  18.068  0.00  0.00    +0.000 A 
ATOM     14  N   UNL     1       1.354   3.913  17.515  0.00  0.00    +0.000 NA
ATOM     15  N   UNL     1       0.613   3.186  18.340  0.00  0.00    +0.000 NA
ATOM     16  N   UNL     1       1.424   2.900  19.360  0.00  0.00    +0.000 N 
ATOM     17  N   UNL     1       2.681   3.354  19.251  0.00  0.00    +0.000 NA
ATOM     18  H   UNL     1       1.104   2.382  20.173  0.00  0.00    +0.000 HD
ENDBRANCH  12  13
ENDBRANCH   4   7
BRANCH   1  19
ATOM     19  C   UNL     1       0.382  10.056  20.328  0.00  0.00    +0.000 C 
BRANCH  19  28
ATOM     20  C   UNL     1      -1.289  11.235  18.703  0.00  0.00    +0.000 A 
ATOM     21  N   UNL     1      -1.470  12.482  18.295  0.00  0.00    +0.000 NA
ATOM     22  C   UNL     1      -0.507  13.243  18.895  0.00  0.00    +0.000 A 
ATOM     23  C   UNL     1      -0.240  14.606  18.792  0.00  0.00    +0.000 A 
ATOM     24  N   UNL     1       0.809  15.119  19.477  0.00  0.00    +0.000 NA
ATOM     25  N   UNL     1       1.604  14.314  20.265  0.00  0.00    +0.000 NA
ATOM     26  C   UNL     1       1.357  12.999  20.384  0.00  0.00    +0.000 A 
ATOM     27  C   UNL     1       0.291  12.447  19.702  0.00  0.00    +0.000 A 
ATOM     28  N   UNL     1      -0.235  11.164  19.594  0.00  0.00    +0.000 N 
BRANCH  26  29
ATOM     29  O   UNL     1       2.214  12.289  21.175  0.00  0.00    +0.000 OA
ATOM     30  H   UNL     1       2.691  13.013  21.622  0.00  0.00    +0.000 HD
ENDBRANCH  26  29
BRANCH  20  31
ATOM     31  C   UNL     1      -2.139  10.118  18.183  0.00  0.00    +0.000 C 
BRANCH  31  32
ATOM     32  C   UNL     1      -2.027   9.916  16.669  0.00  0.00    +0.000 C 
BRANCH  32  34
ATOM     33  C   UNL     1      -3.120  10.120  14.404  0.00  0.00    +0.000 C 
ATOM     34  C   UNL     1      -3.302  10.285  15.905  0.00  0.00    +0.000 C 
ENDBRANCH  32  34
ENDBRANCH  31  32
ENDBRANCH  20  31
ENDBRANCH  19  28
ENDBRANCH   1  19
TORSDOF 8
ENDMDL
MODEL 4
REMARK VINA RESULT:      -8.7      2.348      4.215
REMARK  Name = 
REMARK  9 active torsions:
REMARK  status: ('A' for Active; 'I' for Inactive)
REMARK    1  A    between atoms: C_1  and  C_2
REMARK    2  A    between atoms: C_2  and  C_3
REMARK    3  A    between atoms: C_3  and  C_4
REMARK    4  A    between atoms: C_4  and  C_5
REMARK    5  A    between atoms: C_11  and  O_12
REMARK    6  A    between atoms: N_14  and  C_15
REMARK    7  A    between atoms: C_15  and  C_16
REMARK    8  A    between atoms: C_19  and  C_20
REMARK    9  A    between atoms: C_25  and  C_26
REMARK                            x       y       z     vdW  Elec       q    Type
REMARK                         _______ _______ _______ _____ _____    ______ ____
ROOT
ATOM      1  C   UNL     1       2.574   7.334  18.567  0.00  0.00    +0.000 A 
ATOM      2  C   UNL     1       2.322   7.019  19.905  0.00  0.00    +0.000 A 
ATOM      3  C   UNL     1       1.589   7.894  20.729  0.00  0.00    +0.000 A 
ATOM      4  C   UNL     1       1.049   9.091  20.236  0.00  0.00    +0.000 A 
ATOM      5  C   UNL     1       1.285   9.370  18.873  0.00  0.00    +0.000 A 
ATOM      6  C   UNL     1       2.048   8.522  18.056  0.00  0.00    +0.000 A 
ENDROOT
BRANCH   4   7
ATOM      7  C   UNL     1       0.343  10.088  21.103  0.00  0.00    +0.000 A 
ATOM      8  C   UNL     1      -0.309   9.588  22.264  0.00  0.00    +0.000 A 
ATOM      9  C   UNL     1      -1.022  10.402  23.150  0.00  0.00    +0.000 A 
ATOM     10  C   UNL     1      -1.147  11.751  22.886  0.00  0.00    +0.000 A 
ATOM     11  C   UNL     1      -0.537  12.283  21.752  0.00  0.00    +0.000 A 
ATOM     12  C   UNL     1       0.231  11.486  20.864  0.00  0.00    +0.000 A 
BRANCH  12  13
ATOM     13  C   UNL     1       0.901  12.203  19.779  0.00  0.00    +0.000 A 
ATOM     14  N   UNL     1       2.180  12.707  19.857  0.00  0.00    +0.000 NA
ATOM     15  N   UNL     1       2.412  13.354  18.723  0.00  0.00    +0.000 NA
ATOM     16  N   UNL     1       1.272  13.255  18.038  0.00  0.00    +0.000 N 
ATOM     17  N   UNL     1       0.298  12.542  18.623  0.00  0.00    +0.000 NA
ATOM     18  H   UNL     1       1.146  13.704  17.135  0.00  0.00    +0.000 HD
ENDBRANCH  12  13
ENDBRANCH   4   7
BRANCH   1  19
ATOM     19  C   UNL     1       3.485   6.477  17.730  0.00  0.00    +0.000 C 
BRANCH  19  28
ATOM     20  C   UNL     1       5.332   4.978  18.809  0.00  0.00    +0.000 A 
ATOM     21  N   UNL     1       5.399   3.712  19.192  0.00  0.00    +0.000 NA
ATOM     22  C   UNL     1       4.195   3.140  18.895  0.00  0.00    +0.000 A 
ATOM     23  C   UNL     1       3.748   1.832  19.073  0.00  0.00    +0.000 A 
ATOM     24  N   UNL     1       2.501   1.507  18.660  0.00  0.00    +0.000 NA
ATOM     25  N   UNL     1       1.680   2.446  18.072  0.00  0.00    +0.000 NA
ATOM     26  C   UNL     1       2.089   3.714  17.900  0.00  0.00    +0.000 A 
ATOM     27  C   UNL     1       3.354   4.078  18.317  0.00  0.00    +0.000 A 
ATOM     28  N   UNL     1       4.083   5.263  18.291  0.00  0.00    +0.000 N 
BRANCH  26  29
ATOM     29  O   UNL     1       1.207   4.561  17.294  0.00  0.00    +0.000 OA
ATOM     30  H   UNL     1       1.815   5.241  16.949  0.00  0.00    +0.000 HD
ENDBRANCH  26  29
BRANCH  20  31
ATOM     31  C   UNL     1       6.514   5.888  18.930  0.00  0.00    +0.000 C 
BRANCH  31  32
ATOM     32  C   UNL     1       7.241   6.128  17.604  0.00  0.00    +0.000 C 
BRANCH  32  34
ATOM     33  C   UNL     1       8.251   8.361  18.207  0.00  0.00    +0.000 C 
ATOM     34  C   UNL     1       7.360   7.609  17.230  0.00  0.00    +0.000 C 
ENDBRANCH  32  34
ENDBRANCH  31  32
ENDBRANCH  20  31
ENDBRANCH  19  28
ENDBRANCH   1  19
TORSDOF 8
ENDMDL
MODEL 5
REMARK VINA RESULT:      -8.6      2.698      4.405
REMARK  Name = 
REMARK  9 active torsions:
REMARK  status: ('A' for Active; 'I' for Inactive)
REMARK    1  A    between atoms: C_1  and  C_2
REMARK    2  A    between atoms: C_2  and  C_3
REMARK    3  A    between atoms: C_3  and  C_4
REMARK    4  A    between atoms: C_4  and  C_5
REMARK    5  A    between atoms: C_11  and  O_12
REMARK    6  A    between atoms: N_14  and  C_15
REMARK    7  A    between atoms: C_15  and  C_16
REMARK    8  A    between atoms: C_19  and  C_20
REMARK    9  A    between atoms: C_25  and  C_26
REMARK                            x       y       z     vdW  Elec       q    Type
REMARK                         _______ _______ _______ _____ _____    ______ ____
ROOT
ATOM      1  C   UNL     1       2.586   7.577  18.360  0.00  0.00    +0.000 A 
ATOM      2  C   UNL     1       2.185   8.776  17.764  0.00  0.00    +0.000 A 
ATOM      3  C   UNL     1       1.357   9.685  18.452  0.00  0.00    +0.000 A 
ATOM      4  C   UNL     1       0.936   9.447  19.769  0.00  0.00    +0.000 A 
ATOM      5  C   UNL     1       1.383   8.247  20.361  0.00  0.00    +0.000 A 
ATOM      6  C   UNL     1       2.175   7.318  19.669  0.00  0.00    +0.000 A 
ENDROOT
BRANCH   4   7
ATOM      7  C   UNL     1      -0.016  10.345  20.497  0.00  0.00    +0.000 A 
ATOM      8  C   UNL     1       0.237  10.574  21.877  0.00  0.00    +0.000 A 
ATOM      9  C   UNL     1      -0.580  11.372  22.682  0.00  0.00    +0.000 A 
ATOM     10  C   UNL     1      -1.716  11.945  22.145  0.00  0.00    +0.000 A 
ATOM     11  C   UNL     1      -2.012  11.736  20.800  0.00  0.00    +0.000 A 
ATOM     12  C   UNL     1      -1.173  10.969  19.952  0.00  0.00    +0.000 A 
BRANCH  12  13
ATOM     13  C   UNL     1      -1.556  10.929  18.540  0.00  0.00    +0.000 A 
ATOM     14  N   UNL     1      -1.929   9.786  17.871  0.00  0.00    +0.000 NA
ATOM     15  N   UNL     1      -2.125  10.123  16.604  0.00  0.00    +0.000 NA
ATOM     16  N   UNL     1      -1.827  11.423  16.551  0.00  0.00    +0.000 N 
ATOM     17  N   UNL     1      -1.483  11.991  17.715  0.00  0.00    +0.000 NA
ATOM     18  H   UNL     1      -1.847  11.943  15.678  0.00  0.00    +0.000 HD
ENDBRANCH  12  13
ENDBRANCH   4   7
BRANCH   1  19
ATOM     19  C   UNL     1       3.339   6.538  17.574  0.00  0.00    +0.000 C 
BRANCH  19  28
ATOM     20  C   UNL     1       5.101   5.054  18.805  0.00  0.00    +0.000 A 
ATOM     21  N   UNL     1       5.107   3.820  19.287  0.00  0.00    +0.000 NA
ATOM     22  C   UNL     1       3.884   3.276  19.009  0.00  0.00    +0.000 A 
ATOM     23  C   UNL     1       3.380   2.006  19.279  0.00  0.00    +0.000 A 
ATOM     24  N   UNL     1       2.127   1.701  18.866  0.00  0.00    +0.000 NA
ATOM     25  N   UNL     1       1.358   2.624  18.190  0.00  0.00    +0.000 NA
ATOM     26  C   UNL     1       1.824   3.857  17.928  0.00  0.00    +0.000 A 
ATOM     27  C   UNL     1       3.095   4.200  18.343  0.00  0.00    +0.000 A 
ATOM     28  N   UNL     1       3.875   5.348  18.240  0.00  0.00    +0.000 N 
BRANCH  26  29
ATOM     29  O   UNL     1       0.989   4.688  17.240  0.00  0.00    +0.000 OA
ATOM     30  H   UNL     1       0.195   4.659  17.805  0.00  0.00    +0.000 HD
ENDBRANCH  26  29
BRANCH  20  31
ATOM     31  C   UNL     1       6.318   5.921  18.880  0.00  0.00    +0.000 C 
BRANCH  31  32
ATOM     32  C   UNL     1       7.074   6.033  17.554  0.00  0.00    +0.000 C 
BRANCH  32  34
ATOM     33  C   UNL     1       6.700   4.666  15.466  0.00  0.00    +0.000 C 
ATOM     34  C   UNL     1       7.302   4.685  16.863  0.00  0.00    +0.000 C 
ENDBRANCH  32  34
ENDBRANCH  31  32
ENDBRANCH  20  31
ENDBRANCH  19  28
ENDBRANCH   1  19
TORSDOF 8
ENDMDL
MODEL 6
REMARK VINA RESULT:      -8.6      2.298      4.115
REMARK  Name = 
REMARK  9 active torsions:
REMARK  status: ('A' for Active; 'I' for Inactive)
REMARK    1  A    between atoms: C_1  and  C_2
REMARK    2  A    between atoms: C_2  and  C_3
REMARK    3  A    between atoms: C_3  and  C_4
REMARK    4  A    between atoms: C_4  and  C_5
REMARK    5  A    between atoms: C_11  and  O_12
REMARK    6  A    between atoms: N_14  and  C_15
REMARK    7  A    between atoms: C_15  and  C_16
REMARK    8  A    between atoms: C_19  and  C_20
REMARK    9  A    between atoms: C_25  and  C_26
REMARK                            x       y       z     vdW  Elec       q    Type
REMARK                         _______ _______ _______ _____ _____    ______ ____
ROOT
ATOM      1  C   UNL     1       2.619   7.383  18.498  0.00  0.00    +0.000 A 
ATOM      2  C   UNL     1       2.081   8.578  18.012  0.00  0.00    +0.000 A 
ATOM      3  C   UNL     1       1.323   9.423  18.847  0.00  0.00    +0.000 A 
ATOM      4  C   UNL     1       1.113   9.125  20.201  0.00  0.00    +0.000 A 
ATOM      5  C   UNL     1       1.697   7.932  20.677  0.00  0.00    +0.000 A 
ATOM      6  C   UNL     1       2.419   7.065  19.843  0.00  0.00    +0.000 A 
ENDROOT
BRANCH   4   7
ATOM      7  C   UNL     1       0.240   9.952  21.094  0.00  0.00    +0.000 A 
ATOM      8  C   UNL     1      -0.104   9.397  22.357  0.00  0.00    +0.000 A 
ATOM      9  C   UNL     1      -0.926  10.050  23.280  0.00  0.00    +0.000 A 
ATOM     10  C   UNL     1      -1.478  11.274  22.956  0.00  0.00    +0.000 A 
ATOM     11  C   UNL     1      -1.180  11.849  21.722  0.00  0.00    +0.000 A 
ATOM     12  C   UNL     1      -0.310  11.228  20.790  0.00  0.00    +0.000 A 
BRANCH  12  13
ATOM     13  C   UNL     1      -0.007  12.003  19.586  0.00  0.00    +0.000 A 
ATOM     14  N   UNL     1       1.123  12.771  19.423  0.00  0.00    +0.000 NA
ATOM     15  N   UNL     1       1.014  13.380  18.251  0.00  0.00    +0.000 NA
ATOM     16  N   UNL     1      -0.175  12.997  17.781  0.00  0.00    +0.000 N 
ATOM     17  N   UNL     1      -0.855  12.132  18.546  0.00  0.00    +0.000 NA
ATOM     18  H   UNL     1      -0.546  13.352  16.904  0.00  0.00    +0.000 HD
ENDBRANCH  12  13
ENDBRANCH   4   7
BRANCH   1  19
ATOM     19  C   UNL     1       3.294   6.407  17.572  0.00  0.00    +0.000 C 
BRANCH  19  28
ATOM     20  C   UNL     1       5.241   4.956  18.536  0.00  0.00    +0.000 A 
ATOM     21  N   UNL     1       5.357   3.697  18.932  0.00  0.00    +0.000 NA
ATOM     22  C   UNL     1       4.144   3.102  18.734  0.00  0.00    +0.000 A 
ATOM     23  C   UNL     1       3.734   1.790  18.965  0.00  0.00    +0.000 A 
ATOM     24  N   UNL     1       2.465   1.439  18.650  0.00  0.00    +0.000 NA
ATOM     25  N   UNL     1       1.588   2.354  18.110  0.00  0.00    +0.000 NA
ATOM     26  C   UNL     1       1.961   3.626  17.889  0.00  0.00    +0.000 A 
ATOM     27  C   UNL     1       3.247   4.017  18.205  0.00  0.00    +0.000 A 
ATOM     28  N   UNL     1       3.952   5.212  18.106  0.00  0.00    +0.000 N 
BRANCH  26  29
ATOM     29  O   UNL     1       1.022   4.448  17.336  0.00  0.00    +0.000 OA
ATOM     30  H   UNL     1       0.829   3.972  16.507  0.00  0.00    +0.000 HD
ENDBRANCH  26  29
BRANCH  20  31
ATOM     31  C   UNL     1       6.413   5.886  18.554  0.00  0.00    +0.000 C 
BRANCH  31  32
ATOM     32  C   UNL     1       7.040   6.110  17.176  0.00  0.00    +0.000 C 
BRANCH  32  34
ATOM     33  C   UNL     1       6.401   4.976  15.014  0.00  0.00    +0.000 C 
ATOM     34  C   UNL     1       7.143   4.835  16.334  0.00  0.00    +0.000 C 
ENDBRANCH  32  34
ENDBRANCH  31  32
ENDBRANCH  20  31
ENDBRANCH  19  28
ENDBRANCH   1  19
TORSDOF 8
ENDMDL
MODEL 7
REMARK VINA RESULT:      -8.5      2.304      8.716
REMARK  Name = 
REMARK  9 active torsions:
REMARK  status: ('A' for Active; 'I' for Inactive)
REMARK    1  A    between atoms: C_1  and  C_2
REMARK    2  A    between atoms: C_2  and  C_3
REMARK    3  A    between atoms: C_3  and  C_4
REMARK    4  A    between atoms: C_4  and  C_5
REMARK    5  A    between atoms: C_11  and  O_12
REMARK    6  A    between atoms: N_14  and  C_15
REMARK    7  A    between atoms: C_15  and  C_16
REMARK    8  A    between atoms: C_19  and  C_20
REMARK    9  A    between atoms: C_25  and  C_26
REMARK                            x       y       z     vdW  Elec       q    Type
REMARK                         _______ _______ _______ _____ _____    ______ ____
ROOT
ATOM      1  C   UNL     1       1.612   9.197  19.060  0.00  0.00    +0.000 A 
ATOM      2  C   UNL     1       1.424   8.709  20.356  0.00  0.00    +0.000 A 
ATOM      3  C   UNL     1       1.672   7.357  20.664  0.00  0.00    +0.000 A 
ATOM      4  C   UNL     1       2.154   6.459  19.700  0.00  0.00    +0.000 A 
ATOM      5  C   UNL     1       2.369   6.984  18.408  0.00  0.00    +0.000 A 
ATOM      6  C   UNL     1       2.087   8.319  18.084  0.00  0.00    +0.000 A 
ENDROOT
BRANCH   4   7
ATOM      7  C   UNL     1       2.342   4.997  19.967  0.00  0.00    +0.000 A 
ATOM      8  C   UNL     1       1.263   4.308  20.586  0.00  0.00    +0.000 A 
ATOM      9  C   UNL     1       1.310   2.950  20.911  0.00  0.00    +0.000 A 
ATOM     10  C   UNL     1       2.462   2.229  20.667  0.00  0.00    +0.000 A 
ATOM     11  C   UNL     1       3.551   2.867  20.074  0.00  0.00    +0.000 A 
ATOM     12  C   UNL     1       3.510   4.232  19.692  0.00  0.00    +0.000 A 
BRANCH  12  13
ATOM     13  C   UNL     1       4.688   4.733  18.983  0.00  0.00    +0.000 A 
ATOM     14  N   UNL     1       4.948   4.497  17.652  0.00  0.00    +0.000 NA
ATOM     15  N   UNL     1       6.131   5.034  17.386  0.00  0.00    +0.000 NA
ATOM     16  N   UNL     1       6.549   5.525  18.555  0.00  0.00    +0.000 N 
ATOM     17  N   UNL     1       5.699   5.389  19.583  0.00  0.00    +0.000 NA
ATOM     18  H   UNL     1       7.460   5.962  18.659  0.00  0.00    +0.000 HD
ENDBRANCH  12  13
ENDBRANCH   4   7
BRANCH   1  19
ATOM     19  C   UNL     1       1.201  10.599  18.696  0.00  0.00    +0.000 C 
BRANCH  19  28
ATOM     20  C   UNL     1      -1.386  10.910  18.513  0.00  0.00    +0.000 A 
ATOM     21  N   UNL     1      -2.294  11.590  19.198  0.00  0.00    +0.000 NA
ATOM     22  C   UNL     1      -1.630  12.262  20.184  0.00  0.00    +0.000 A 
ATOM     23  C   UNL     1      -2.108  13.130  21.164  0.00  0.00    +0.000 A 
ATOM     24  N   UNL     1      -1.225  13.699  22.018  0.00  0.00    +0.000 NA
ATOM     25  N   UNL     1       0.123  13.430  21.928  0.00  0.00    +0.000 NA
ATOM     26  C   UNL     1       0.603  12.589  20.996  0.00  0.00    +0.000 A 
ATOM     27  C   UNL     1      -0.274  11.988  20.114  0.00  0.00    +0.000 A 
ATOM     28  N   UNL     1      -0.129  11.098  19.055  0.00  0.00    +0.000 N 
BRANCH  26  29
ATOM     29  O   UNL     1       1.955  12.404  20.982  0.00  0.00    +0.000 OA
ATOM     30  H   UNL     1       2.008  11.469  20.707  0.00  0.00    +0.000 HD
ENDBRANCH  26  29
BRANCH  20  31
ATOM     31  C   UNL     1      -1.766  10.107  17.309  0.00  0.00    +0.000 C 
BRANCH  31  32
ATOM     32  C   UNL     1      -3.276  10.040  17.067  0.00  0.00    +0.000 C 
BRANCH  32  34
ATOM     33  C   UNL     1      -3.115  10.155  14.551  0.00  0.00    +0.000 C 
ATOM     34  C   UNL     1      -3.727  10.772  15.800  0.00  0.00    +0.000 C 
ENDBRANCH  32  34
ENDBRANCH  31  32
ENDBRANCH  20  31
ENDBRANCH  19  28
ENDBRANCH   1  19
TORSDOF 8
ENDMDL
MODEL 8
REMARK VINA RESULT:      -8.5      1.561      2.019
REMARK  Name = 
REMARK  9 active torsions:
REMARK  status: ('A' for Active; 'I' for Inactive)
REMARK    1  A    between atoms: C_1  and  C_2
REMARK    2  A    between atoms: C_2  and  C_3
REMARK    3  A    between atoms: C_3  and  C_4
REMARK    4  A    between atoms: C_4  and  C_5
REMARK    5  A    between atoms: C_11  and  O_12
REMARK    6  A    between atoms: N_14  and  C_15
REMARK    7  A    between atoms: C_15  and  C_16
REMARK    8  A    between atoms: C_19  and  C_20
REMARK    9  A    between atoms: C_25  and  C_26
REMARK                            x       y       z     vdW  Elec       q    Type
REMARK                         _______ _______ _______ _____ _____    ______ ____
ROOT
ATOM      1  C   UNL     1       3.397   6.633  19.071  0.00  0.00    +0.000 A 
ATOM      2  C   UNL     1       3.297   7.557  18.027  0.00  0.00    +0.000 A 
ATOM      3  C   UNL     1       2.284   8.536  18.021  0.00  0.00    +0.000 A 
ATOM      4  C   UNL     1       1.365   8.651  19.075  0.00  0.00    +0.000 A 
ATOM      5  C   UNL     1       1.509   7.731  20.134  0.00  0.00    +0.000 A 
ATOM      6  C   UNL     1       2.490   6.727  20.128  0.00  0.00    +0.000 A 
ENDROOT
BRANCH   4   7
ATOM      7  C   UNL     1       0.223   9.619  19.059  0.00  0.00    +0.000 A 
ATOM      8  C   UNL     1      -0.290   9.996  17.788  0.00  0.00    +0.000 A 
ATOM      9  C   UNL     1      -1.340  10.904  17.625  0.00  0.00    +0.000 A 
ATOM     10  C   UNL     1      -1.895  11.511  18.734  0.00  0.00    +0.000 A 
ATOM     11  C   UNL     1      -1.414  11.183  20.001  0.00  0.00    +0.000 A 
ATOM     12  C   UNL     1      -0.383  10.229  20.194  0.00  0.00    +0.000 A 
BRANCH  12  13
ATOM     13  C   UNL     1      -0.060   9.910  21.585  0.00  0.00    +0.000 A 
ATOM     14  N   UNL     1       1.110  10.275  22.211  0.00  0.00    +0.000 NA
ATOM     15  N   UNL     1       1.081   9.748  23.427  0.00  0.00    +0.000 NA
ATOM     16  N   UNL     1      -0.063   9.062  23.471  0.00  0.00    +0.000 N 
ATOM     17  N   UNL     1      -0.828   9.132  22.372  0.00  0.00    +0.000 NA
ATOM     18  H   UNL     1      -0.330   8.512  24.282  0.00  0.00    +0.000 HD
ENDBRANCH  12  13
ENDBRANCH   4   7
BRANCH   1  19
ATOM     19  C   UNL     1       4.378   5.493  19.002  0.00  0.00    +0.000 C 
BRANCH  19  28
ATOM     20  C   UNL     1       3.933   3.679  17.176  0.00  0.00    +0.000 A 
ATOM     21  N   UNL     1       4.490   3.369  16.015  0.00  0.00    +0.000 NA
ATOM     22  C   UNL     1       5.535   4.230  15.830  0.00  0.00    +0.000 A 
ATOM     23  C   UNL     1       6.455   4.322  14.788  0.00  0.00    +0.000 A 
ATOM     24  N   UNL     1       7.429   5.259  14.859  0.00  0.00    +0.000 NA
ATOM     25  N   UNL     1       7.517   6.111  15.938  0.00  0.00    +0.000 NA
ATOM     26  C   UNL     1       6.633   6.045  16.949  0.00  0.00    +0.000 A 
ATOM     27  C   UNL     1       5.625   5.103  16.902  0.00  0.00    +0.000 A 
ATOM     28  N   UNL     1       4.576   4.760  17.749  0.00  0.00    +0.000 N 
BRANCH  26  29
ATOM     29  O   UNL     1       6.819   6.923  17.977  0.00  0.00    +0.000 OA
ATOM     30  H   UNL     1       5.896   7.173  18.171  0.00  0.00    +0.000 HD
ENDBRANCH  26  29
BRANCH  20  31
ATOM     31  C   UNL     1       2.789   2.884  17.723  0.00  0.00    +0.000 C 
BRANCH  31  32
ATOM     32  C   UNL     1       1.531   3.718  17.980  0.00  0.00    +0.000 C 
BRANCH  32  34
ATOM     33  C   UNL     1       1.681   3.087  20.419  0.00  0.00    +0.000 C 
ATOM     34  C   UNL     1       0.755   3.288  19.229  0.00  0.00    +0.000 C 
ENDBRANCH  32  34
ENDBRANCH  31  32
ENDBRANCH  20  31
ENDBRANCH  19  28
ENDBRANCH   1  19
TORSDOF 8
ENDMDL
MODEL 9
REMARK VINA RESULT:      -8.5      0.564      1.050
REMARK  Name = 
REMARK  9 active torsions:
REMARK  status: ('A' for Active; 'I' for Inactive)
REMARK    1  A    between atoms: C_1  and  C_2
REMARK    2  A    between atoms: C_2  and  C_3
REMARK    3  A    between atoms: C_3  and  C_4
REMARK    4  A    between atoms: C_4  and  C_5
REMARK    5  A    between atoms: C_11  and  O_12
REMARK    6  A    between atoms: N_14  and  C_15
REMARK    7  A    between atoms: C_15  and  C_16
REMARK    8  A    between atoms: C_19  and  C_20
REMARK    9  A    between atoms: C_25  and  C_26
REMARK                            x       y       z     vdW  Elec       q    Type
REMARK                         _______ _______ _______ _____ _____    ______ ____
ROOT
ATOM      1  C   UNL     1       2.818   7.537  18.756  0.00  0.00    +0.000 A 
ATOM      2  C   UNL     1       2.046   7.706  19.908  0.00  0.00    +0.000 A 
ATOM      3  C   UNL     1       0.994   8.643  19.943  0.00  0.00    +0.000 A 
ATOM      4  C   UNL     1       0.654   9.411  18.819  0.00  0.00    +0.000 A 
ATOM      5  C   UNL     1       1.425   9.196  17.658  0.00  0.00    +0.000 A 
ATOM      6  C   UNL     1       2.499   8.294  17.627  0.00  0.00    +0.000 A 
ENDROOT
BRANCH   4   7
ATOM      7  C   UNL     1      -0.397  10.478  18.847  0.00  0.00    +0.000 A 
ATOM      8  C   UNL     1      -1.700  10.115  18.409  0.00  0.00    +0.000 A 
ATOM      9  C   UNL     1      -2.769  11.015  18.363  0.00  0.00    +0.000 A 
ATOM     10  C   UNL     1      -2.566  12.334  18.715  0.00  0.00    +0.000 A 
ATOM     11  C   UNL     1      -1.300  12.739  19.137  0.00  0.00    +0.000 A 
ATOM     12  C   UNL     1      -0.213  11.833  19.238  0.00  0.00    +0.000 A 
BRANCH  12  13
ATOM     13  C   UNL     1       1.023  12.380  19.799  0.00  0.00    +0.000 A 
ATOM     14  N   UNL     1       1.302  12.440  21.145  0.00  0.00    +0.000 NA
ATOM     15  N   UNL     1       2.465  13.064  21.275  0.00  0.00    +0.000 NA
ATOM     16  N   UNL     1       2.814  13.389  20.028  0.00  0.00    +0.000 N 
ATOM     17  N   UNL     1       1.977  12.983  19.063  0.00  0.00    +0.000 NA
ATOM     18  H   UNL     1       3.654  13.922  19.827  0.00  0.00    +0.000 HD
ENDBRANCH  12  13
ENDBRANCH   4   7
BRANCH   1  19
ATOM     19  C   UNL     1       4.036   6.652  18.767  0.00  0.00    +0.000 C 
BRANCH  19  28
ATOM     20  C   UNL     1       3.376   4.490  17.458  0.00  0.00    +0.000 A 
ATOM     21  N   UNL     1       3.940   3.773  16.498  0.00  0.00    +0.000 NA
ATOM     22  C   UNL     1       5.140   4.360  16.212  0.00  0.00    +0.000 A 
ATOM     23  C   UNL     1       6.128   3.996  15.300  0.00  0.00    +0.000 A 
ATOM     24  N   UNL     1       7.257   4.740  15.231  0.00  0.00    +0.000 NA
ATOM     25  N   UNL     1       7.434   5.839  16.043  0.00  0.00    +0.000 NA
ATOM     26  C   UNL     1       6.488   6.212  16.922  0.00  0.00    +0.000 A 
ATOM     27  C   UNL     1       5.323   5.477  17.012  0.00  0.00    +0.000 A 
ATOM     28  N   UNL     1       4.174   5.568  17.790  0.00  0.00    +0.000 N 
BRANCH  26  29
ATOM     29  O   UNL     1       6.769   7.305  17.690  0.00  0.00    +0.000 OA
ATOM     30  H   UNL     1       7.094   6.877  18.504  0.00  0.00    +0.000 HD
ENDBRANCH  26  29
BRANCH  20  31
ATOM     31  C   UNL     1       2.067   4.086  18.060  0.00  0.00    +0.000 C 
BRANCH  31  32
ATOM     32  C   UNL     1       2.209   3.151  19.265  0.00  0.00    +0.000 C 
BRANCH  32  34
ATOM     33  C   UNL     1       1.512   2.784  21.662  0.00  0.00    +0.000 C 
ATOM     34  C   UNL     1       1.860   3.815  20.600  0.00  0.00    +0.000 C 
ENDBRANCH  32  34
ENDBRANCH  31  32
ENDBRANCH  20  31
ENDBRANCH  19  28
ENDBRANCH   1  19
TORSDOF 8
ENDMDL
