MODEL 1
REMARK VINA RESULT:      -7.9      0.000      0.000
REMARK  Name = 
REMARK  8 active torsions:
REMARK  status: ('A' for Active; 'I' for Inactive)
REMARK    1  A    between atoms: C_1  and  C_2
REMARK    2  A    between atoms: C_2  and  O_3
REMARK    3  A    between atoms: O_3  and  C_4
REMARK    4  A    between atoms: C_4  and  C_6
REMARK    5  A    between atoms: C_11  and  C_13
REMARK    6  A    between atoms: C_13  and  N_14
REMARK    7  A    between atoms: N_17  and  C_18
REMARK    8  A    between atoms: C_18  and  C_19
REMARK                            x       y       z     vdW  Elec       q    Type
REMARK                         _______ _______ _______ _____ _____    ______ ____
ROOT
ATOM      1  C   UNL     1       3.111   6.506  19.068  0.00  0.00    +0.000 C 
ENDROOT
BRANCH   1   7
ATOM      2  C   UNL     1       2.521   2.008  17.970  0.00  0.00    +0.000 C 
ATOM      3  C   UNL     1       3.880   1.653  18.584  0.00  0.00    +0.000 C 
ATOM      4  C   UNL     1       4.623   2.844  19.200  0.00  0.00    +0.000 C 
ATOM      5  C   UNL     1       4.606   4.071  18.290  0.00  0.00    +0.000 C 
ATOM      6  N   UNL     1       3.251   4.345  17.816  0.00  0.00    +0.000 N 
ATOM      7  C   UNL     1       2.472   5.441  18.167  0.00  0.00    +0.000 C 
ATOM      8  O   UNL     1       1.314   5.555  17.751  0.00  0.00    +0.000 OA
ATOM      9  C   UNL     1       2.619   3.248  17.089  0.00  0.00    +0.000 C 
BRANCH   2  10
ATOM     10  C   UNL     1       1.332   2.141  18.903  0.00  0.00    +0.000 C 
ATOM     11  O   UNL     1       0.214   2.432  18.472  0.00  0.00    +0.000 OA
BRANCH  10  12
ATOM     12  O   UNL     1       1.618   1.953  20.215  0.00  0.00    +0.000 OA
BRANCH  12  14
ATOM     13  C   UNL     1       2.202   3.928  21.536  0.00  0.00    +0.000 C 
ATOM     14  C   UNL     1       1.102   2.980  21.088  0.00  0.00    +0.000 C 
ENDBRANCH  12  14
ENDBRANCH  10  12
ENDBRANCH   2  10
ENDBRANCH   1   7
BRANCH   1  15
ATOM     15  N   UNL     1       2.214   7.613  19.336  0.00  0.00    +0.000 N 
ATOM     16  C   UNL     1       1.437   7.748  20.551  0.00  0.00    +0.000 C 
ATOM     17  C   UNL     1       1.013   9.208  20.514  0.00  0.00    +0.000 C 
ATOM     18  N   UNL     1       1.084   9.534  19.107  0.00  0.00    +0.000 N 
ATOM     19  C   UNL     1       1.979   8.679  18.468  0.00  0.00    +0.000 C 
ATOM     20  O   UNL     1       2.466   8.829  17.357  0.00  0.00    +0.000 OA
BRANCH  18  21
ATOM     21  C   UNL     1       0.602  10.790  18.567  0.00  0.00    +0.000 C 
BRANCH  21  22
ATOM     22  C   UNL     1      -0.903  10.774  18.394  0.00  0.00    +0.000 A 
ATOM     23  C   UNL     1      -1.509   9.898  17.479  0.00  0.00    +0.000 A 
ATOM     24  C   UNL     1      -2.882   9.972  17.222  0.00  0.00    +0.000 A 
ATOM     25  C   UNL     1      -3.662  10.909  17.892  0.00  0.00    +0.000 A 
ATOM     26 CL   UNL     1      -5.335  11.054  17.516  0.00  0.00    +0.000 Cl
ATOM     27  C   UNL     1      -3.088  11.752  18.842  0.00  0.00    +0.000 A 
ATOM     28  C   UNL     1      -1.712  11.686  19.089  0.00  0.00    +0.000 A 
ENDBRANCH  21  22
ENDBRANCH  18  21
ENDBRANCH   1  15
TORSDOF 7
ENDMDL
MODEL 2
REMARK VINA RESULT:      -7.3      1.501      2.416
REMARK  Name = 
REMARK  8 active torsions:
REMARK  status: ('A' for Active; 'I' for Inactive)
REMARK    1  A    between atoms: C_1  and  C_2
REMARK    2  A    between atoms: C_2  and  O_3
REMARK    3  A    between atoms: O_3  and  C_4
REMARK    4  A    between atoms: C_4  and  C_6
REMARK    5  A    between atoms: C_11  and  C_13
REMARK    6  A    between atoms: C_13  and  N_14
REMARK    7  A    between atoms: N_17  and  C_18
REMARK    8  A    between atoms: C_18  and  C_19
REMARK                            x       y       z     vdW  Elec       q    Type
REMARK                         _______ _______ _______ _____ _____    ______ ____
ROOT
ATOM      1  C   UNL     1       2.647   6.894  19.114  0.00  0.00    +0.000 C 
ENDROOT
BRANCH   1   7
ATOM      2  C   UNL     1       2.368   2.244  19.412  0.00  0.00    +0.000 C 
ATOM      3  C   UNL     1       2.452   2.115  17.886  0.00  0.00    +0.000 C 
ATOM      4  C   UNL     1       2.601   3.452  17.149  0.00  0.00    +0.000 C 
ATOM      5  C   UNL     1       1.635   4.513  17.673  0.00  0.00    +0.000 C 
ATOM      6  N   UNL     1       1.687   4.584  19.132  0.00  0.00    +0.000 N 
ATOM      7  C   UNL     1       2.183   5.647  19.878  0.00  0.00    +0.000 C 
ATOM      8  O   UNL     1       2.230   5.587  21.111  0.00  0.00    +0.000 OA
ATOM      9  C   UNL     1       1.384   3.333  19.822  0.00  0.00    +0.000 C 
BRANCH   2  10
ATOM     10  C   UNL     1       3.663   2.414  20.183  0.00  0.00    +0.000 C 
ATOM     11  O   UNL     1       3.686   2.331  21.414  0.00  0.00    +0.000 OA
BRANCH  10  12
ATOM     12  O   UNL     1       4.746   2.695  19.418  0.00  0.00    +0.000 OA
BRANCH  12  14
ATOM     13  C   UNL     1       5.861   4.520  18.229  0.00  0.00    +0.000 C 
ATOM     14  C   UNL     1       5.209   4.057  19.522  0.00  0.00    +0.000 C 
ENDBRANCH  12  14
ENDBRANCH  10  12
ENDBRANCH   2  10
ENDBRANCH   1   7
BRANCH   1  15
ATOM     15  N   UNL     1       1.841   8.060  19.421  0.00  0.00    +0.000 N 
ATOM     16  C   UNL     1       1.190   8.280  20.696  0.00  0.00    +0.000 C 
ATOM     17  C   UNL     1       0.846   9.760  20.642  0.00  0.00    +0.000 C 
ATOM     18  N   UNL     1       0.803  10.035  19.224  0.00  0.00    +0.000 N 
ATOM     19  C   UNL     1       1.585   9.108  18.538  0.00  0.00    +0.000 C 
ATOM     20  O   UNL     1       1.973   9.194  17.383  0.00  0.00    +0.000 OA
BRANCH  18  21
ATOM     21  C   UNL     1       0.341  11.299  18.683  0.00  0.00    +0.000 C 
BRANCH  21  22
ATOM     22  C   UNL     1      -1.154  11.283  18.442  0.00  0.00    +0.000 A 
ATOM     23  C   UNL     1      -2.012  12.085  19.212  0.00  0.00    +0.000 A 
ATOM     24  C   UNL     1      -3.400  11.974  19.081  0.00  0.00    +0.000 A 
ATOM     25  C   UNL     1      -3.940  11.075  18.167  0.00  0.00    +0.000 A 
ATOM     26 CL   UNL     1      -5.648  10.882  18.065  0.00  0.00    +0.000 Cl
ATOM     27  C   UNL     1      -3.105  10.309  17.357  0.00  0.00    +0.000 A 
ATOM     28  C   UNL     1      -1.716  10.410  17.497  0.00  0.00    +0.000 A 
ENDBRANCH  21  22
ENDBRANCH  18  21
ENDBRANCH   1  15
TORSDOF 7
ENDMDL
MODEL 3
REMARK VINA RESULT:      -7.1      2.918      4.520
REMARK  Name = 
REMARK  8 active torsions:
REMARK  status: ('A' for Active; 'I' for Inactive)
REMARK    1  A    between atoms: C_1  and  C_2
REMARK    2  A    between atoms: C_2  and  O_3
REMARK    3  A    between atoms: O_3  and  C_4
REMARK    4  A    between atoms: C_4  and  C_6
REMARK    5  A    between atoms: C_11  and  C_13
REMARK    6  A    between atoms: C_13  and  N_14
REMARK    7  A    between atoms: N_17  and  C_18
REMARK    8  A    between atoms: C_18  and  C_19
REMARK                            x       y       z     vdW  Elec       q    Type
REMARK                         _______ _______ _______ _____ _____    ______ ____
ROOT
ATOM      1  C   UNL     1       3.274   4.940  18.847  0.00  0.00    +0.000 C 
ENDROOT
BRANCH   1   7
ATOM      2  C   UNL     1       7.421   5.567  16.798  0.00  0.00    +0.000 C 
ATOM      3  C   UNL     1       6.870   5.049  15.464  0.00  0.00    +0.000 C 
ATOM      4  C   UNL     1       5.385   4.668  15.502  0.00  0.00    +0.000 C 
ATOM      5  C   UNL     1       5.032   3.836  16.734  0.00  0.00    +0.000 C 
ATOM      6  N   UNL     1       5.559   4.459  17.947  0.00  0.00    +0.000 N 
ATOM      7  C   UNL     1       4.802   5.033  18.961  0.00  0.00    +0.000 C 
ATOM      8  O   UNL     1       5.347   5.582  19.925  0.00  0.00    +0.000 OA
ATOM      9  C   UNL     1       7.003   4.668  17.955  0.00  0.00    +0.000 C 
BRANCH   2  10
ATOM     10  C   UNL     1       7.160   7.016  17.161  0.00  0.00    +0.000 C 
ATOM     11  O   UNL     1       6.188   7.621  16.702  0.00  0.00    +0.000 OA
BRANCH  10  12
ATOM     12  O   UNL     1       8.088   7.572  17.978  0.00  0.00    +0.000 OA
BRANCH  12  14
ATOM     13  C   UNL     1       9.064   9.576  18.989  0.00  0.00    +0.000 C 
ATOM     14  C   UNL     1       8.152   9.011  17.911  0.00  0.00    +0.000 C 
ENDBRANCH  12  14
ENDBRANCH  10  12
ENDBRANCH   2  10
ENDBRANCH   1   7
BRANCH   1  15
ATOM     15  N   UNL     1       2.624   6.212  19.093  0.00  0.00    +0.000 N 
ATOM     16  C   UNL     1       1.839   6.502  20.275  0.00  0.00    +0.000 C 
ATOM     17  C   UNL     1       1.739   8.019  20.243  0.00  0.00    +0.000 C 
ATOM     18  N   UNL     1       1.942   8.331  18.846  0.00  0.00    +0.000 N 
ATOM     19  C   UNL     1       2.661   7.308  18.233  0.00  0.00    +0.000 C 
ATOM     20  O   UNL     1       3.219   7.358  17.146  0.00  0.00    +0.000 OA
BRANCH  18  21
ATOM     21  C   UNL     1       1.764   9.665  18.306  0.00  0.00    +0.000 C 
BRANCH  21  22
ATOM     22  C   UNL     1       0.375  10.196  18.595  0.00  0.00    +0.000 A 
ATOM     23  C   UNL     1      -0.715   9.827  17.789  0.00  0.00    +0.000 A 
ATOM     24  C   UNL     1      -1.970  10.416  17.972  0.00  0.00    +0.000 A 
ATOM     25  C   UNL     1      -2.150  11.364  18.975  0.00  0.00    +0.000 A 
ATOM     26 CL   UNL     1      -3.673  12.147  19.147  0.00  0.00    +0.000 Cl
ATOM     27  C   UNL     1      -1.095  11.704  19.819  0.00  0.00    +0.000 A 
ATOM     28  C   UNL     1       0.164  11.124  19.627  0.00  0.00    +0.000 A 
ENDBRANCH  21  22
ENDBRANCH  18  21
ENDBRANCH   1  15
TORSDOF 7
ENDMDL
MODEL 4
REMARK VINA RESULT:      -7.1      2.188      2.819
REMARK  Name = 
REMARK  8 active torsions:
REMARK  status: ('A' for Active; 'I' for Inactive)
REMARK    1  A    between atoms: C_1  and  C_2
REMARK    2  A    between atoms: C_2  and  O_3
REMARK    3  A    between atoms: O_3  and  C_4
REMARK    4  A    between atoms: C_4  and  C_6
REMARK    5  A    between atoms: C_11  and  C_13
REMARK    6  A    between atoms: C_13  and  N_14
REMARK    7  A    between atoms: N_17  and  C_18
REMARK    8  A    between atoms: C_18  and  C_19
REMARK                            x       y       z     vdW  Elec       q    Type
REMARK                         _______ _______ _______ _____ _____    ______ ____
ROOT
ATOM      1  C   UNL     1       3.133   6.424  19.048  0.00  0.00    +0.000 C 
ENDROOT
BRANCH   1   7
ATOM      2  C   UNL     1       2.577   1.903  18.027  0.00  0.00    +0.000 C 
ATOM      3  C   UNL     1       3.900   1.557  18.722  0.00  0.00    +0.000 C 
ATOM      4  C   UNL     1       4.615   2.760  19.349  0.00  0.00    +0.000 C 
ATOM      5  C   UNL     1       4.654   3.964  18.410  0.00  0.00    +0.000 C 
ATOM      6  N   UNL     1       3.328   4.232  17.857  0.00  0.00    +0.000 N 
ATOM      7  C   UNL     1       2.537   5.340  18.139  0.00  0.00    +0.000 C 
ATOM      8  O   UNL     1       1.404   5.448  17.658  0.00  0.00    +0.000 OA
ATOM      9  C   UNL     1       2.729   3.121  17.124  0.00  0.00    +0.000 C 
BRANCH   2  10
ATOM     10  C   UNL     1       1.341   2.064  18.891  0.00  0.00    +0.000 C 
ATOM     11  O   UNL     1       0.223   2.191  18.385  0.00  0.00    +0.000 OA
BRANCH  10  12
ATOM     12  O   UNL     1       1.582   2.092  20.225  0.00  0.00    +0.000 OA
BRANCH  12  14
ATOM     13  C   UNL     1       2.284   3.924  21.688  0.00  0.00    +0.000 C 
ATOM     14  C   UNL     1       1.155   3.304  20.880  0.00  0.00    +0.000 C 
ENDBRANCH  12  14
ENDBRANCH  10  12
ENDBRANCH   2  10
ENDBRANCH   1   7
BRANCH   1  15
ATOM     15  N   UNL     1       2.435   7.689  18.928  0.00  0.00    +0.000 N 
ATOM     16  C   UNL     1       2.505   8.544  17.760  0.00  0.00    +0.000 C 
ATOM     17  C   UNL     1       1.327   9.484  17.966  0.00  0.00    +0.000 C 
ATOM     18  N   UNL     1       1.120   9.441  19.396  0.00  0.00    +0.000 N 
ATOM     19  C   UNL     1       1.618   8.247  19.911  0.00  0.00    +0.000 C 
ATOM     20  O   UNL     1       1.388   7.776  21.015  0.00  0.00    +0.000 OA
BRANCH  18  21
ATOM     21  C   UNL     1       0.195  10.323  20.081  0.00  0.00    +0.000 C 
BRANCH  21  22
ATOM     22  C   UNL     1       0.420  11.769  19.690  0.00  0.00    +0.000 A 
ATOM     23  C   UNL     1       1.521  12.483  20.190  0.00  0.00    +0.000 A 
ATOM     24  C   UNL     1       1.659  13.852  19.937  0.00  0.00    +0.000 A 
ATOM     25  C   UNL     1       0.707  14.512  19.165  0.00  0.00    +0.000 A 
ATOM     26 CL   UNL     1       0.835  16.212  18.922  0.00  0.00    +0.000 Cl
ATOM     27  C   UNL     1      -0.364  13.810  18.616  0.00  0.00    +0.000 A 
ATOM     28  C   UNL     1      -0.508  12.444  18.881  0.00  0.00    +0.000 A 
ENDBRANCH  21  22
ENDBRANCH  18  21
ENDBRANCH   1  15
TORSDOF 7
ENDMDL
MODEL 5
REMARK VINA RESULT:      -7.0      2.492      3.241
REMARK  Name = 
REMARK  8 active torsions:
REMARK  status: ('A' for Active; 'I' for Inactive)
REMARK    1  A    between atoms: C_1  and  C_2
REMARK    2  A    between atoms: C_2  and  O_3
REMARK    3  A    between atoms: O_3  and  C_4
REMARK    4  A    between atoms: C_4  and  C_6
REMARK    5  A    between atoms: C_11  and  C_13
REMARK    6  A    between atoms: C_13  and  N_14
REMARK    7  A    between atoms: N_17  and  C_18
REMARK    8  A    between atoms: C_18  and  C_19
REMARK                            x       y       z     vdW  Elec       q    Type
REMARK                         _______ _______ _______ _____ _____    ______ ____
ROOT
ATOM      1  C   UNL     1       3.200   6.560  18.896  0.00  0.00    +0.000 C 
ENDROOT
BRANCH   1   7
ATOM      2  C   UNL     1       2.576   1.997  18.135  0.00  0.00    +0.000 C 
ATOM      3  C   UNL     1       3.954   1.683  18.731  0.00  0.00    +0.000 C 
ATOM      4  C   UNL     1       4.715   2.913  19.240  0.00  0.00    +0.000 C 
ATOM      5  C   UNL     1       4.671   4.073  18.247  0.00  0.00    +0.000 C 
ATOM      6  N   UNL     1       3.302   4.316  17.796  0.00  0.00    +0.000 N 
ATOM      7  C   UNL     1       2.534   5.436  18.092  0.00  0.00    +0.000 C 
ATOM      8  O   UNL     1       1.365   5.522  17.704  0.00  0.00    +0.000 OA
ATOM      9  C   UNL     1       2.648   3.172  17.167  0.00  0.00    +0.000 C 
BRANCH   2  10
ATOM     10  C   UNL     1       1.417   2.198  19.092  0.00  0.00    +0.000 C 
ATOM     11  O   UNL     1       0.309   2.557  18.683  0.00  0.00    +0.000 OA
BRANCH  10  12
ATOM     12  O   UNL     1       1.716   1.989  20.397  0.00  0.00    +0.000 OA
BRANCH  12  14
ATOM     13  C   UNL     1       2.232   4.127  21.471  0.00  0.00    +0.000 C 
ATOM     14  C   UNL     1       1.220   3.007  21.291  0.00  0.00    +0.000 C 
ENDBRANCH  12  14
ENDBRANCH  10  12
ENDBRANCH   2  10
ENDBRANCH   1   7
BRANCH   1  15
ATOM     15  N   UNL     1       2.261   7.596  19.280  0.00  0.00    +0.000 N 
ATOM     16  C   UNL     1       1.582   7.638  20.559  0.00  0.00    +0.000 C 
ATOM     17  C   UNL     1       1.066   9.068  20.613  0.00  0.00    +0.000 C 
ATOM     18  N   UNL     1       0.997   9.444  19.219  0.00  0.00    +0.000 N 
ATOM     19  C   UNL     1       1.887   8.672  18.476  0.00  0.00    +0.000 C 
ATOM     20  O   UNL     1       2.267   8.891  17.336  0.00  0.00    +0.000 OA
BRANCH  18  21
ATOM     21  C   UNL     1       0.392  10.683  18.770  0.00  0.00    +0.000 C 
BRANCH  21  22
ATOM     22  C   UNL     1       1.272  11.874  19.091  0.00  0.00    +0.000 A 
ATOM     23  C   UNL     1       2.160  12.386  18.131  0.00  0.00    +0.000 A 
ATOM     24  C   UNL     1       3.065  13.399  18.466  0.00  0.00    +0.000 A 
ATOM     25  C   UNL     1       3.075  13.920  19.756  0.00  0.00    +0.000 A 
ATOM     26 CL   UNL     1       4.243  15.108  20.188  0.00  0.00    +0.000 Cl
ATOM     27  C   UNL     1       2.166  13.462  20.707  0.00  0.00    +0.000 A 
ATOM     28  C   UNL     1       1.270  12.439  20.376  0.00  0.00    +0.000 A 
ENDBRANCH  21  22
ENDBRANCH  18  21
ENDBRANCH   1  15
TORSDOF 7
ENDMDL
MODEL 6
REMARK VINA RESULT:      -7.0      0.918      1.490
REMARK  Name = 
REMARK  8 active torsions:
REMARK  status: ('A' for Active; 'I' for Inactive)
REMARK    1  A    between atoms: C_1  and  C_2
REMARK    2  A    between atoms: C_2  and  O_3
REMARK    3  A    between atoms: O_3  and  C_4
REMARK    4  A    between atoms: C_4  and  C_6
REMARK    5  A    between atoms: C_11  and  C_13
REMARK    6  A    between atoms: C_13  and  N_14
REMARK    7  A    between atoms: N_17  and  C_18
REMARK    8  A    between atoms: C_18  and  C_19
REMARK                            x       y       z     vdW  Elec       q    Type
REMARK                         _______ _______ _______ _____ _____    ______ ____
ROOT
ATOM      1  C   UNL     1       2.840   6.470  19.401  0.00  0.00    +0.000 C 
ENDROOT
BRANCH   1   7
ATOM      2  C   UNL     1       2.619   2.033  17.970  0.00  0.00    +0.000 C 
ATOM      3  C   UNL     1       3.963   1.723  18.639  0.00  0.00    +0.000 C 
ATOM      4  C   UNL     1       4.588   2.913  19.377  0.00  0.00    +0.000 C 
ATOM      5  C   UNL     1       4.538   4.197  18.552  0.00  0.00    +0.000 C 
ATOM      6  N   UNL     1       3.196   4.416  18.017  0.00  0.00    +0.000 N 
ATOM      7  C   UNL     1       2.325   5.433  18.393  0.00  0.00    +0.000 C 
ATOM      8  O   UNL     1       1.188   5.501  17.917  0.00  0.00    +0.000 OA
ATOM      9  C   UNL     1       2.680   3.336  17.182  0.00  0.00    +0.000 C 
BRANCH   2  10
ATOM     10  C   UNL     1       1.374   2.022  18.837  0.00  0.00    +0.000 C 
ATOM     11  O   UNL     1       0.252   2.146  18.340  0.00  0.00    +0.000 OA
BRANCH  10  12
ATOM     12  O   UNL     1       1.611   1.908  20.167  0.00  0.00    +0.000 OA
BRANCH  12  14
ATOM     13  C   UNL     1       2.185   3.704  21.727  0.00  0.00    +0.000 C 
ATOM     14  C   UNL     1       1.083   2.992  20.959  0.00  0.00    +0.000 C 
ENDBRANCH  12  14
ENDBRANCH  10  12
ENDBRANCH   2  10
ENDBRANCH   1   7
BRANCH   1  15
ATOM     15  N   UNL     1       2.353   7.806  19.115  0.00  0.00    +0.000 N 
ATOM     16  C   UNL     1       2.631   8.521  17.886  0.00  0.00    +0.000 C 
ATOM     17  C   UNL     1       1.600   9.639  17.912  0.00  0.00    +0.000 C 
ATOM     18  N   UNL     1       1.293   9.769  19.319  0.00  0.00    +0.000 N 
ATOM     19  C   UNL     1       1.568   8.571  19.976  0.00  0.00    +0.000 C 
ATOM     20  O   UNL     1       1.195   8.250  21.094  0.00  0.00    +0.000 OA
BRANCH  18  21
ATOM     21  C   UNL     1       0.471  10.839  19.847  0.00  0.00    +0.000 C 
BRANCH  21  22
ATOM     22  C   UNL     1      -0.845  10.942  19.104  0.00  0.00    +0.000 A 
ATOM     23  C   UNL     1      -1.791  11.918  19.454  0.00  0.00    +0.000 A 
ATOM     24  C   UNL     1      -3.056  11.932  18.859  0.00  0.00    +0.000 A 
ATOM     25  C   UNL     1      -3.378  10.981  17.895  0.00  0.00    +0.000 A 
ATOM     26 CL   UNL     1      -4.962  10.949  17.222  0.00  0.00    +0.000 Cl
ATOM     27  C   UNL     1      -2.434  10.037  17.495  0.00  0.00    +0.000 A 
ATOM     28  C   UNL     1      -1.173  10.016  18.101  0.00  0.00    +0.000 A 
ENDBRANCH  21  22
ENDBRANCH  18  21
ENDBRANCH   1  15
TORSDOF 7
ENDMDL
MODEL 7
REMARK VINA RESULT:      -7.0      1.784      3.060
REMARK  Name = 
REMARK  8 active torsions:
REMARK  status: ('A' for Active; 'I' for Inactive)
REMARK    1  A    between atoms: C_1  and  C_2
REMARK    2  A    between atoms: C_2  and  O_3
REMARK    3  A    between atoms: O_3  and  C_4
REMARK    4  A    between atoms: C_4  and  C_6
REMARK    5  A    between atoms: C_11  and  C_13
REMARK    6  A    between atoms: C_13  and  N_14
REMARK    7  A    between atoms: N_17  and  C_18
REMARK    8  A    between atoms: C_18  and  C_19
REMARK                            x       y       z     vdW  Elec       q    Type
REMARK                         _______ _______ _______ _____ _____    ______ ____
ROOT
ATOM      1  C   UNL     1       1.871   6.233  20.596  0.00  0.00    +0.000 C 
ENDROOT
BRANCH   1   7
ATOM      2  C   UNL     1       3.064   2.210  18.550  0.00  0.00    +0.000 C 
ATOM      3  C   UNL     1       1.650   1.655  18.758  0.00  0.00    +0.000 C 
ATOM      4  C   UNL     1       0.683   2.634  19.433  0.00  0.00    +0.000 C 
ATOM      5  C   UNL     1       1.308   3.325  20.643  0.00  0.00    +0.000 C 
ATOM      6  N   UNL     1       2.624   3.864  20.307  0.00  0.00    +0.000 N 
ATOM      7  C   UNL     1       2.955   5.212  20.225  0.00  0.00    +0.000 C 
ATOM      8  O   UNL     1       4.088   5.566  19.881  0.00  0.00    +0.000 OA
ATOM      9  C   UNL     1       3.586   2.883  19.815  0.00  0.00    +0.000 C 
BRANCH   2  10
ATOM     10  C   UNL     1       3.304   3.117  17.358  0.00  0.00    +0.000 C 
ATOM     11  O   UNL     1       2.387   3.413  16.588  0.00  0.00    +0.000 OA
BRANCH  10  12
ATOM     12  O   UNL     1       4.588   3.523  17.204  0.00  0.00    +0.000 OA
BRANCH  12  14
ATOM     13  C   UNL     1       5.449   4.406  15.090  0.00  0.00    +0.000 C 
ATOM     14  C   UNL     1       4.743   4.712  16.402  0.00  0.00    +0.000 C 
ENDBRANCH  12  14
ENDBRANCH  10  12
ENDBRANCH   2  10
ENDBRANCH   1   7
BRANCH   1  15
ATOM     15  N   UNL     1       1.893   7.399  19.734  0.00  0.00    +0.000 N 
ATOM     16  C   UNL     1       2.493   7.419  18.416  0.00  0.00    +0.000 C 
ATOM     17  C   UNL     1       1.906   8.680  17.803  0.00  0.00    +0.000 C 
ATOM     18  N   UNL     1       1.553   9.473  18.960  0.00  0.00    +0.000 N 
ATOM     19  C   UNL     1       1.350   8.641  20.059  0.00  0.00    +0.000 C 
ATOM     20  O   UNL     1       0.804   8.941  21.110  0.00  0.00    +0.000 OA
BRANCH  18  21
ATOM     21  C   UNL     1       1.105  10.849  18.861  0.00  0.00    +0.000 C 
BRANCH  21  22
ATOM     22  C   UNL     1      -0.372  10.926  18.538  0.00  0.00    +0.000 A 
ATOM     23  C   UNL     1      -1.202  11.848  19.196  0.00  0.00    +0.000 A 
ATOM     24  C   UNL     1      -2.586  11.833  18.996  0.00  0.00    +0.000 A 
ATOM     25  C   UNL     1      -3.149  10.907  18.121  0.00  0.00    +0.000 A 
ATOM     26 CL   UNL     1      -4.859  10.836  17.938  0.00  0.00    +0.000 Cl
ATOM     27  C   UNL     1      -2.337  10.019  17.419  0.00  0.00    +0.000 A 
ATOM     28  C   UNL     1      -0.954  10.026  17.630  0.00  0.00    +0.000 A 
ENDBRANCH  21  22
ENDBRANCH  18  21
ENDBRANCH   1  15
TORSDOF 7
ENDMDL
MODEL 8
REMARK VINA RESULT:      -6.8      1.263      1.700
REMARK  Name = 
REMARK  8 active torsions:
REMARK  status: ('A' for Active; 'I' for Inactive)
REMARK    1  A    between atoms: C_1  and  C_2
REMARK    2  A    between atoms: C_2  and  O_3
REMARK    3  A    between atoms: O_3  and  C_4
REMARK    4  A    between atoms: C_4  and  C_6
REMARK    5  A    between atoms: C_11  and  C_13
REMARK    6  A    between atoms: C_13  and  N_14
REMARK    7  A    between atoms: N_17  and  C_18
REMARK    8  A    between atoms: C_18  and  C_19
REMARK                            x       y       z     vdW  Elec       q    Type
REMARK                         _______ _______ _______ _____ _____    ______ ____
ROOT
ATOM      1  C   UNL     1       2.918   7.237  19.638  0.00  0.00    +0.000 C 
ENDROOT
BRANCH   1   7
ATOM      2  C   UNL     1       3.747   3.175  17.494  0.00  0.00    +0.000 C 
ATOM      3  C   UNL     1       4.969   3.770  16.783  0.00  0.00    +0.000 C 
ATOM      4  C   UNL     1       5.258   5.231  17.145  0.00  0.00    +0.000 C 
ATOM      5  C   UNL     1       3.996   6.092  17.129  0.00  0.00    +0.000 C 
ATOM      6  N   UNL     1       2.923   5.452  17.886  0.00  0.00    +0.000 N 
ATOM      7  C   UNL     1       2.393   5.904  19.089  0.00  0.00    +0.000 C 
ATOM      8  O   UNL     1       1.519   5.260  19.677  0.00  0.00    +0.000 OA
ATOM      9  C   UNL     1       2.552   4.118  17.422  0.00  0.00    +0.000 C 
BRANCH   2  10
ATOM     10  C   UNL     1       3.922   2.685  18.918  0.00  0.00    +0.000 C 
ATOM     11  O   UNL     1       4.824   3.124  19.636  0.00  0.00    +0.000 OA
BRANCH  10  12
ATOM     12  O   UNL     1       3.045   1.723  19.299  0.00  0.00    +0.000 OA
BRANCH  12  14
ATOM     13  C   UNL     1       2.244   2.488  21.481  0.00  0.00    +0.000 C 
ATOM     14  C   UNL     1       1.901   2.217  20.025  0.00  0.00    +0.000 C 
ENDBRANCH  12  14
ENDBRANCH  10  12
ENDBRANCH   2  10
ENDBRANCH   1   7
BRANCH   1  15
ATOM     15  N   UNL     1       1.889   8.257  19.690  0.00  0.00    +0.000 N 
ATOM     16  C   UNL     1       1.033   8.484  20.836  0.00  0.00    +0.000 C 
ATOM     17  C   UNL     1       0.451   9.860  20.549  0.00  0.00    +0.000 C 
ATOM     18  N   UNL     1       0.567   9.971  19.112  0.00  0.00    +0.000 N 
ATOM     19  C   UNL     1       1.588   9.140  18.654  0.00  0.00    +0.000 C 
ATOM     20  O   UNL     1       2.118   9.175  17.554  0.00  0.00    +0.000 OA
BRANCH  18  21
ATOM     21  C   UNL     1      -0.020  11.062  18.360  0.00  0.00    +0.000 C 
BRANCH  21  22
ATOM     22  C   UNL     1      -1.532  10.974  18.351  0.00  0.00    +0.000 A 
ATOM     23  C   UNL     1      -2.187   9.966  17.625  0.00  0.00    +0.000 A 
ATOM     24  C   UNL     1      -3.580   9.961  17.508  0.00  0.00    +0.000 A 
ATOM     25  C   UNL     1      -4.331  10.952  18.133  0.00  0.00    +0.000 A 
ATOM     26 CL   UNL     1      -6.039  10.991  17.922  0.00  0.00    +0.000 Cl
ATOM     27  C   UNL     1      -3.704  11.930  18.902  0.00  0.00    +0.000 A 
ATOM     28  C   UNL     1      -2.309  11.943  19.007  0.00  0.00    +0.000 A 
ENDBRANCH  21  22
ENDBRANCH  18  21
ENDBRANCH   1  15
TORSDOF 7
ENDMDL
MODEL 9
REMARK VINA RESULT:      -6.7      1.924      2.453
REMARK  Name = 
REMARK  8 active torsions:
REMARK  status: ('A' for Active; 'I' for Inactive)
REMARK    1  A    between atoms: C_1  and  C_2
REMARK    2  A    between atoms: C_2  and  O_3
REMARK    3  A    between atoms: O_3  and  C_4
REMARK    4  A    between atoms: C_4  and  C_6
REMARK    5  A    between atoms: C_11  and  C_13
REMARK    6  A    between atoms: C_13  and  N_14
REMARK    7  A    between atoms: N_17  and  C_18
REMARK    8  A    between atoms: C_18  and  C_19
REMARK                            x       y       z     vdW  Elec       q    Type
REMARK                         _______ _______ _______ _____ _____    ______ ____
ROOT
ATOM      1  C   UNL     1       3.224   6.570  18.885  0.00  0.00    +0.000 C 
ENDROOT
BRANCH   1   7
ATOM      2  C   UNL     1       2.596   2.004  18.151  0.00  0.00    +0.000 C 
ATOM      3  C   UNL     1       3.971   1.691  18.754  0.00  0.00    +0.000 C 
ATOM      4  C   UNL     1       4.732   2.923  19.257  0.00  0.00    +0.000 C 
ATOM      5  C   UNL     1       4.693   4.077  18.256  0.00  0.00    +0.000 C 
ATOM      6  N   UNL     1       3.326   4.319  17.799  0.00  0.00    +0.000 N 
ATOM      7  C   UNL     1       2.559   5.442  18.086  0.00  0.00    +0.000 C 
ATOM      8  O   UNL     1       1.391   5.528  17.693  0.00  0.00    +0.000 OA
ATOM      9  C   UNL     1       2.672   3.173  17.176  0.00  0.00    +0.000 C 
BRANCH   2  10
ATOM     10  C   UNL     1       1.433   2.212  19.102  0.00  0.00    +0.000 C 
ATOM     11  O   UNL     1       0.347   2.634  18.697  0.00  0.00    +0.000 OA
BRANCH  10  12
ATOM     12  O   UNL     1       1.707   1.937  20.401  0.00  0.00    +0.000 OA
BRANCH  12  14
ATOM     13  C   UNL     1       2.131   4.132  21.398  0.00  0.00    +0.000 C 
ATOM     14  C   UNL     1       1.214   2.921  21.333  0.00  0.00    +0.000 C 
ENDBRANCH  12  14
ENDBRANCH  10  12
ENDBRANCH   2  10
ENDBRANCH   1   7
BRANCH   1  15
ATOM     15  N   UNL     1       2.289   7.620  19.241  0.00  0.00    +0.000 N 
ATOM     16  C   UNL     1       1.608   7.697  20.517  0.00  0.00    +0.000 C 
ATOM     17  C   UNL     1       1.098   9.129  20.536  0.00  0.00    +0.000 C 
ATOM     18  N   UNL     1       1.035   9.473  19.133  0.00  0.00    +0.000 N 
ATOM     19  C   UNL     1       1.923   8.678  18.411  0.00  0.00    +0.000 C 
ATOM     20  O   UNL     1       2.307   8.868  17.267  0.00  0.00    +0.000 OA
BRANCH  18  21
ATOM     21  C   UNL     1       0.437  10.704  18.653  0.00  0.00    +0.000 C 
BRANCH  21  22
ATOM     22  C   UNL     1      -0.009  11.584  19.801  0.00  0.00    +0.000 A 
ATOM     23  C   UNL     1       0.885  12.486  20.401  0.00  0.00    +0.000 A 
ATOM     24  C   UNL     1       0.515  13.204  21.543  0.00  0.00    +0.000 A 
ATOM     25  C   UNL     1      -0.757  13.039  22.083  0.00  0.00    +0.000 A 
ATOM     26 CL   UNL     1      -1.182  13.861  23.534  0.00  0.00    +0.000 Cl
ATOM     27  C   UNL     1      -1.676  12.189  21.471  0.00  0.00    +0.000 A 
ATOM     28  C   UNL     1      -1.301  11.461  20.337  0.00  0.00    +0.000 A 
ENDBRANCH  21  22
ENDBRANCH  18  21
ENDBRANCH   1  15
TORSDOF 7
ENDMDL
