MODEL 1
REMARK VINA RESULT:      -6.8      0.000      0.000
REMARK  Name = 
REMARK  4 active torsions:
REMARK  status: ('A' for Active; 'I' for Inactive)
REMARK    1  A    between atoms: C_1  and  N_2
REMARK    2  A    between atoms: C_6  and  C_7
REMARK    3  A    between atoms: N_10  and  C_11
REMARK    4  A    between atoms: C_17  and  C_19
REMARK                            x       y       z     vdW  Elec       q    Type
REMARK                         _______ _______ _______ _____ _____    ______ ____
ROOT
ATOM      1  C   UNL     1       3.092  13.718  20.163  0.00  0.00    +0.000 C 
ATOM      2  N   UNL     1       1.744  13.742  19.607  0.00  0.00    +0.000 N 
ATOM      3  C   UNL     1       1.123  14.912  19.211  0.00  0.00    +0.000 C 
ATOM      4  O   UNL     1       1.597  16.035  19.320  0.00  0.00    +0.000 OA
ATOM      5  C   UNL     1      -0.292  14.622  18.835  0.00  0.00    +0.000 C 
ATOM      6  C   UNL     1      -0.323  13.111  18.606  0.00  0.00    +0.000 C 
ATOM      7  C   UNL     1       0.911  12.529  19.404  0.00  0.00    +0.000 C 
ATOM      8  C   UNL     1       1.736  11.543  18.536  0.00  0.00    +0.000 C 
ATOM      9  C   UNL     1       1.025  10.216  18.345  0.00  0.00    +0.000 C 
ATOM     10  N   UNL     1       0.825   9.622  19.665  0.00  0.00    +0.000 N 
ATOM     11  C   UNL     1       1.283   8.390  20.123  0.00  0.00    +0.000 C 
ATOM     12  O   UNL     1       0.904   7.897  21.185  0.00  0.00    +0.000 OA
ATOM     13  C   UNL     1      -0.023  10.407  20.549  0.00  0.00    +0.000 C 
ATOM     14  C   UNL     1       0.562  11.815  20.742  0.00  0.00    +0.000 C 
ENDROOT
BRANCH   6  15
ATOM     15  C   UNL     1      -1.689  12.547  18.876  0.00  0.00    +0.000 A 
ATOM     16  C   UNL     1      -2.561  12.904  19.933  0.00  0.00    +0.000 A 
ATOM     17  N   UNL     1      -3.770  12.354  19.812  0.00  0.00    +0.000 NA
ATOM     18  N   UNL     1      -3.678  11.625  18.690  0.00  0.00    +0.000 N 
ATOM     19  C   UNL     1      -4.875  11.178  18.015  0.00  0.00    +0.000 C 
ATOM     20  C   UNL     1      -2.408  11.588  18.182  0.00  0.00    +0.000 A 
ENDBRANCH   6  15
BRANCH  11  21
ATOM     21  C   UNL     1       2.260   7.607  19.334  0.00  0.00    +0.000 A 
ATOM     22  C   UNL     1       2.800   8.067  18.135  0.00  0.00    +0.000 A 
ATOM     23  C   UNL     1       3.675   7.237  17.462  0.00  0.00    +0.000 A 
ATOM     24  N   UNL     1       4.084   6.043  17.935  0.00  0.00    +0.000 NA
ATOM     25  C   UNL     1       3.609   5.662  19.141  0.00  0.00    +0.000 A 
ATOM     26  C   UNL     1       2.700   6.398  19.870  0.00  0.00    +0.000 A 
ENDBRANCH  11  21
TORSDOF 2
ENDMDL
MODEL 2
REMARK VINA RESULT:      -6.8      2.895      6.627
REMARK  Name = 
REMARK  4 active torsions:
REMARK  status: ('A' for Active; 'I' for Inactive)
REMARK    1  A    between atoms: C_1  and  N_2
REMARK    2  A    between atoms: C_6  and  C_7
REMARK    3  A    between atoms: N_10  and  C_11
REMARK    4  A    between atoms: C_17  and  C_19
REMARK                            x       y       z     vdW  Elec       q    Type
REMARK                         _______ _______ _______ _____ _____    ______ ____
ROOT
ATOM      1  C   UNL     1       0.718   9.729  19.472  0.00  0.00    +0.000 C 
ATOM      2  N   UNL     1       0.130  10.189  20.724  0.00  0.00    +0.000 N 
ATOM      3  C   UNL     1      -0.269   9.319  21.722  0.00  0.00    +0.000 C 
ATOM      4  O   UNL     1      -0.223   8.098  21.656  0.00  0.00    +0.000 OA
ATOM      5  C   UNL     1      -0.966  10.083  22.799  0.00  0.00    +0.000 C 
ATOM      6  C   UNL     1      -0.541  11.535  22.571  0.00  0.00    +0.000 C 
ATOM      7  C   UNL     1      -0.090  11.619  21.058  0.00  0.00    +0.000 C 
ATOM      8  C   UNL     1       1.273  12.344  20.911  0.00  0.00    +0.000 C 
ATOM      9  C   UNL     1       1.151  13.841  21.129  0.00  0.00    +0.000 C 
ATOM     10  N   UNL     1       0.232  14.366  20.122  0.00  0.00    +0.000 N 
ATOM     11  C   UNL     1       0.486  15.342  19.164  0.00  0.00    +0.000 C 
ATOM     12  O   UNL     1      -0.407  15.851  18.485  0.00  0.00    +0.000 OA
ATOM     13  C   UNL     1      -1.120  13.837  20.218  0.00  0.00    +0.000 C 
ATOM     14  C   UNL     1      -1.107  12.305  20.099  0.00  0.00    +0.000 C 
ENDROOT
BRANCH   6  15
ATOM     15  C   UNL     1      -1.587  12.492  23.068  0.00  0.00    +0.000 A 
ATOM     16  C   UNL     1      -2.987  12.280  23.098  0.00  0.00    +0.000 A 
ATOM     17  N   UNL     1      -3.640  13.242  23.750  0.00  0.00    +0.000 NA
ATOM     18  N   UNL     1      -2.670  14.089  24.125  0.00  0.00    +0.000 N 
ATOM     19  C   UNL     1      -2.917  15.059  25.168  0.00  0.00    +0.000 C 
ATOM     20  C   UNL     1      -1.447  13.760  23.608  0.00  0.00    +0.000 A 
ENDBRANCH   6  15
BRANCH  11  21
ATOM     21  C   UNL     1       1.865  15.820  18.919  0.00  0.00    +0.000 A 
ATOM     22  C   UNL     1       2.700  15.251  17.961  0.00  0.00    +0.000 A 
ATOM     23  C   UNL     1       3.981  15.751  17.843  0.00  0.00    +0.000 A 
ATOM     24  N   UNL     1       4.441  16.800  18.554  0.00  0.00    +0.000 NA
ATOM     25  C   UNL     1       3.581  17.386  19.415  0.00  0.00    +0.000 A 
ATOM     26  C   UNL     1       2.296  16.936  19.636  0.00  0.00    +0.000 A 
ENDBRANCH  11  21
TORSDOF 2
ENDMDL
MODEL 3
REMARK VINA RESULT:      -6.6      2.829      6.463
REMARK  Name = 
REMARK  4 active torsions:
REMARK  status: ('A' for Active; 'I' for Inactive)
REMARK    1  A    between atoms: C_1  and  N_2
REMARK    2  A    between atoms: C_6  and  C_7
REMARK    3  A    between atoms: N_10  and  C_11
REMARK    4  A    between atoms: C_17  and  C_19
REMARK                            x       y       z     vdW  Elec       q    Type
REMARK                         _______ _______ _______ _____ _____    ______ ____
ROOT
ATOM      1  C   UNL     1       0.940   9.761  19.411  0.00  0.00    +0.000 C 
ATOM      2  N   UNL     1       0.305  10.182  20.655  0.00  0.00    +0.000 N 
ATOM      3  C   UNL     1      -0.085   9.285  21.632  0.00  0.00    +0.000 C 
ATOM      4  O   UNL     1       0.008   8.068  21.551  0.00  0.00    +0.000 OA
ATOM      5  C   UNL     1      -0.837  10.009  22.700  0.00  0.00    +0.000 C 
ATOM      6  C   UNL     1      -0.461  11.478  22.500  0.00  0.00    +0.000 C 
ATOM      7  C   UNL     1       0.023  11.598  21.001  0.00  0.00    +0.000 C 
ATOM      8  C   UNL     1       1.362  12.375  20.896  0.00  0.00    +0.000 C 
ATOM      9  C   UNL     1       1.179  13.863  21.129  0.00  0.00    +0.000 C 
ATOM     10  N   UNL     1       0.266  14.367  20.107  0.00  0.00    +0.000 N 
ATOM     11  C   UNL     1       0.506  15.365  19.167  0.00  0.00    +0.000 C 
ATOM     12  O   UNL     1      -0.387  15.849  18.472  0.00  0.00    +0.000 OA
ATOM     13  C   UNL     1      -1.067  13.788  20.162  0.00  0.00    +0.000 C 
ATOM     14  C   UNL     1      -0.994  12.259  20.024  0.00  0.00    +0.000 C 
ENDROOT
BRANCH   6  15
ATOM     15  C   UNL     1      -1.554  12.388  22.983  0.00  0.00    +0.000 A 
ATOM     16  C   UNL     1      -1.397  13.675  23.553  0.00  0.00    +0.000 A 
ATOM     17  N   UNL     1      -2.558  14.307  23.727  0.00  0.00    +0.000 NA
ATOM     18  N   UNL     1      -3.470  13.425  23.291  0.00  0.00    +0.000 N 
ATOM     19  C   UNL     1      -4.808  13.865  22.966  0.00  0.00    +0.000 C 
ATOM     20  C   UNL     1      -2.927  12.207  22.982  0.00  0.00    +0.000 A 
ENDBRANCH   6  15
BRANCH  11  21
ATOM     21  C   UNL     1       1.872  15.897  18.963  0.00  0.00    +0.000 A 
ATOM     22  C   UNL     1       2.403  16.926  19.737  0.00  0.00    +0.000 A 
ATOM     23  C   UNL     1       3.675  17.370  19.435  0.00  0.00    +0.000 A 
ATOM     24  N   UNL     1       4.451  16.817  18.482  0.00  0.00    +0.000 NA
ATOM     25  C   UNL     1       3.942  15.765  17.805  0.00  0.00    +0.000 A 
ATOM     26  C   UNL     1       2.669  15.275  18.002  0.00  0.00    +0.000 A 
ENDBRANCH  11  21
TORSDOF 2
ENDMDL
MODEL 4
REMARK VINA RESULT:      -6.5      7.191     11.201
REMARK  Name = 
REMARK  4 active torsions:
REMARK  status: ('A' for Active; 'I' for Inactive)
REMARK    1  A    between atoms: C_1  and  N_2
REMARK    2  A    between atoms: C_6  and  C_7
REMARK    3  A    between atoms: N_10  and  C_11
REMARK    4  A    between atoms: C_17  and  C_19
REMARK                            x       y       z     vdW  Elec       q    Type
REMARK                         _______ _______ _______ _____ _____    ______ ____
ROOT
ATOM      1  C   UNL     1       9.363  11.319  19.404  0.00  0.00    +0.000 C 
ATOM      2  N   UNL     1      10.073  12.348  18.654  0.00  0.00    +0.000 N 
ATOM      3  C   UNL     1      11.272  12.105  18.009  0.00  0.00    +0.000 C 
ATOM      4  O   UNL     1      11.883  11.045  18.030  0.00  0.00    +0.000 OA
ATOM      5  C   UNL     1      11.815  13.387  17.469  0.00  0.00    +0.000 C 
ATOM      6  C   UNL     1      10.613  14.332  17.452  0.00  0.00    +0.000 C 
ATOM      7  C   UNL     1       9.587  13.742  18.500  0.00  0.00    +0.000 C 
ATOM      8  C   UNL     1       8.153  13.670  17.913  0.00  0.00    +0.000 C 
ATOM      9  C   UNL     1       7.509  15.040  17.806  0.00  0.00    +0.000 C 
ATOM     10  N   UNL     1       7.435  15.605  19.151  0.00  0.00    +0.000 N 
ATOM     11  C   UNL     1       6.298  16.017  19.840  0.00  0.00    +0.000 C 
ATOM     12  O   UNL     1       6.356  16.653  20.892  0.00  0.00    +0.000 OA
ATOM     13  C   UNL     1       8.729  15.821  19.777  0.00  0.00    +0.000 C 
ATOM     14  C   UNL     1       9.513  14.501  19.858  0.00  0.00    +0.000 C 
ENDROOT
BRANCH   6  15
ATOM     15  C   UNL     1      11.046  15.764  17.590  0.00  0.00    +0.000 A 
ATOM     16  C   UNL     1      10.484  16.888  16.938  0.00  0.00    +0.000 A 
ATOM     17  N   UNL     1      10.970  18.044  17.390  0.00  0.00    +0.000 NA
ATOM     18  N   UNL     1      11.863  17.672  18.320  0.00  0.00    +0.000 N 
ATOM     19  C   UNL     1      12.332  18.627  19.298  0.00  0.00    +0.000 C 
ATOM     20  C   UNL     1      12.053  16.317  18.365  0.00  0.00    +0.000 A 
ENDBRANCH   6  15
BRANCH  11  21
ATOM     21  C   UNL     1       4.947  15.702  19.324  0.00  0.00    +0.000 A 
ATOM     22  C   UNL     1       4.218  14.594  19.751  0.00  0.00    +0.000 A 
ATOM     23  C   UNL     1       2.982  14.374  19.175  0.00  0.00    +0.000 A 
ATOM     24  N   UNL     1       2.418  15.208  18.279  0.00  0.00    +0.000 NA
ATOM     25  C   UNL     1       3.112  16.320  17.949  0.00  0.00    +0.000 A 
ATOM     26  C   UNL     1       4.370  16.607  18.435  0.00  0.00    +0.000 A 
ENDBRANCH  11  21
TORSDOF 2
ENDMDL
MODEL 5
REMARK VINA RESULT:      -6.5      2.374      6.855
REMARK  Name = 
REMARK  4 active torsions:
REMARK  status: ('A' for Active; 'I' for Inactive)
REMARK    1  A    between atoms: C_1  and  N_2
REMARK    2  A    between atoms: C_6  and  C_7
REMARK    3  A    between atoms: N_10  and  C_11
REMARK    4  A    between atoms: C_17  and  C_19
REMARK                            x       y       z     vdW  Elec       q    Type
REMARK                         _______ _______ _______ _____ _____    ______ ____
ROOT
ATOM      1  C   UNL     1      -0.416  15.968  18.773  0.00  0.00    +0.000 C 
ATOM      2  N   UNL     1       0.225  14.785  19.333  0.00  0.00    +0.000 N 
ATOM      3  C   UNL     1       1.548  14.774  19.734  0.00  0.00    +0.000 C 
ATOM      4  O   UNL     1       2.327  15.712  19.624  0.00  0.00    +0.000 OA
ATOM      5  C   UNL     1       1.942  13.385  20.113  0.00  0.00    +0.000 C 
ATOM      6  C   UNL     1       0.614  12.662  20.340  0.00  0.00    +0.000 C 
ATOM      7  C   UNL     1      -0.469  13.488  19.537  0.00  0.00    +0.000 C 
ATOM      8  C   UNL     1      -1.726  13.767  20.401  0.00  0.00    +0.000 C 
ATOM      9  C   UNL     1      -2.577  12.524  20.591  0.00  0.00    +0.000 C 
ATOM     10  N   UNL     1      -3.008  12.071  19.271  0.00  0.00    +0.000 N 
ATOM     11  C   UNL     1      -4.311  11.908  18.810  0.00  0.00    +0.000 C 
ATOM     12  O   UNL     1      -4.571  11.343  17.748  0.00  0.00    +0.000 OA
ATOM     13  C   UNL     1      -1.918  11.678  18.392  0.00  0.00    +0.000 C 
ATOM     14  C   UNL     1      -0.937  12.845  18.198  0.00  0.00    +0.000 C 
ENDROOT
BRANCH   6  15
ATOM     15  C   UNL     1       0.744  11.189  20.073  0.00  0.00    +0.000 A 
ATOM     16  C   UNL     1       1.355  10.580  18.951  0.00  0.00    +0.000 A 
ATOM     17  N   UNL     1       1.466   9.257  19.078  0.00  0.00    +0.000 NA
ATOM     18  N   UNL     1       0.908   9.004  20.272  0.00  0.00    +0.000 N 
ATOM     19  C   UNL     1       1.163   7.748  20.939  0.00  0.00    +0.000 C 
ATOM     20  C   UNL     1       0.326  10.108  20.832  0.00  0.00    +0.000 A 
ENDBRANCH   6  15
BRANCH  11  21
ATOM     21  C   UNL     1      -5.459  12.416  19.594  0.00  0.00    +0.000 A 
ATOM     22  C   UNL     1      -5.805  13.765  19.634  0.00  0.00    +0.000 A 
ATOM     23  C   UNL     1      -6.873  14.133  20.429  0.00  0.00    +0.000 A 
ATOM     24  N   UNL     1      -7.634  13.253  21.110  0.00  0.00    +0.000 NA
ATOM     25  C   UNL     1      -7.326  11.944  20.984  0.00  0.00    +0.000 A 
ATOM     26  C   UNL     1      -6.256  11.479  20.250  0.00  0.00    +0.000 A 
ENDBRANCH  11  21
TORSDOF 2
ENDMDL
MODEL 6
REMARK VINA RESULT:      -6.4      2.217      6.554
REMARK  Name = 
REMARK  4 active torsions:
REMARK  status: ('A' for Active; 'I' for Inactive)
REMARK    1  A    between atoms: C_1  and  N_2
REMARK    2  A    between atoms: C_6  and  C_7
REMARK    3  A    between atoms: N_10  and  C_11
REMARK    4  A    between atoms: C_17  and  C_19
REMARK                            x       y       z     vdW  Elec       q    Type
REMARK                         _______ _______ _______ _____ _____    ______ ____
ROOT
ATOM      1  C   UNL     1      -0.753  15.831  19.852  0.00  0.00    +0.000 C 
ATOM      2  N   UNL     1       0.058  14.626  19.977  0.00  0.00    +0.000 N 
ATOM      3  C   UNL     1       1.345  14.645  20.482  0.00  0.00    +0.000 C 
ATOM      4  O   UNL     1       1.954  15.649  20.827  0.00  0.00    +0.000 OA
ATOM      5  C   UNL     1       1.957  13.291  20.335  0.00  0.00    +0.000 C 
ATOM      6  C   UNL     1       0.766  12.357  20.121  0.00  0.00    +0.000 C 
ATOM      7  C   UNL     1      -0.408  13.271  19.589  0.00  0.00    +0.000 C 
ATOM      8  C   UNL     1      -1.731  13.001  20.353  0.00  0.00    +0.000 C 
ATOM      9  C   UNL     1      -2.361  11.679  19.956  0.00  0.00    +0.000 C 
ATOM     10  N   UNL     1      -2.651  11.733  18.525  0.00  0.00    +0.000 N 
ATOM     11  C   UNL     1      -3.885  11.584  17.900  0.00  0.00    +0.000 C 
ATOM     12  O   UNL     1      -3.998  11.458  16.680  0.00  0.00    +0.000 OA
ATOM     13  C   UNL     1      -1.473  11.882  17.685  0.00  0.00    +0.000 C 
ATOM     14  C   UNL     1      -0.701  13.156  18.064  0.00  0.00    +0.000 C 
ENDROOT
BRANCH   6  15
ATOM     15  C   UNL     1       1.160  11.147  19.322  0.00  0.00    +0.000 A 
ATOM     16  C   UNL     1       1.941  11.127  18.141  0.00  0.00    +0.000 A 
ATOM     17  N   UNL     1       2.263   9.892  17.757  0.00  0.00    +0.000 NA
ATOM     18  N   UNL     1       1.675   9.109  18.674  0.00  0.00    +0.000 N 
ATOM     19  C   UNL     1       2.090   7.732  18.828  0.00  0.00    +0.000 C 
ATOM     20  C   UNL     1       0.878   9.808  19.539  0.00  0.00    +0.000 A 
ENDBRANCH   6  15
BRANCH  11  21
ATOM     21  C   UNL     1      -5.136  11.569  18.691  0.00  0.00    +0.000 A 
ATOM     22  C   UNL     1      -5.560  12.658  19.450  0.00  0.00    +0.000 A 
ATOM     23  C   UNL     1      -6.724  12.521  20.180  0.00  0.00    +0.000 A 
ATOM     24  N   UNL     1      -7.501  11.420  20.144  0.00  0.00    +0.000 NA
ATOM     25  C   UNL     1      -7.109  10.413  19.333  0.00  0.00    +0.000 A 
ATOM     26  C   UNL     1      -5.943  10.437  18.597  0.00  0.00    +0.000 A 
ENDBRANCH  11  21
TORSDOF 2
ENDMDL
MODEL 7
REMARK VINA RESULT:      -6.4      1.151      1.280
REMARK  Name = 
REMARK  4 active torsions:
REMARK  status: ('A' for Active; 'I' for Inactive)
REMARK    1  A    between atoms: C_1  and  N_2
REMARK    2  A    between atoms: C_6  and  C_7
REMARK    3  A    between atoms: N_10  and  C_11
REMARK    4  A    between atoms: C_17  and  C_19
REMARK                            x       y       z     vdW  Elec       q    Type
REMARK                         _______ _______ _______ _____ _____    ______ ____
ROOT
ATOM      1  C   UNL     1       3.372  13.859  19.316  0.00  0.00    +0.000 C 
ATOM      2  N   UNL     1       1.927  14.022  19.206  0.00  0.00    +0.000 N 
ATOM      3  C   UNL     1       1.340  15.197  18.775  0.00  0.00    +0.000 C 
ATOM      4  O   UNL     1       1.942  16.224  18.491  0.00  0.00    +0.000 OA
ATOM      5  C   UNL     1      -0.142  15.096  18.922  0.00  0.00    +0.000 C 
ATOM      6  C   UNL     1      -0.411  13.596  19.045  0.00  0.00    +0.000 C 
ATOM      7  C   UNL     1       0.948  12.954  19.533  0.00  0.00    +0.000 C 
ATOM      8  C   UNL     1       1.324  11.708  18.689  0.00  0.00    +0.000 C 
ATOM      9  C   UNL     1       0.450  10.511  19.016  0.00  0.00    +0.000 C 
ATOM     10  N   UNL     1       0.639  10.192  20.429  0.00  0.00    +0.000 N 
ATOM     11  C   UNL     1       1.087   8.994  20.980  0.00  0.00    +0.000 C 
ATOM     12  O   UNL     1       1.033   8.761  22.187  0.00  0.00    +0.000 OA
ATOM     13  C   UNL     1       0.225  11.249  21.338  0.00  0.00    +0.000 C 
ATOM     14  C   UNL     1       0.989  12.548  21.036  0.00  0.00    +0.000 C 
ENDROOT
BRANCH   6  15
ATOM     15  C   UNL     1      -1.661  13.331  19.834  0.00  0.00    +0.000 A 
ATOM     16  C   UNL     1      -2.102  14.024  20.987  0.00  0.00    +0.000 A 
ATOM     17  N   UNL     1      -3.330  13.671  21.364  0.00  0.00    +0.000 NA
ATOM     18  N   UNL     1      -3.681  12.734  20.470  0.00  0.00    +0.000 N 
ATOM     19  C   UNL     1      -5.071  12.370  20.307  0.00  0.00    +0.000 C 
ATOM     20  C   UNL     1      -2.657  12.388  19.631  0.00  0.00    +0.000 A 
ENDBRANCH   6  15
BRANCH  11  21
ATOM     21  C   UNL     1       1.654   7.933  20.118  0.00  0.00    +0.000 A 
ATOM     22  C   UNL     1       2.215   8.196  18.871  0.00  0.00    +0.000 A 
ATOM     23  C   UNL     1       2.681   7.124  18.135  0.00  0.00    +0.000 A 
ATOM     24  N   UNL     1       2.683   5.854  18.586  0.00  0.00    +0.000 NA
ATOM     25  C   UNL     1       2.211   5.641  19.834  0.00  0.00    +0.000 A 
ATOM     26  C   UNL     1       1.686   6.637  20.630  0.00  0.00    +0.000 A 
ENDBRANCH  11  21
TORSDOF 2
ENDMDL
MODEL 8
REMARK VINA RESULT:      -6.3      3.621      7.071
REMARK  Name = 
REMARK  4 active torsions:
REMARK  status: ('A' for Active; 'I' for Inactive)
REMARK    1  A    between atoms: C_1  and  N_2
REMARK    2  A    between atoms: C_6  and  C_7
REMARK    3  A    between atoms: N_10  and  C_11
REMARK    4  A    between atoms: C_17  and  C_19
REMARK                            x       y       z     vdW  Elec       q    Type
REMARK                         _______ _______ _______ _____ _____    ______ ____
ROOT
ATOM      1  C   UNL     1      -3.598  16.322  22.144  0.00  0.00    +0.000 C 
ATOM      2  N   UNL     1      -3.325  14.892  22.069  0.00  0.00    +0.000 N 
ATOM      3  C   UNL     1      -4.271  13.936  22.390  0.00  0.00    +0.000 C 
ATOM      4  O   UNL     1      -5.397  14.168  22.808  0.00  0.00    +0.000 OA
ATOM      5  C   UNL     1      -3.640  12.583  22.361  0.00  0.00    +0.000 C 
ATOM      6  C   UNL     1      -2.358  12.778  21.549  0.00  0.00    +0.000 C 
ATOM      7  C   UNL     1      -2.024  14.320  21.637  0.00  0.00    +0.000 C 
ATOM      8  C   UNL     1      -1.700  14.912  20.241  0.00  0.00    +0.000 C 
ATOM      9  C   UNL     1      -0.335  14.478  19.738  0.00  0.00    +0.000 C 
ATOM     10  N   UNL     1       0.665  14.954  20.691  0.00  0.00    +0.000 N 
ATOM     11  C   UNL     1       1.740  15.802  20.445  0.00  0.00    +0.000 C 
ATOM     12  O   UNL     1       2.634  15.994  21.269  0.00  0.00    +0.000 OA
ATOM     13  C   UNL     1       0.532  14.389  22.025  0.00  0.00    +0.000 C 
ATOM     14  C   UNL     1      -0.860  14.695  22.601  0.00  0.00    +0.000 C 
ENDROOT
BRANCH   6  15
ATOM     15  C   UNL     1      -1.305  11.786  21.950  0.00  0.00    +0.000 A 
ATOM     16  C   UNL     1      -1.148  11.178  23.219  0.00  0.00    +0.000 A 
ATOM     17  N   UNL     1      -0.227  10.215  23.221  0.00  0.00    +0.000 NA
ATOM     18  N   UNL     1       0.231  10.210  21.960  0.00  0.00    +0.000 N 
ATOM     19  C   UNL     1       0.967   9.071  21.459  0.00  0.00    +0.000 C 
ATOM     20  C   UNL     1      -0.274  11.234  21.206  0.00  0.00    +0.000 A 
ENDBRANCH   6  15
BRANCH  11  21
ATOM     21  C   UNL     1       1.856  16.520  19.156  0.00  0.00    +0.000 A 
ATOM     22  C   UNL     1       1.012  17.569  18.800  0.00  0.00    +0.000 A 
ATOM     23  C   UNL     1       1.186  18.143  17.556  0.00  0.00    +0.000 A 
ATOM     24  N   UNL     1       2.166  17.789  16.702  0.00  0.00    +0.000 NA
ATOM     25  C   UNL     1       3.022  16.826  17.109  0.00  0.00    +0.000 A 
ATOM     26  C   UNL     1       2.908  16.164  18.313  0.00  0.00    +0.000 A 
ENDBRANCH  11  21
TORSDOF 2
ENDMDL
MODEL 9
REMARK VINA RESULT:      -6.3      2.644      6.993
REMARK  Name = 
REMARK  4 active torsions:
REMARK  status: ('A' for Active; 'I' for Inactive)
REMARK    1  A    between atoms: C_1  and  N_2
REMARK    2  A    between atoms: C_6  and  C_7
REMARK    3  A    between atoms: N_10  and  C_11
REMARK    4  A    between atoms: C_17  and  C_19
REMARK                            x       y       z     vdW  Elec       q    Type
REMARK                         _______ _______ _______ _____ _____    ______ ____
ROOT
ATOM      1  C   UNL     1       0.032  16.177  18.476  0.00  0.00    +0.000 C 
ATOM      2  N   UNL     1       0.690  14.967  18.956  0.00  0.00    +0.000 N 
ATOM      3  C   UNL     1       2.063  14.806  18.926  0.00  0.00    +0.000 C 
ATOM      4  O   UNL     1       2.859  15.612  18.464  0.00  0.00    +0.000 OA
ATOM      5  C   UNL     1       2.408  13.413  19.338  0.00  0.00    +0.000 C 
ATOM      6  C   UNL     1       1.155  12.906  20.053  0.00  0.00    +0.000 C 
ATOM      7  C   UNL     1      -0.034  13.803  19.526  0.00  0.00    +0.000 C 
ATOM      8  C   UNL     1      -0.909  14.330  20.693  0.00  0.00    +0.000 C 
ATOM      9  C   UNL     1      -1.780  13.240  21.292  0.00  0.00    +0.000 C 
ATOM     10  N   UNL     1      -2.658  12.739  20.238  0.00  0.00    +0.000 N 
ATOM     11  C   UNL     1      -4.050  12.722  20.226  0.00  0.00    +0.000 C 
ATOM     12  O   UNL     1      -4.696  12.109  19.376  0.00  0.00    +0.000 OA
ATOM     13  C   UNL     1      -1.958  12.123  19.122  0.00  0.00    +0.000 C 
ATOM     14  C   UNL     1      -0.974  13.120  18.490  0.00  0.00    +0.000 C 
ENDROOT
BRANCH   6  15
ATOM     15  C   UNL     1       1.037  11.412  19.948  0.00  0.00    +0.000 A 
ATOM     16  C   UNL     1       1.327  10.614  18.815  0.00  0.00    +0.000 A 
ATOM     17  N   UNL     1       1.287   9.308  19.079  0.00  0.00    +0.000 NA
ATOM     18  N   UNL     1       0.950   9.256  20.376  0.00  0.00    +0.000 N 
ATOM     19  C   UNL     1       1.166   8.043  21.133  0.00  0.00    +0.000 C 
ATOM     20  C   UNL     1       0.640  10.483  20.897  0.00  0.00    +0.000 A 
ENDBRANCH   6  15
BRANCH  11  21
ATOM     21  C   UNL     1      -4.823  13.452  21.255  0.00  0.00    +0.000 A 
ATOM     22  C   UNL     1      -5.186  14.790  21.116  0.00  0.00    +0.000 A 
ATOM     23  C   UNL     1      -5.875  15.382  22.156  0.00  0.00    +0.000 A 
ATOM     24  N   UNL     1      -6.272  14.720  23.261  0.00  0.00    +0.000 NA
ATOM     25  C   UNL     1      -5.981  13.403  23.329  0.00  0.00    +0.000 A 
ATOM     26  C   UNL     1      -5.261  12.730  22.364  0.00  0.00    +0.000 A 
ENDBRANCH  11  21
TORSDOF 2
ENDMDL
