MODEL 1
REMARK VINA RESULT:      -7.2      0.000      0.000
REMARK  Name = 
REMARK  3 active torsions:
REMARK  status: ('A' for Active; 'I' for Inactive)
REMARK    1  A    between atoms: C_7  and  C_8
REMARK    2  A    between atoms: C_8  and  N_9
REMARK    3  A    between atoms: C_13  and  C_14
REMARK                            x       y       z     vdW  Elec       q    Type
REMARK                         _______ _______ _______ _____ _____    ______ ____
ROOT
ATOM      1  N   UNL     1       1.939   5.106  19.337  0.00  0.00    +0.000 NA
ATOM      2  C   UNL     1       2.100   3.953  20.230  0.00  0.00    +0.000 C 
ATOM      3  C   UNL     1       2.748   2.648  19.730  0.00  0.00    +0.000 C 
ATOM      4  O   UNL     1       2.952   2.467  18.334  0.00  0.00    +0.000 OA
ATOM      5  C   UNL     1       3.149   3.655  17.561  0.00  0.00    +0.000 C 
ATOM      6  C   UNL     1       2.065   4.709  17.921  0.00  0.00    +0.000 C 
ENDROOT
BRANCH   5   7
ATOM      7  C   UNL     1       4.603   4.083  17.419  0.00  0.00    +0.000 A 
ATOM      8  C   UNL     1       5.211   4.190  16.162  0.00  0.00    +0.000 A 
ATOM      9  C   UNL     1       6.587   4.442  16.056  0.00  0.00    +0.000 A 
ATOM     10  C   UNL     1       7.319   4.587  17.222  0.00  0.00    +0.000 A 
ATOM     11  N   UNL     1       6.779   4.492  18.451  0.00  0.00    +0.000 NA
ATOM     12  C   UNL     1       5.448   4.225  18.518  0.00  0.00    +0.000 A 
ENDBRANCH   5   7
BRANCH   1  13
ATOM     13  C   UNL     1       2.786   6.267  19.646  0.00  0.00    +0.000 C 
BRANCH  13  20
ATOM     14 CL   UNL     1       1.137   7.922  21.711  0.00  0.00    +0.000 Cl
ATOM     15  C   UNL     1       1.438   8.375  20.070  0.00  0.00    +0.000 A 
ATOM     16  C   UNL     1       0.859   9.541  19.594  0.00  0.00    +0.000 A 
ATOM     17  N   UNL     1       1.089  10.057  18.364  0.00  0.00    +0.000 NA
ATOM     18  C   UNL     1       1.963   9.381  17.590  0.00  0.00    +0.000 A 
ATOM     19  C   UNL     1       2.576   8.192  17.968  0.00  0.00    +0.000 A 
ATOM     20  C   UNL     1       2.265   7.628  19.218  0.00  0.00    +0.000 A 
ENDBRANCH  13  20
ENDBRANCH   1  13
TORSDOF 3
ENDMDL
MODEL 2
REMARK VINA RESULT:      -7.2      1.287      1.696
REMARK  Name = 
REMARK  3 active torsions:
REMARK  status: ('A' for Active; 'I' for Inactive)
REMARK    1  A    between atoms: C_7  and  C_8
REMARK    2  A    between atoms: C_8  and  N_9
REMARK    3  A    between atoms: C_13  and  C_14
REMARK                            x       y       z     vdW  Elec       q    Type
REMARK                         _______ _______ _______ _____ _____    ______ ____
ROOT
ATOM      1  N   UNL     1       1.918   5.061  19.574  0.00  0.00    +0.000 NA
ATOM      2  C   UNL     1       2.178   4.023  20.579  0.00  0.00    +0.000 C 
ATOM      3  C   UNL     1       2.901   2.717  20.199  0.00  0.00    +0.000 C 
ATOM      4  O   UNL     1       3.083   2.400  18.824  0.00  0.00    +0.000 OA
ATOM      5  C   UNL     1       3.181   3.508  17.925  0.00  0.00    +0.000 C 
ATOM      6  C   UNL     1       2.037   4.522  18.204  0.00  0.00    +0.000 C 
ENDROOT
BRANCH   5   7
ATOM      7  C   UNL     1       4.599   4.012  17.693  0.00  0.00    +0.000 A 
ATOM      8  C   UNL     1       5.149   4.072  16.407  0.00  0.00    +0.000 A 
ATOM      9  C   UNL     1       6.502   4.398  16.227  0.00  0.00    +0.000 A 
ATOM     10  C   UNL     1       7.268   4.663  17.348  0.00  0.00    +0.000 A 
ATOM     11  N   UNL     1       6.784   4.618  18.602  0.00  0.00    +0.000 NA
ATOM     12  C   UNL     1       5.476   4.277  18.744  0.00  0.00    +0.000 A 
ENDBRANCH   5   7
BRANCH   1  13
ATOM     13  C   UNL     1       2.692   6.301  19.732  0.00  0.00    +0.000 C 
BRANCH  13  20
ATOM     14 CL   UNL     1       2.444   8.344  17.390  0.00  0.00    +0.000 Cl
ATOM     15  C   UNL     1       1.836   8.573  18.992  0.00  0.00    +0.000 A 
ATOM     16  C   UNL     1       1.234   9.783  19.299  0.00  0.00    +0.000 A 
ATOM     17  N   UNL     1       0.635  10.055  20.482  0.00  0.00    +0.000 NA
ATOM     18  C   UNL     1       0.619   9.053  21.385  0.00  0.00    +0.000 A 
ATOM     19  C   UNL     1       1.214   7.813  21.179  0.00  0.00    +0.000 A 
ATOM     20  C   UNL     1       1.901   7.575  19.975  0.00  0.00    +0.000 A 
ENDBRANCH  13  20
ENDBRANCH   1  13
TORSDOF 3
ENDMDL
MODEL 3
REMARK VINA RESULT:      -7.0      1.783      2.245
REMARK  Name = 
REMARK  3 active torsions:
REMARK  status: ('A' for Active; 'I' for Inactive)
REMARK    1  A    between atoms: C_7  and  C_8
REMARK    2  A    between atoms: C_8  and  N_9
REMARK    3  A    between atoms: C_13  and  C_14
REMARK                            x       y       z     vdW  Elec       q    Type
REMARK                         _______ _______ _______ _____ _____    ______ ____
ROOT
ATOM      1  N   UNL     1       2.034   5.860  19.257  0.00  0.00    +0.000 NA
ATOM      2  C   UNL     1       2.108   4.662  20.101  0.00  0.00    +0.000 C 
ATOM      3  C   UNL     1       3.083   3.517  19.767  0.00  0.00    +0.000 C 
ATOM      4  O   UNL     1       3.724   3.501  18.497  0.00  0.00    +0.000 OA
ATOM      5  C   UNL     1       3.944   4.773  17.881  0.00  0.00    +0.000 C 
ATOM      6  C   UNL     1       2.643   5.622  17.933  0.00  0.00    +0.000 C 
ENDROOT
BRANCH   5   7
ATOM      7  C   UNL     1       5.282   5.416  18.220  0.00  0.00    +0.000 A 
ATOM      8  C   UNL     1       5.934   6.261  17.312  0.00  0.00    +0.000 A 
ATOM      9  C   UNL     1       7.230   6.726  17.580  0.00  0.00    +0.000 A 
ATOM     10  C   UNL     1       7.838   6.335  18.760  0.00  0.00    +0.000 A 
ATOM     11  N   UNL     1       7.251   5.526  19.661  0.00  0.00    +0.000 NA
ATOM     12  C   UNL     1       6.005   5.074  19.361  0.00  0.00    +0.000 A 
ENDBRANCH   5   7
BRANCH   1  13
ATOM     13  C   UNL     1       2.545   7.095  19.868  0.00  0.00    +0.000 C 
BRANCH  13  20
ATOM     14 CL   UNL     1       1.968   9.273  17.713  0.00  0.00    +0.000 Cl
ATOM     15  C   UNL     1       1.293   9.230  19.303  0.00  0.00    +0.000 A 
ATOM     16  C   UNL     1       0.467  10.272  19.694  0.00  0.00    +0.000 A 
ATOM     17  N   UNL     1      -0.199  10.313  20.872  0.00  0.00    +0.000 NA
ATOM     18  C   UNL     1      -0.046   9.243  21.680  0.00  0.00    +0.000 A 
ATOM     19  C   UNL     1       0.777   8.161  21.386  0.00  0.00    +0.000 A 
ATOM     20  C   UNL     1       1.523   8.171  20.194  0.00  0.00    +0.000 A 
ENDBRANCH  13  20
ENDBRANCH   1  13
TORSDOF 3
ENDMDL
MODEL 4
REMARK VINA RESULT:      -7.0      1.733      2.220
REMARK  Name = 
REMARK  3 active torsions:
REMARK  status: ('A' for Active; 'I' for Inactive)
REMARK    1  A    between atoms: C_7  and  C_8
REMARK    2  A    between atoms: C_8  and  N_9
REMARK    3  A    between atoms: C_13  and  C_14
REMARK                            x       y       z     vdW  Elec       q    Type
REMARK                         _______ _______ _______ _____ _____    ______ ____
ROOT
ATOM      1  N   UNL     1       2.272   5.336  19.381  0.00  0.00    +0.000 NA
ATOM      2  C   UNL     1       2.699   4.201  20.208  0.00  0.00    +0.000 C 
ATOM      3  C   UNL     1       3.640   3.120  19.645  0.00  0.00    +0.000 C 
ATOM      4  O   UNL     1       3.888   3.078  18.245  0.00  0.00    +0.000 OA
ATOM      5  C   UNL     1       3.801   4.324  17.547  0.00  0.00    +0.000 C 
ATOM      6  C   UNL     1       2.496   5.067  17.947  0.00  0.00    +0.000 C 
ENDROOT
BRANCH   5   7
ATOM      7  C   UNL     1       5.112   5.092  17.458  0.00  0.00    +0.000 A 
ATOM      8  C   UNL     1       6.223   4.729  18.230  0.00  0.00    +0.000 A 
ATOM      9  C   UNL     1       7.372   5.533  18.245  0.00  0.00    +0.000 A 
ATOM     10  C   UNL     1       7.378   6.683  17.475  0.00  0.00    +0.000 A 
ATOM     11  N   UNL     1       6.336   7.073  16.719  0.00  0.00    +0.000 NA
ATOM     12  C   UNL     1       5.230   6.283  16.744  0.00  0.00    +0.000 A 
ENDBRANCH   5   7
BRANCH   1  13
ATOM     13  C   UNL     1       2.818   6.643  19.773  0.00  0.00    +0.000 C 
BRANCH  13  20
ATOM     14 CL   UNL     1       2.266   8.728  17.522  0.00  0.00    +0.000 Cl
ATOM     15  C   UNL     1       1.596   8.768  19.114  0.00  0.00    +0.000 A 
ATOM     16  C   UNL     1       0.787   9.839  19.460  0.00  0.00    +0.000 A 
ATOM     17  N   UNL     1       0.127   9.945  20.637  0.00  0.00    +0.000 NA
ATOM     18  C   UNL     1       0.267   8.910  21.492  0.00  0.00    +0.000 A 
ATOM     19  C   UNL     1       1.072   7.804  21.246  0.00  0.00    +0.000 A 
ATOM     20  C   UNL     1       1.814   7.748  20.053  0.00  0.00    +0.000 A 
ENDBRANCH  13  20
ENDBRANCH   1  13
TORSDOF 3
ENDMDL
MODEL 5
REMARK VINA RESULT:      -6.9      1.047      1.181
REMARK  Name = 
REMARK  3 active torsions:
REMARK  status: ('A' for Active; 'I' for Inactive)
REMARK    1  A    between atoms: C_7  and  C_8
REMARK    2  A    between atoms: C_8  and  N_9
REMARK    3  A    between atoms: C_13  and  C_14
REMARK                            x       y       z     vdW  Elec       q    Type
REMARK                         _______ _______ _______ _____ _____    ______ ____
ROOT
ATOM      1  N   UNL     1       2.031   5.247  19.251  0.00  0.00    +0.000 NA
ATOM      2  C   UNL     1       2.219   3.956  19.922  0.00  0.00    +0.000 C 
ATOM      3  C   UNL     1       3.265   2.945  19.415  0.00  0.00    +0.000 C 
ATOM      4  O   UNL     1       3.866   3.149  18.142  0.00  0.00    +0.000 OA
ATOM      5  C   UNL     1       3.974   4.505  17.701  0.00  0.00    +0.000 C 
ATOM      6  C   UNL     1       2.616   5.236  17.895  0.00  0.00    +0.000 C 
ENDROOT
BRANCH   5   7
ATOM      7  C   UNL     1       5.270   5.198  18.096  0.00  0.00    +0.000 A 
ATOM      8  C   UNL     1       5.988   5.977  17.180  0.00  0.00    +0.000 A 
ATOM      9  C   UNL     1       7.251   6.486  17.517  0.00  0.00    +0.000 A 
ATOM     10  C   UNL     1       7.760   6.204  18.772  0.00  0.00    +0.000 A 
ATOM     11  N   UNL     1       7.108   5.461  19.684  0.00  0.00    +0.000 NA
ATOM     12  C   UNL     1       5.897   4.964  19.320  0.00  0.00    +0.000 A 
ENDBRANCH   5   7
BRANCH   1  13
ATOM     13  C   UNL     1       2.469   6.425  20.014  0.00  0.00    +0.000 C 
BRANCH  13  20
ATOM     14 CL   UNL     1       0.954   8.369  21.924  0.00  0.00    +0.000 Cl
ATOM     15  C   UNL     1       1.292   8.661  20.254  0.00  0.00    +0.000 A 
ATOM     16  C   UNL     1       0.808   9.826  19.679  0.00  0.00    +0.000 A 
ATOM     17  N   UNL     1       1.079  10.219  18.413  0.00  0.00    +0.000 NA
ATOM     18  C   UNL     1       1.898   9.415  17.703  0.00  0.00    +0.000 A 
ATOM     19  C   UNL     1       2.414   8.216  18.183  0.00  0.00    +0.000 A 
ATOM     20  C   UNL     1       2.058   7.783  19.472  0.00  0.00    +0.000 A 
ENDBRANCH  13  20
ENDBRANCH   1  13
TORSDOF 3
ENDMDL
MODEL 6
REMARK VINA RESULT:      -6.8      3.195      5.073
REMARK  Name = 
REMARK  3 active torsions:
REMARK  status: ('A' for Active; 'I' for Inactive)
REMARK    1  A    between atoms: C_7  and  C_8
REMARK    2  A    between atoms: C_8  and  N_9
REMARK    3  A    between atoms: C_13  and  C_14
REMARK                            x       y       z     vdW  Elec       q    Type
REMARK                         _______ _______ _______ _____ _____    ______ ____
ROOT
ATOM      1  N   UNL     1       5.227   5.120  17.740  0.00  0.00    +0.000 NA
ATOM      2  C   UNL     1       5.407   6.575  17.674  0.00  0.00    +0.000 C 
ATOM      3  C   UNL     1       6.607   7.191  16.931  0.00  0.00    +0.000 C 
ATOM      4  O   UNL     1       7.682   6.349  16.533  0.00  0.00    +0.000 OA
ATOM      5  C   UNL     1       7.352   4.984  16.261  0.00  0.00    +0.000 C 
ATOM      6  C   UNL     1       6.478   4.409  17.410  0.00  0.00    +0.000 C 
ENDROOT
BRANCH   5   7
ATOM      7  C   UNL     1       6.981   4.699  14.812  0.00  0.00    +0.000 A 
ATOM      8  C   UNL     1       5.978   3.778  14.485  0.00  0.00    +0.000 A 
ATOM      9  C   UNL     1       5.750   3.420  13.148  0.00  0.00    +0.000 A 
ATOM     10  C   UNL     1       6.534   4.004  12.169  0.00  0.00    +0.000 A 
ATOM     11  N   UNL     1       7.508   4.894  12.435  0.00  0.00    +0.000 NA
ATOM     12  C   UNL     1       7.718   5.202  13.741  0.00  0.00    +0.000 A 
ENDBRANCH   5   7
BRANCH   1  13
ATOM     13  C   UNL     1       4.091   4.589  16.972  0.00  0.00    +0.000 C 
BRANCH  13  20
ATOM     14 CL   UNL     1       2.102   6.390  18.560  0.00  0.00    +0.000 Cl
ATOM     15  C   UNL     1       2.123   4.662  18.573  0.00  0.00    +0.000 A 
ATOM     16  C   UNL     1       1.225   4.001  19.396  0.00  0.00    +0.000 A 
ATOM     17  N   UNL     1       1.072   2.657  19.430  0.00  0.00    +0.000 NA
ATOM     18  C   UNL     1       1.841   1.949  18.576  0.00  0.00    +0.000 A 
ATOM     19  C   UNL     1       2.785   2.518  17.729  0.00  0.00    +0.000 A 
ATOM     20  C   UNL     1       2.987   3.910  17.764  0.00  0.00    +0.000 A 
ENDBRANCH  13  20
ENDBRANCH   1  13
TORSDOF 3
ENDMDL
MODEL 7
REMARK VINA RESULT:      -6.7      0.690      1.095
REMARK  Name = 
REMARK  3 active torsions:
REMARK  status: ('A' for Active; 'I' for Inactive)
REMARK    1  A    between atoms: C_7  and  C_8
REMARK    2  A    between atoms: C_8  and  N_9
REMARK    3  A    between atoms: C_13  and  C_14
REMARK                            x       y       z     vdW  Elec       q    Type
REMARK                         _______ _______ _______ _____ _____    ______ ____
ROOT
ATOM      1  N   UNL     1       1.962   4.921  19.291  0.00  0.00    +0.000 NA
ATOM      2  C   UNL     1       2.105   3.743  20.156  0.00  0.00    +0.000 C 
ATOM      3  C   UNL     1       2.703   2.431  19.615  0.00  0.00    +0.000 C 
ATOM      4  O   UNL     1       2.875   2.275  18.211  0.00  0.00    +0.000 OA
ATOM      5  C   UNL     1       3.094   3.474  17.461  0.00  0.00    +0.000 C 
ATOM      6  C   UNL     1       2.050   4.552  17.864  0.00  0.00    +0.000 C 
ENDROOT
BRANCH   5   7
ATOM      7  C   UNL     1       4.557   3.861  17.300  0.00  0.00    +0.000 A 
ATOM      8  C   UNL     1       5.339   4.229  18.403  0.00  0.00    +0.000 A 
ATOM      9  C   UNL     1       6.639   4.723  18.219  0.00  0.00    +0.000 A 
ATOM     10  C   UNL     1       7.126   4.827  16.928  0.00  0.00    +0.000 A 
ATOM     11  N   UNL     1       6.413   4.486  15.839  0.00  0.00    +0.000 NA
ATOM     12  C   UNL     1       5.149   4.033  16.049  0.00  0.00    +0.000 A 
ENDBRANCH   5   7
BRANCH   1  13
ATOM     13  C   UNL     1       2.851   6.048  19.609  0.00  0.00    +0.000 C 
BRANCH  13  20
ATOM     14 CL   UNL     1       1.166   7.720  21.631  0.00  0.00    +0.000 Cl
ATOM     15  C   UNL     1       1.544   8.187  20.011  0.00  0.00    +0.000 A 
ATOM     16  C   UNL     1       1.017   9.375  19.529  0.00  0.00    +0.000 A 
ATOM     17  N   UNL     1       1.309   9.901  18.317  0.00  0.00    +0.000 NA
ATOM     18  C   UNL     1       2.195   9.212  17.568  0.00  0.00    +0.000 A 
ATOM     19  C   UNL     1       2.760   8.002  17.953  0.00  0.00    +0.000 A 
ATOM     20  C   UNL     1       2.384   7.429  19.181  0.00  0.00    +0.000 A 
ENDBRANCH  13  20
ENDBRANCH   1  13
TORSDOF 3
ENDMDL
MODEL 8
REMARK VINA RESULT:      -6.7      1.735      3.320
REMARK  Name = 
REMARK  3 active torsions:
REMARK  status: ('A' for Active; 'I' for Inactive)
REMARK    1  A    between atoms: C_7  and  C_8
REMARK    2  A    between atoms: C_8  and  N_9
REMARK    3  A    between atoms: C_13  and  C_14
REMARK                            x       y       z     vdW  Elec       q    Type
REMARK                         _______ _______ _______ _____ _____    ______ ____
ROOT
ATOM      1  N   UNL     1       4.337   6.738  17.743  0.00  0.00    +0.000 NA
ATOM      2  C   UNL     1       4.875   6.294  16.452  0.00  0.00    +0.000 C 
ATOM      3  C   UNL     1       5.601   4.942  16.318  0.00  0.00    +0.000 C 
ATOM      4  O   UNL     1       5.983   4.242  17.496  0.00  0.00    +0.000 OA
ATOM      5  C   UNL     1       5.172   4.458  18.654  0.00  0.00    +0.000 C 
ATOM      6  C   UNL     1       4.935   5.980  18.861  0.00  0.00    +0.000 C 
ENDROOT
BRANCH   5   7
ATOM      7  C   UNL     1       4.012   3.483  18.805  0.00  0.00    +0.000 A 
ATOM      8  C   UNL     1       3.408   2.891  17.689  0.00  0.00    +0.000 A 
ATOM      9  C   UNL     1       2.250   2.113  17.836  0.00  0.00    +0.000 A 
ATOM     10  C   UNL     1       1.730   1.943  19.107  0.00  0.00    +0.000 A 
ATOM     11  N   UNL     1       2.275   2.492  20.208  0.00  0.00    +0.000 NA
ATOM     12  C   UNL     1       3.383   3.258  20.029  0.00  0.00    +0.000 A 
ENDBRANCH   5   7
BRANCH   1  13
ATOM     13  C   UNL     1       2.871   6.769  17.840  0.00  0.00    +0.000 C 
BRANCH  13  20
ATOM     14 CL   UNL     1       1.857   6.516  20.777  0.00  0.00    +0.000 Cl
ATOM     15  C   UNL     1       1.694   7.914  19.775  0.00  0.00    +0.000 A 
ATOM     16  C   UNL     1       1.008   9.008  20.280  0.00  0.00    +0.000 A 
ATOM     17  N   UNL     1       0.890  10.194  19.638  0.00  0.00    +0.000 NA
ATOM     18  C   UNL     1       1.516  10.290  18.446  0.00  0.00    +0.000 A 
ATOM     19  C   UNL     1       2.209   9.244  17.848  0.00  0.00    +0.000 A 
ATOM     20  C   UNL     1       2.254   7.994  18.491  0.00  0.00    +0.000 A 
ENDBRANCH  13  20
ENDBRANCH   1  13
TORSDOF 3
ENDMDL
MODEL 9
REMARK VINA RESULT:      -6.6      3.719      5.292
REMARK  Name = 
REMARK  3 active torsions:
REMARK  status: ('A' for Active; 'I' for Inactive)
REMARK    1  A    between atoms: C_7  and  C_8
REMARK    2  A    between atoms: C_8  and  N_9
REMARK    3  A    between atoms: C_13  and  C_14
REMARK                            x       y       z     vdW  Elec       q    Type
REMARK                         _______ _______ _______ _____ _____    ______ ____
ROOT
ATOM      1  N   UNL     1       5.662   4.569  17.925  0.00  0.00    +0.000 NA
ATOM      2  C   UNL     1       5.277   5.985  17.901  0.00  0.00    +0.000 C 
ATOM      3  C   UNL     1       6.032   6.997  17.020  0.00  0.00    +0.000 C 
ATOM      4  O   UNL     1       7.268   6.614  16.429  0.00  0.00    +0.000 OA
ATOM      5  C   UNL     1       7.431   5.221  16.144  0.00  0.00    +0.000 C 
ATOM      6  C   UNL     1       7.021   4.375  17.382  0.00  0.00    +0.000 C 
ENDROOT
BRANCH   5   7
ATOM      7  C   UNL     1       6.974   4.801  14.755  0.00  0.00    +0.000 A 
ATOM      8  C   UNL     1       5.869   3.959  14.575  0.00  0.00    +0.000 A 
ATOM      9  C   UNL     1       5.551   3.465  13.301  0.00  0.00    +0.000 A 
ATOM     10  C   UNL     1       6.351   3.836  12.235  0.00  0.00    +0.000 A 
ATOM     11  N   UNL     1       7.421   4.642  12.358  0.00  0.00    +0.000 NA
ATOM     12  C   UNL     1       7.715   5.085  13.609  0.00  0.00    +0.000 A 
ENDBRANCH   5   7
BRANCH   1  13
ATOM     13  C   UNL     1       4.701   3.643  17.309  0.00  0.00    +0.000 C 
BRANCH  13  20
ATOM     14 CL   UNL     1       4.719   2.037  19.981  0.00  0.00    +0.000 Cl
ATOM     15  C   UNL     1       3.312   2.651  19.188  0.00  0.00    +0.000 A 
ATOM     16  C   UNL     1       2.072   2.369  19.738  0.00  0.00    +0.000 A 
ATOM     17  N   UNL     1       0.902   2.865  19.272  0.00  0.00    +0.000 NA
ATOM     18  C   UNL     1       0.990   3.706  18.220  0.00  0.00    +0.000 A 
ATOM     19  C   UNL     1       2.183   4.032  17.586  0.00  0.00    +0.000 A 
ATOM     20  C   UNL     1       3.380   3.445  18.033  0.00  0.00    +0.000 A 
ENDBRANCH  13  20
ENDBRANCH   1  13
TORSDOF 3
ENDMDL
