MODEL 1
REMARK VINA RESULT:      -7.9      0.000      0.000
REMARK  Name = 
REMARK  4 active torsions:
REMARK  status: ('A' for Active; 'I' for Inactive)
REMARK    1  A    between atoms: C_2  and  C_17
REMARK    2  A    between atoms: N_3  and  C_4
REMARK    3  A    between atoms: C_7  and  C_8
REMARK    4  A    between atoms: N_20  and  C_21
REMARK                            x       y       z     vdW  Elec       q    Type
REMARK                         _______ _______ _______ _____ _____    ______ ____
ROOT
ATOM      1  O   UNL     1       0.898   9.606  18.644  0.00  0.00    +0.000 OA
ATOM      2  C   UNL     1       1.319   8.929  19.575  0.00  0.00    +0.000 C 
ATOM      3  N   UNL     1       1.176   9.230  20.916  0.00  0.00    +0.000 N 
ATOM      4  H   UNL     1       1.683   8.634  21.566  0.00  0.00    +0.000 HD
ENDROOT
BRANCH   3   5
ATOM      5  C   UNL     1       0.471  10.337  21.437  0.00  0.00    +0.000 A 
ATOM      6  C   UNL     1       0.693  11.644  21.004  0.00  0.00    +0.000 A 
ATOM      7  C   UNL     1      -0.065  12.706  21.501  0.00  0.00    +0.000 A 
ATOM      8  C   UNL     1      -1.092  12.493  22.427  0.00  0.00    +0.000 A 
ATOM      9  C   UNL     1      -1.253  11.191  22.932  0.00  0.00    +0.000 A 
ATOM     10  C   UNL     1      -0.502  10.131  22.417  0.00  0.00    +0.000 A 
ATOM     11  F   UNL     1      -0.732   8.891  22.878  0.00  0.00    +0.000 F 
BRANCH   8  12
ATOM     12  C   UNL     1      -2.002  13.639  22.861  0.00  0.00    +0.000 C 
ATOM     13  C   UNL     1      -2.105  14.828  21.856  0.00  0.00    +0.000 C 
ATOM     14  N   UNL     1      -2.777  14.458  20.594  0.00  0.00    +0.000 NA
ATOM     15  C   UNL     1      -4.119  13.954  20.936  0.00  0.00    +0.000 C 
ATOM     16  C   UNL     1      -4.090  12.834  21.988  0.00  0.00    +0.000 C 
ATOM     17  O   UNL     1      -3.337  13.178  23.163  0.00  0.00    +0.000 OA
ATOM     18  H   UNL     1      -2.251  13.695  20.163  0.00  0.00    +0.000 HD
ENDBRANCH   8  12
ENDBRANCH   3   5
BRANCH   2  19
ATOM     19  C   UNL     1       2.087   7.711  19.292  0.00  0.00    +0.000 A 
ATOM     20  C   UNL     1       2.218   6.636  20.200  0.00  0.00    +0.000 A 
ATOM     21  C   UNL     1       2.993   5.714  19.554  0.00  0.00    +0.000 A 
ATOM     22  N   UNL     1       3.327   6.249  18.330  0.00  0.00    +0.000 N 
ATOM     23  N   UNL     1       2.755   7.476  18.148  0.00  0.00    +0.000 NA
BRANCH  22  24
ATOM     24  C   UNL     1       4.149   5.649  17.333  0.00  0.00    +0.000 A 
ATOM     25  C   UNL     1       4.832   6.444  16.395  0.00  0.00    +0.000 A 
ATOM     26  C   UNL     1       5.649   5.847  15.432  0.00  0.00    +0.000 A 
ATOM     27  C   UNL     1       5.776   4.465  15.401  0.00  0.00    +0.000 A 
ATOM     28  F   UNL     1       6.564   3.899  14.477  0.00  0.00    +0.000 F 
ATOM     29  C   UNL     1       5.098   3.663  16.311  0.00  0.00    +0.000 A 
ATOM     30  C   UNL     1       4.283   4.252  17.282  0.00  0.00    +0.000 A 
ENDBRANCH  22  24
ENDBRANCH   2  19
TORSDOF 4
ENDMDL
MODEL 2
REMARK VINA RESULT:      -7.9      2.732     10.376
REMARK  Name = 
REMARK  4 active torsions:
REMARK  status: ('A' for Active; 'I' for Inactive)
REMARK    1  A    between atoms: C_2  and  C_17
REMARK    2  A    between atoms: N_3  and  C_4
REMARK    3  A    between atoms: C_7  and  C_8
REMARK    4  A    between atoms: N_20  and  C_21
REMARK                            x       y       z     vdW  Elec       q    Type
REMARK                         _______ _______ _______ _____ _____    ______ ____
ROOT
ATOM      1  O   UNL     1       1.289  10.207  19.383  0.00  0.00    +0.000 OA
ATOM      2  C   UNL     1       0.995   9.490  20.333  0.00  0.00    +0.000 C 
ATOM      3  N   UNL     1       1.319   8.153  20.460  0.00  0.00    +0.000 N 
ATOM      4  H   UNL     1       0.902   7.664  21.248  0.00  0.00    +0.000 HD
ENDROOT
BRANCH   3   5
ATOM      5  C   UNL     1       2.091   7.405  19.544  0.00  0.00    +0.000 A 
ATOM      6  C   UNL     1       2.558   7.936  18.341  0.00  0.00    +0.000 A 
ATOM      7  C   UNL     1       3.369   7.185  17.489  0.00  0.00    +0.000 A 
ATOM      8  C   UNL     1       3.766   5.886  17.825  0.00  0.00    +0.000 A 
ATOM      9  C   UNL     1       3.221   5.319  18.989  0.00  0.00    +0.000 A 
ATOM     10  C   UNL     1       2.424   6.083  19.846  0.00  0.00    +0.000 A 
ATOM     11  F   UNL     1       1.978   5.527  20.984  0.00  0.00    +0.000 F 
BRANCH   8  12
ATOM     12  C   UNL     1       4.761   5.123  16.952  0.00  0.00    +0.000 C 
ATOM     13  C   UNL     1       5.513   5.984  15.890  0.00  0.00    +0.000 C 
ATOM     14  N   UNL     1       6.434   6.968  16.494  0.00  0.00    +0.000 NA
ATOM     15  C   UNL     1       7.393   6.224  17.329  0.00  0.00    +0.000 C 
ATOM     16  C   UNL     1       6.711   5.293  18.343  0.00  0.00    +0.000 C 
ATOM     17  O   UNL     1       5.739   4.418  17.747  0.00  0.00    +0.000 OA
ATOM     18  H   UNL     1       5.892   7.582  17.104  0.00  0.00    +0.000 HD
ENDBRANCH   8  12
ENDBRANCH   3   5
BRANCH   2  19
ATOM     19  C   UNL     1       0.192  10.040  21.431  0.00  0.00    +0.000 A 
ATOM     20  C   UNL     1      -0.178   9.304  22.579  0.00  0.00    +0.000 A 
ATOM     21  C   UNL     1      -0.902  10.174  23.344  0.00  0.00    +0.000 A 
ATOM     22  N   UNL     1      -0.978  11.361  22.651  0.00  0.00    +0.000 N 
ATOM     23  N   UNL     1      -0.287  11.297  21.473  0.00  0.00    +0.000 NA
BRANCH  22  24
ATOM     24  C   UNL     1      -1.663  12.543  23.055  0.00  0.00    +0.000 A 
ATOM     25  C   UNL     1      -3.013  12.489  23.446  0.00  0.00    +0.000 A 
ATOM     26  C   UNL     1      -3.672  13.651  23.857  0.00  0.00    +0.000 A 
ATOM     27  C   UNL     1      -2.988  14.859  23.869  0.00  0.00    +0.000 A 
ATOM     28  F   UNL     1      -3.624  15.969  24.266  0.00  0.00    +0.000 F 
ATOM     29  C   UNL     1      -1.658  14.933  23.472  0.00  0.00    +0.000 A 
ATOM     30  C   UNL     1      -0.989  13.774  23.066  0.00  0.00    +0.000 A 
ENDBRANCH  22  24
ENDBRANCH   2  19
TORSDOF 4
ENDMDL
MODEL 3
REMARK VINA RESULT:      -7.9      2.839     10.500
REMARK  Name = 
REMARK  4 active torsions:
REMARK  status: ('A' for Active; 'I' for Inactive)
REMARK    1  A    between atoms: C_2  and  C_17
REMARK    2  A    between atoms: N_3  and  C_4
REMARK    3  A    between atoms: C_7  and  C_8
REMARK    4  A    between atoms: N_20  and  C_21
REMARK                            x       y       z     vdW  Elec       q    Type
REMARK                         _______ _______ _______ _____ _____    ______ ____
ROOT
ATOM      1  O   UNL     1       1.608  10.016  22.117  0.00  0.00    +0.000 OA
ATOM      2  C   UNL     1       0.763  10.279  21.269  0.00  0.00    +0.000 C 
ATOM      3  N   UNL     1       0.683   9.709  20.012  0.00  0.00    +0.000 N 
ATOM      4  H   UNL     1       0.000  10.117  19.378  0.00  0.00    +0.000 HD
ENDROOT
BRANCH   3   5
ATOM      5  C   UNL     1       1.524   8.688  19.519  0.00  0.00    +0.000 A 
ATOM      6  C   UNL     1       1.755   7.500  20.214  0.00  0.00    +0.000 A 
ATOM      7  C   UNL     1       2.546   6.488  19.667  0.00  0.00    +0.000 A 
ATOM      8  C   UNL     1       3.110   6.617  18.393  0.00  0.00    +0.000 A 
ATOM      9  C   UNL     1       2.954   7.849  17.734  0.00  0.00    +0.000 A 
ATOM     10  C   UNL     1       2.147   8.850  18.280  0.00  0.00    +0.000 A 
ATOM     11  F   UNL     1       1.968   9.987  17.588  0.00  0.00    +0.000 F 
BRANCH   8  12
ATOM     12  C   UNL     1       3.860   5.453  17.749  0.00  0.00    +0.000 C 
ATOM     13  C   UNL     1       4.841   5.845  16.601  0.00  0.00    +0.000 C 
ATOM     14  N   UNL     1       5.994   6.637  17.074  0.00  0.00    +0.000 NA
ATOM     15  C   UNL     1       6.690   5.839  18.099  0.00  0.00    +0.000 C 
ATOM     16  C   UNL     1       5.758   5.352  19.218  0.00  0.00    +0.000 C 
ATOM     17  O   UNL     1       4.586   4.678  18.728  0.00  0.00    +0.000 OA
ATOM     18  H   UNL     1       5.639   7.486  17.520  0.00  0.00    +0.000 HD
ENDBRANCH   8  12
ENDBRANCH   3   5
BRANCH   2  19
ATOM     19  C   UNL     1      -0.239  11.314  21.545  0.00  0.00    +0.000 A 
ATOM     20  C   UNL     1      -0.052  12.685  21.262  0.00  0.00    +0.000 A 
ATOM     21  C   UNL     1      -1.209  13.294  21.657  0.00  0.00    +0.000 A 
ATOM     22  N   UNL     1      -2.026  12.317  22.181  0.00  0.00    +0.000 N 
ATOM     23  N   UNL     1      -1.444  11.083  22.098  0.00  0.00    +0.000 NA
BRANCH  22  24
ATOM     24  C   UNL     1      -3.321  12.499  22.743  0.00  0.00    +0.000 A 
ATOM     25  C   UNL     1      -3.528  12.360  24.128  0.00  0.00    +0.000 A 
ATOM     26  C   UNL     1      -4.799  12.557  24.672  0.00  0.00    +0.000 A 
ATOM     27  C   UNL     1      -5.859  12.883  23.837  0.00  0.00    +0.000 A 
ATOM     28  F   UNL     1      -7.076  13.073  24.365  0.00  0.00    +0.000 F 
ATOM     29  C   UNL     1      -5.677  13.011  22.465  0.00  0.00    +0.000 A 
ATOM     30  C   UNL     1      -4.407  12.821  21.913  0.00  0.00    +0.000 A 
ENDBRANCH  22  24
ENDBRANCH   2  19
TORSDOF 4
ENDMDL
MODEL 4
REMARK VINA RESULT:      -7.9      2.902     10.120
REMARK  Name = 
REMARK  4 active torsions:
REMARK  status: ('A' for Active; 'I' for Inactive)
REMARK    1  A    between atoms: C_2  and  C_17
REMARK    2  A    between atoms: N_3  and  C_4
REMARK    3  A    between atoms: C_7  and  C_8
REMARK    4  A    between atoms: N_20  and  C_21
REMARK                            x       y       z     vdW  Elec       q    Type
REMARK                         _______ _______ _______ _____ _____    ______ ____
ROOT
ATOM      1  O   UNL     1       2.164  10.419  17.621  0.00  0.00    +0.000 OA
ATOM      2  C   UNL     1       1.465  10.155  18.593  0.00  0.00    +0.000 C 
ATOM      3  N   UNL     1       1.431   8.939  19.249  0.00  0.00    +0.000 N 
ATOM      4  H   UNL     1       0.713   8.836  19.963  0.00  0.00    +0.000 HD
ENDROOT
BRANCH   3   5
ATOM      5  C   UNL     1       2.236   7.820  18.947  0.00  0.00    +0.000 A 
ATOM      6  C   UNL     1       2.991   7.728  17.777  0.00  0.00    +0.000 A 
ATOM      7  C   UNL     1       3.821   6.632  17.539  0.00  0.00    +0.000 A 
ATOM      8  C   UNL     1       3.949   5.602  18.479  0.00  0.00    +0.000 A 
ATOM      9  C   UNL     1       3.120   5.649  19.612  0.00  0.00    +0.000 A 
ATOM     10  C   UNL     1       2.304   6.758  19.851  0.00  0.00    +0.000 A 
ATOM     11  F   UNL     1       1.578   6.797  20.980  0.00  0.00    +0.000 F 
BRANCH   8  12
ATOM     12  C   UNL     1       4.960   4.477  18.271  0.00  0.00    +0.000 C 
ATOM     13  C   UNL     1       5.774   4.548  16.942  0.00  0.00    +0.000 C 
ATOM     14  N   UNL     1       6.692   5.703  16.891  0.00  0.00    +0.000 NA
ATOM     15  C   UNL     1       7.600   5.600  18.048  0.00  0.00    +0.000 C 
ATOM     16  C   UNL     1       6.856   5.444  19.383  0.00  0.00    +0.000 C 
ATOM     17  O   UNL     1       5.888   4.381  19.373  0.00  0.00    +0.000 OA
ATOM     18  H   UNL     1       6.141   6.557  16.995  0.00  0.00    +0.000 HD
ENDBRANCH   8  12
ENDBRANCH   3   5
BRANCH   2  19
ATOM     19  C   UNL     1       0.536  11.165  19.110  0.00  0.00    +0.000 A 
ATOM     20  C   UNL     1       0.479  12.495  18.637  0.00  0.00    +0.000 A 
ATOM     21  C   UNL     1      -0.511  13.092  19.366  0.00  0.00    +0.000 A 
ATOM     22  N   UNL     1      -0.988  12.152  20.253  0.00  0.00    +0.000 N 
ATOM     23  N   UNL     1      -0.362  10.949  20.089  0.00  0.00    +0.000 NA
BRANCH  22  24
ATOM     24  C   UNL     1      -2.006  12.341  21.230  0.00  0.00    +0.000 A 
ATOM     25  C   UNL     1      -3.209  12.990  20.896  0.00  0.00    +0.000 A 
ATOM     26  C   UNL     1      -4.208  13.156  21.858  0.00  0.00    +0.000 A 
ATOM     27  C   UNL     1      -4.004  12.683  23.147  0.00  0.00    +0.000 A 
ATOM     28  F   UNL     1      -4.967  12.843  24.065  0.00  0.00    +0.000 F 
ATOM     29  C   UNL     1      -2.817  12.052  23.499  0.00  0.00    +0.000 A 
ATOM     30  C   UNL     1      -1.813  11.877  22.541  0.00  0.00    +0.000 A 
ENDBRANCH  22  24
ENDBRANCH   2  19
TORSDOF 4
ENDMDL
MODEL 5
REMARK VINA RESULT:      -7.9      2.936     10.543
REMARK  Name = 
REMARK  4 active torsions:
REMARK  status: ('A' for Active; 'I' for Inactive)
REMARK    1  A    between atoms: C_2  and  C_17
REMARK    2  A    between atoms: N_3  and  C_4
REMARK    3  A    between atoms: C_7  and  C_8
REMARK    4  A    between atoms: N_20  and  C_21
REMARK                            x       y       z     vdW  Elec       q    Type
REMARK                         _______ _______ _______ _____ _____    ______ ____
ROOT
ATOM      1  O   UNL     1       1.555   8.947  22.125  0.00  0.00    +0.000 OA
ATOM      2  C   UNL     1       0.950   9.323  21.127  0.00  0.00    +0.000 C 
ATOM      3  N   UNL     1       1.126   8.827  19.849  0.00  0.00    +0.000 N 
ATOM      4  H   UNL     1       0.638   9.323  19.106  0.00  0.00    +0.000 HD
ENDROOT
BRANCH   3   5
ATOM      5  C   UNL     1       1.987   7.768  19.490  0.00  0.00    +0.000 A 
ATOM      6  C   UNL     1       2.182   6.648  20.299  0.00  0.00    +0.000 A 
ATOM      7  C   UNL     1       2.996   5.592  19.884  0.00  0.00    +0.000 A 
ATOM      8  C   UNL     1       3.621   5.608  18.633  0.00  0.00    +0.000 A 
ATOM      9  C   UNL     1       3.501   6.775  17.859  0.00  0.00    +0.000 A 
ATOM     10  C   UNL     1       2.670   7.820  18.273  0.00  0.00    +0.000 A 
ATOM     11  F   UNL     1       2.527   8.890  17.474  0.00  0.00    +0.000 F 
BRANCH   8  12
ATOM     12  C   UNL     1       4.398   4.392  18.133  0.00  0.00    +0.000 C 
ATOM     13  C   UNL     1       4.586   3.246  19.174  0.00  0.00    +0.000 C 
ATOM     14  N   UNL     1       3.316   2.583  19.535  0.00  0.00    +0.000 NA
ATOM     15  C   UNL     1       2.720   2.060  18.293  0.00  0.00    +0.000 C 
ATOM     16  C   UNL     1       2.585   3.126  17.195  0.00  0.00    +0.000 C 
ATOM     17  O   UNL     1       3.810   3.834  16.938  0.00  0.00    +0.000 OA
ATOM     18  H   UNL     1       2.684   3.288  19.918  0.00  0.00    +0.000 HD
ENDBRANCH   8  12
ENDBRANCH   3   5
BRANCH   2  19
ATOM     19  C   UNL     1      -0.017  10.420  21.239  0.00  0.00    +0.000 A 
ATOM     20  C   UNL     1      -0.745  10.940  20.145  0.00  0.00    +0.000 A 
ATOM     21  C   UNL     1      -1.527  11.928  20.673  0.00  0.00    +0.000 A 
ATOM     22  N   UNL     1      -1.240  12.001  22.018  0.00  0.00    +0.000 N 
ATOM     23  N   UNL     1      -0.321  11.058  22.384  0.00  0.00    +0.000 NA
BRANCH  22  24
ATOM     24  C   UNL     1      -1.798  12.910  22.961  0.00  0.00    +0.000 A 
ATOM     25  C   UNL     1      -1.081  14.050  23.368  0.00  0.00    +0.000 A 
ATOM     26  C   UNL     1      -1.644  14.944  24.282  0.00  0.00    +0.000 A 
ATOM     27  C   UNL     1      -2.912  14.698  24.791  0.00  0.00    +0.000 A 
ATOM     28  F   UNL     1      -3.448  15.561  25.665  0.00  0.00    +0.000 F 
ATOM     29  C   UNL     1      -3.629  13.570  24.410  0.00  0.00    +0.000 A 
ATOM     30  C   UNL     1      -3.076  12.672  23.493  0.00  0.00    +0.000 A 
ENDBRANCH  22  24
ENDBRANCH   2  19
TORSDOF 4
ENDMDL
MODEL 6
REMARK VINA RESULT:      -7.8      2.672     10.369
REMARK  Name = 
REMARK  4 active torsions:
REMARK  status: ('A' for Active; 'I' for Inactive)
REMARK    1  A    between atoms: C_2  and  C_17
REMARK    2  A    between atoms: N_3  and  C_4
REMARK    3  A    between atoms: C_7  and  C_8
REMARK    4  A    between atoms: N_20  and  C_21
REMARK                            x       y       z     vdW  Elec       q    Type
REMARK                         _______ _______ _______ _____ _____    ______ ____
ROOT
ATOM      1  O   UNL     1      -0.051   9.930  18.225  0.00  0.00    +0.000 OA
ATOM      2  C   UNL     1       0.378  10.001  19.371  0.00  0.00    +0.000 C 
ATOM      3  N   UNL     1       1.357   9.191  19.913  0.00  0.00    +0.000 N 
ATOM      4  H   UNL     1       1.520   9.293  20.912  0.00  0.00    +0.000 HD
ENDROOT
BRANCH   3   5
ATOM      5  C   UNL     1       2.067   8.186  19.220  0.00  0.00    +0.000 A 
ATOM      6  C   UNL     1       2.679   8.409  17.987  0.00  0.00    +0.000 A 
ATOM      7  C   UNL     1       3.422   7.408  17.359  0.00  0.00    +0.000 A 
ATOM      8  C   UNL     1       3.604   6.157  17.959  0.00  0.00    +0.000 A 
ATOM      9  C   UNL     1       2.912   5.902  19.155  0.00  0.00    +0.000 A 
ATOM     10  C   UNL     1       2.184   6.915  19.785  0.00  0.00    +0.000 A 
ATOM     11  F   UNL     1       1.592   6.651  20.962  0.00  0.00    +0.000 F 
BRANCH   8  12
ATOM     12  C   UNL     1       4.528   5.117  17.331  0.00  0.00    +0.000 C 
ATOM     13  C   UNL     1       5.420   5.636  16.160  0.00  0.00    +0.000 C 
ATOM     14  N   UNL     1       6.432   6.617  16.600  0.00  0.00    +0.000 NA
ATOM     15  C   UNL     1       7.261   5.968  17.632  0.00  0.00    +0.000 C 
ATOM     16  C   UNL     1       6.432   5.362  18.774  0.00  0.00    +0.000 C 
ATOM     17  O   UNL     1       5.382   4.494  18.316  0.00  0.00    +0.000 OA
ATOM     18  H   UNL     1       5.948   7.407  17.032  0.00  0.00    +0.000 HD
ENDBRANCH   8  12
ENDBRANCH   3   5
BRANCH   2  19
ATOM     19  C   UNL     1      -0.199  10.981  20.298  0.00  0.00    +0.000 A 
ATOM     20  C   UNL     1       0.539  12.031  20.890  0.00  0.00    +0.000 A 
ATOM     21  C   UNL     1      -0.361  12.707  21.666  0.00  0.00    +0.000 A 
ATOM     22  N   UNL     1      -1.568  12.053  21.555  0.00  0.00    +0.000 N 
ATOM     23  N   UNL     1      -1.485  10.995  20.694  0.00  0.00    +0.000 NA
BRANCH  22  24
ATOM     24  C   UNL     1      -2.784  12.390  22.215  0.00  0.00    +0.000 A 
ATOM     25  C   UNL     1      -2.903  12.251  23.610  0.00  0.00    +0.000 A 
ATOM     26  C   UNL     1      -4.094  12.599  24.251  0.00  0.00    +0.000 A 
ATOM     27  C   UNL     1      -5.162  13.076  23.502  0.00  0.00    +0.000 A 
ATOM     28  F   UNL     1      -6.301  13.410  24.123  0.00  0.00    +0.000 F 
ATOM     29  C   UNL     1      -5.067  13.206  22.122  0.00  0.00    +0.000 A 
ATOM     30  C   UNL     1      -3.876  12.866  21.473  0.00  0.00    +0.000 A 
ENDBRANCH  22  24
ENDBRANCH   2  19
TORSDOF 4
ENDMDL
MODEL 7
REMARK VINA RESULT:      -7.8      2.945     10.621
REMARK  Name = 
REMARK  4 active torsions:
REMARK  status: ('A' for Active; 'I' for Inactive)
REMARK    1  A    between atoms: C_2  and  C_17
REMARK    2  A    between atoms: N_3  and  C_4
REMARK    3  A    between atoms: C_7  and  C_8
REMARK    4  A    between atoms: N_20  and  C_21
REMARK                            x       y       z     vdW  Elec       q    Type
REMARK                         _______ _______ _______ _____ _____    ______ ____
ROOT
ATOM      1  O   UNL     1       1.623   8.894  22.049  0.00  0.00    +0.000 OA
ATOM      2  C   UNL     1       1.006   9.260  21.054  0.00  0.00    +0.000 C 
ATOM      3  N   UNL     1       1.179   8.765  19.775  0.00  0.00    +0.000 N 
ATOM      4  H   UNL     1       0.680   9.252  19.035  0.00  0.00    +0.000 HD
ENDROOT
BRANCH   3   5
ATOM      5  C   UNL     1       2.051   7.715  19.413  0.00  0.00    +0.000 A 
ATOM      6  C   UNL     1       2.258   6.595  20.218  0.00  0.00    +0.000 A 
ATOM      7  C   UNL     1       3.082   5.549  19.799  0.00  0.00    +0.000 A 
ATOM      8  C   UNL     1       3.704   5.574  18.546  0.00  0.00    +0.000 A 
ATOM      9  C   UNL     1       3.570   6.742  17.776  0.00  0.00    +0.000 A 
ATOM     10  C   UNL     1       2.729   7.776  18.194  0.00  0.00    +0.000 A 
ATOM     11  F   UNL     1       2.574   8.847  17.398  0.00  0.00    +0.000 F 
BRANCH   8  12
ATOM     12  C   UNL     1       4.493   4.368  18.042  0.00  0.00    +0.000 C 
ATOM     13  C   UNL     1       4.985   4.462  16.564  0.00  0.00    +0.000 C 
ATOM     14  N   UNL     1       6.003   5.513  16.363  0.00  0.00    +0.000 NA
ATOM     15  C   UNL     1       7.131   5.217  17.264  0.00  0.00    +0.000 C 
ATOM     16  C   UNL     1       6.699   5.030  18.726  0.00  0.00    +0.000 C 
ATOM     17  O   UNL     1       5.630   4.081  18.886  0.00  0.00    +0.000 OA
ATOM     18  H   UNL     1       5.600   6.409  16.643  0.00  0.00    +0.000 HD
ENDBRANCH   8  12
ENDBRANCH   3   5
BRANCH   2  19
ATOM     19  C   UNL     1       0.027  10.346  21.171  0.00  0.00    +0.000 A 
ATOM     20  C   UNL     1      -0.715  10.855  20.082  0.00  0.00    +0.000 A 
ATOM     21  C   UNL     1      -1.506  11.835  20.614  0.00  0.00    +0.000 A 
ATOM     22  N   UNL     1      -1.209  11.913  21.956  0.00  0.00    +0.000 N 
ATOM     23  N   UNL     1      -0.277  10.982  22.317  0.00  0.00    +0.000 NA
BRANCH  22  24
ATOM     24  C   UNL     1      -1.772  12.817  22.902  0.00  0.00    +0.000 A 
ATOM     25  C   UNL     1      -3.061  12.600  23.422  0.00  0.00    +0.000 A 
ATOM     26  C   UNL     1      -3.597  13.483  24.362  0.00  0.00    +0.000 A 
ATOM     27  C   UNL     1      -2.854  14.581  24.774  0.00  0.00    +0.000 A 
ATOM     28  F   UNL     1      -3.373  15.423  25.678  0.00  0.00    +0.000 F 
ATOM     29  C   UNL     1      -1.584  14.819  24.261  0.00  0.00    +0.000 A 
ATOM     30  C   UNL     1      -1.037  13.937  23.324  0.00  0.00    +0.000 A 
ENDBRANCH  22  24
ENDBRANCH   2  19
TORSDOF 4
ENDMDL
MODEL 8
REMARK VINA RESULT:      -7.7      3.033     10.593
REMARK  Name = 
REMARK  4 active torsions:
REMARK  status: ('A' for Active; 'I' for Inactive)
REMARK    1  A    between atoms: C_2  and  C_17
REMARK    2  A    between atoms: N_3  and  C_4
REMARK    3  A    between atoms: C_7  and  C_8
REMARK    4  A    between atoms: N_20  and  C_21
REMARK                            x       y       z     vdW  Elec       q    Type
REMARK                         _______ _______ _______ _____ _____    ______ ____
ROOT
ATOM      1  O   UNL     1       1.655   8.998  22.445  0.00  0.00    +0.000 OA
ATOM      2  C   UNL     1       0.984   9.257  21.452  0.00  0.00    +0.000 C 
ATOM      3  N   UNL     1       1.059   8.599  20.239  0.00  0.00    +0.000 N 
ATOM      4  H   UNL     1       0.524   9.006  19.476  0.00  0.00    +0.000 HD
ENDROOT
BRANCH   3   5
ATOM      5  C   UNL     1       1.878   7.483  19.960  0.00  0.00    +0.000 A 
ATOM      6  C   UNL     1       1.864   6.324  20.736  0.00  0.00    +0.000 A 
ATOM      7  C   UNL     1       2.645   5.219  20.394  0.00  0.00    +0.000 A 
ATOM      8  C   UNL     1       3.445   5.224  19.246  0.00  0.00    +0.000 A 
ATOM      9  C   UNL     1       3.531   6.423  18.518  0.00  0.00    +0.000 A 
ATOM     10  C   UNL     1       2.732   7.519  18.856  0.00  0.00    +0.000 A 
ATOM     11  F   UNL     1       2.792   8.623  18.094  0.00  0.00    +0.000 F 
BRANCH   8  12
ATOM     12  C   UNL     1       4.190   3.965  18.808  0.00  0.00    +0.000 C 
ATOM     13  C   UNL     1       3.870   2.679  19.632  0.00  0.00    +0.000 C 
ATOM     14  N   UNL     1       2.482   2.209  19.448  0.00  0.00    +0.000 NA
ATOM     15  C   UNL     1       2.283   1.963  18.009  0.00  0.00    +0.000 C 
ATOM     16  C   UNL     1       2.662   3.169  17.135  0.00  0.00    +0.000 C 
ATOM     17  O   UNL     1       3.978   3.678  17.409  0.00  0.00    +0.000 OA
ATOM     18  H   UNL     1       1.849   2.959  19.732  0.00  0.00    +0.000 HD
ENDBRANCH   8  12
ENDBRANCH   3   5
BRANCH   2  19
ATOM     19  C   UNL     1       0.042  10.381  21.491  0.00  0.00    +0.000 A 
ATOM     20  C   UNL     1      -0.592  10.914  20.346  0.00  0.00    +0.000 A 
ATOM     21  C   UNL     1      -1.383  11.926  20.813  0.00  0.00    +0.000 A 
ATOM     22  N   UNL     1      -1.190  11.999  22.175  0.00  0.00    +0.000 N 
ATOM     23  N   UNL     1      -0.325  11.033  22.609  0.00  0.00    +0.000 NA
BRANCH  22  24
ATOM     24  C   UNL     1      -1.788  12.928  23.072  0.00  0.00    +0.000 A 
ATOM     25  C   UNL     1      -3.085  12.708  23.571  0.00  0.00    +0.000 A 
ATOM     26  C   UNL     1      -3.658  13.617  24.463  0.00  0.00    +0.000 A 
ATOM     27  C   UNL     1      -2.942  14.742  24.850  0.00  0.00    +0.000 A 
ATOM     28  F   UNL     1      -3.495  15.609  25.709  0.00  0.00    +0.000 F 
ATOM     29  C   UNL     1      -1.665  14.983  24.357  0.00  0.00    +0.000 A 
ATOM     30  C   UNL     1      -1.082  14.075  23.467  0.00  0.00    +0.000 A 
ENDBRANCH  22  24
ENDBRANCH   2  19
TORSDOF 4
ENDMDL
MODEL 9
REMARK VINA RESULT:      -7.7      3.009     10.590
REMARK  Name = 
REMARK  4 active torsions:
REMARK  status: ('A' for Active; 'I' for Inactive)
REMARK    1  A    between atoms: C_2  and  C_17
REMARK    2  A    between atoms: N_3  and  C_4
REMARK    3  A    between atoms: C_7  and  C_8
REMARK    4  A    between atoms: N_20  and  C_21
REMARK                            x       y       z     vdW  Elec       q    Type
REMARK                         _______ _______ _______ _____ _____    ______ ____
ROOT
ATOM      1  O   UNL     1      -0.598   8.343  21.511  0.00  0.00    +0.000 OA
ATOM      2  C   UNL     1       0.209   9.173  21.108  0.00  0.00    +0.000 C 
ATOM      3  N   UNL     1       1.358   8.894  20.393  0.00  0.00    +0.000 N 
ATOM      4  H   UNL     1       1.988   9.677  20.234  0.00  0.00    +0.000 HD
ENDROOT
BRANCH   3   5
ATOM      5  C   UNL     1       1.762   7.613  19.957  0.00  0.00    +0.000 A 
ATOM      6  C   UNL     1       1.572   6.462  20.722  0.00  0.00    +0.000 A 
ATOM      7  C   UNL     1       1.931   5.205  20.232  0.00  0.00    +0.000 A 
ATOM      8  C   UNL     1       2.466   5.052  18.949  0.00  0.00    +0.000 A 
ATOM      9  C   UNL     1       2.744   6.219  18.217  0.00  0.00    +0.000 A 
ATOM     10  C   UNL     1       2.366   7.472  18.706  0.00  0.00    +0.000 A 
ATOM     11  F   UNL     1       2.587   8.558  17.947  0.00  0.00    +0.000 F 
BRANCH   8  12
ATOM     12  C   UNL     1       2.730   3.663  18.372  0.00  0.00    +0.000 C 
ATOM     13  C   UNL     1       4.216   3.365  18.003  0.00  0.00    +0.000 C 
ATOM     14  N   UNL     1       5.101   3.304  19.183  0.00  0.00    +0.000 NA
ATOM     15  C   UNL     1       4.573   2.261  20.080  0.00  0.00    +0.000 C 
ATOM     16  C   UNL     1       3.086   2.453  20.416  0.00  0.00    +0.000 C 
ATOM     17  O   UNL     1       2.258   2.620  19.253  0.00  0.00    +0.000 OA
ATOM     18  H   UNL     1       5.047   4.200  19.672  0.00  0.00    +0.000 HD
ENDBRANCH   8  12
ENDBRANCH   3   5
BRANCH   2  19
ATOM     19  C   UNL     1       0.008  10.591  21.428  0.00  0.00    +0.000 A 
ATOM     20  C   UNL     1       0.764  11.640  20.858  0.00  0.00    +0.000 A 
ATOM     21  C   UNL     1       0.260  12.785  21.408  0.00  0.00    +0.000 A 
ATOM     22  N   UNL     1      -0.730  12.412  22.290  0.00  0.00    +0.000 N 
ATOM     23  N   UNL     1      -0.910  11.057  22.295  0.00  0.00    +0.000 NA
BRANCH  22  24
ATOM     24  C   UNL     1      -1.510  13.275  23.112  0.00  0.00    +0.000 A 
ATOM     25  C   UNL     1      -1.002  14.518  23.529  0.00  0.00    +0.000 A 
ATOM     26  C   UNL     1      -1.780  15.365  24.322  0.00  0.00    +0.000 A 
ATOM     27  C   UNL     1      -3.056  14.968  24.700  0.00  0.00    +0.000 A 
ATOM     28  F   UNL     1      -3.799  15.786  25.458  0.00  0.00    +0.000 F 
ATOM     29  C   UNL     1      -3.569  13.738  24.309  0.00  0.00    +0.000 A 
ATOM     30  C   UNL     1      -2.799  12.886  23.511  0.00  0.00    +0.000 A 
ENDBRANCH  22  24
ENDBRANCH   2  19
TORSDOF 4
ENDMDL
