MODEL 1
REMARK VINA RESULT:      -9.0      0.000      0.000
REMARK  Name = 
REMARK  7 active torsions:
REMARK  status: ('A' for Active; 'I' for Inactive)
REMARK    1  A    between atoms: C_1  and  O_2
REMARK    2  A    between atoms: O_2  and  C_3
REMARK    3  A    between atoms: C_6  and  S_7
REMARK    4  A    between atoms: S_7  and  C_10
REMARK    5  A    between atoms: C_19  and  N_20
REMARK    6  A    between atoms: N_20  and  C_21
REMARK    7  A    between atoms: C_25  and  N_26
REMARK                            x       y       z     vdW  Elec       q    Type
REMARK                         _______ _______ _______ _____ _____    ______ ____
ROOT
ATOM      1  C   UNL     1       4.569   5.048  18.747  0.00  0.00    +0.000 A 
ATOM      2  N   UNL     1       4.513   3.937  19.509  0.00  0.00    +0.000 NA
ATOM      3  C   UNL     1       3.241   3.476  19.626  0.00  0.00    +0.000 A 
ATOM      4  C   UNL     1       2.719   2.932  20.790  0.00  0.00    +0.000 A 
ATOM      5  C   UNL     1       1.385   2.514  20.846  0.00  0.00    +0.000 A 
ATOM      6  C   UNL     1       0.638   2.444  19.674  0.00  0.00    +0.000 A 
ATOM      7  C   UNL     1       1.126   3.068  18.535  0.00  0.00    +0.000 A 
ATOM      8  C   UNL     1       2.295   3.802  18.641  0.00  0.00    +0.000 A 
ATOM      9  N   UNL     1       2.418   4.982  18.006  0.00  0.00    +0.000 NA
ATOM     10  C   UNL     1       3.430   5.763  18.438  0.00  0.00    +0.000 A 
ENDROOT
BRANCH   1  11
ATOM     11  S   UNL     1       6.045   5.545  17.937  0.00  0.00    +0.000 S 
ATOM     12  O   UNL     1       7.131   4.960  18.720  0.00  0.00    +0.000 OA
ATOM     13  O   UNL     1       5.969   6.986  17.760  0.00  0.00    +0.000 OA
BRANCH  11  17
ATOM     14  C   UNL     1       6.304   4.018  13.647  0.00  0.00    +0.000 A 
ATOM     15  C   UNL     1       7.344   4.778  14.197  0.00  0.00    +0.000 A 
ATOM     16  C   UNL     1       7.304   5.193  15.526  0.00  0.00    +0.000 A 
ATOM     17  C   UNL     1       6.210   4.844  16.315  0.00  0.00    +0.000 A 
ATOM     18  C   UNL     1       5.164   4.077  15.783  0.00  0.00    +0.000 A 
ATOM     19  C   UNL     1       5.214   3.667  14.445  0.00  0.00    +0.000 A 
BRANCH  14  21
ATOM     20  C   UNL     1       5.613   2.691  11.807  0.00  0.00    +0.000 C 
ATOM     21  O   UNL     1       6.455   3.714  12.323  0.00  0.00    +0.000 OA
ENDBRANCH  14  21
ENDBRANCH  11  17
ENDBRANCH   1  11
BRANCH  10  22
ATOM     22  N   UNL     1       3.145   6.804  19.454  0.00  0.00    +0.000 N 
ATOM     23  H   UNL     1       3.101   6.364  20.374  0.00  0.00    +0.000 HD
BRANCH  22  24
ATOM     24  C   UNL     1       2.218   7.890  19.358  0.00  0.00    +0.000 A 
ATOM     25  C   UNL     1       2.008   8.546  18.131  0.00  0.00    +0.000 A 
ATOM     26  C   UNL     1       1.064   9.576  18.009  0.00  0.00    +0.000 A 
ATOM     27  C   UNL     1       0.325   9.985  19.121  0.00  0.00    +0.000 A 
ATOM     28  C   UNL     1       0.558   9.400  20.363  0.00  0.00    +0.000 A 
ATOM     29  C   UNL     1       1.462   8.326  20.454  0.00  0.00    +0.000 A 
BRANCH  28  30
ATOM     30  N   UNL     1      -0.267   9.715  21.453  0.00  0.00    +0.000 N 
ATOM     31  H   UNL     1       0.066  10.487  22.021  0.00  0.00    +0.000 HD
ATOM     32  H   UNL     1      -0.528   8.904  22.004  0.00  0.00    +0.000 HD
ENDBRANCH  28  30
ENDBRANCH  22  24
ENDBRANCH  10  22
TORSDOF 6
ENDMDL
MODEL 2
REMARK VINA RESULT:      -8.9      0.826      1.512
REMARK  Name = 
REMARK  7 active torsions:
REMARK  status: ('A' for Active; 'I' for Inactive)
REMARK    1  A    between atoms: C_1  and  O_2
REMARK    2  A    between atoms: O_2  and  C_3
REMARK    3  A    between atoms: C_6  and  S_7
REMARK    4  A    between atoms: S_7  and  C_10
REMARK    5  A    between atoms: C_19  and  N_20
REMARK    6  A    between atoms: N_20  and  C_21
REMARK    7  A    between atoms: C_25  and  N_26
REMARK                            x       y       z     vdW  Elec       q    Type
REMARK                         _______ _______ _______ _____ _____    ______ ____
ROOT
ATOM      1  C   UNL     1       4.702   4.889  18.597  0.00  0.00    +0.000 A 
ATOM      2  N   UNL     1       4.570   3.723  19.262  0.00  0.00    +0.000 NA
ATOM      3  C   UNL     1       3.268   3.352  19.364  0.00  0.00    +0.000 A 
ATOM      4  C   UNL     1       2.720   2.751  20.487  0.00  0.00    +0.000 A 
ATOM      5  C   UNL     1       1.358   2.431  20.531  0.00  0.00    +0.000 A 
ATOM      6  C   UNL     1       0.595   2.519  19.371  0.00  0.00    +0.000 A 
ATOM      7  C   UNL     1       1.115   3.200  18.281  0.00  0.00    +0.000 A 
ATOM      8  C   UNL     1       2.338   3.832  18.428  0.00  0.00    +0.000 A 
ATOM      9  N   UNL     1       2.544   5.050  17.893  0.00  0.00    +0.000 NA
ATOM     10  C   UNL     1       3.618   5.712  18.371  0.00  0.00    +0.000 A 
ENDROOT
BRANCH   1  11
ATOM     11  S   UNL     1       6.203   5.341  17.804  0.00  0.00    +0.000 S 
ATOM     12  O   UNL     1       7.223   4.475  18.389  0.00  0.00    +0.000 OA
ATOM     13  O   UNL     1       6.323   6.786  17.915  0.00  0.00    +0.000 OA
BRANCH  11  17
ATOM     14  C   UNL     1       6.394   4.090  13.423  0.00  0.00    +0.000 A 
ATOM     15  C   UNL     1       5.309   3.714  14.224  0.00  0.00    +0.000 A 
ATOM     16  C   UNL     1       5.209   4.147  15.546  0.00  0.00    +0.000 A 
ATOM     17  C   UNL     1       6.207   4.964  16.071  0.00  0.00    +0.000 A 
ATOM     18  C   UNL     1       7.296   5.357  15.280  0.00  0.00    +0.000 A 
ATOM     19  C   UNL     1       7.387   4.916  13.954  0.00  0.00    +0.000 A 
BRANCH  14  21
ATOM     20  C   UNL     1       5.234   2.811  11.797  0.00  0.00    +0.000 C 
ATOM     21  O   UNL     1       6.384   3.563  12.161  0.00  0.00    +0.000 OA
ENDBRANCH  14  21
ENDBRANCH  11  17
ENDBRANCH   1  11
BRANCH  10  22
ATOM     22  N   UNL     1       3.426   6.680  19.477  0.00  0.00    +0.000 N 
ATOM     23  H   UNL     1       3.651   6.220  20.360  0.00  0.00    +0.000 HD
BRANCH  22  24
ATOM     24  C   UNL     1       2.360   7.619  19.643  0.00  0.00    +0.000 A 
ATOM     25  C   UNL     1       1.635   7.675  20.849  0.00  0.00    +0.000 A 
ATOM     26  C   UNL     1       0.623   8.627  21.046  0.00  0.00    +0.000 A 
ATOM     27  C   UNL     1       0.301   9.529  20.030  0.00  0.00    +0.000 A 
ATOM     28  C   UNL     1       0.955   9.454  18.802  0.00  0.00    +0.000 A 
ATOM     29  C   UNL     1       2.010   8.537  18.644  0.00  0.00    +0.000 A 
BRANCH  28  30
ATOM     30  N   UNL     1       0.727  10.435  17.825  0.00  0.00    +0.000 N 
ATOM     31  H   UNL     1       0.016  10.191  17.145  0.00  0.00    +0.000 HD
ATOM     32  H   UNL     1       1.581  10.779  17.398  0.00  0.00    +0.000 HD
ENDBRANCH  28  30
ENDBRANCH  22  24
ENDBRANCH  10  22
TORSDOF 6
ENDMDL
MODEL 3
REMARK VINA RESULT:      -8.8      0.818      1.220
REMARK  Name = 
REMARK  7 active torsions:
REMARK  status: ('A' for Active; 'I' for Inactive)
REMARK    1  A    between atoms: C_1  and  O_2
REMARK    2  A    between atoms: O_2  and  C_3
REMARK    3  A    between atoms: C_6  and  S_7
REMARK    4  A    between atoms: S_7  and  C_10
REMARK    5  A    between atoms: C_19  and  N_20
REMARK    6  A    between atoms: N_20  and  C_21
REMARK    7  A    between atoms: C_25  and  N_26
REMARK                            x       y       z     vdW  Elec       q    Type
REMARK                         _______ _______ _______ _____ _____    ______ ____
ROOT
ATOM      1  C   UNL     1       4.403   5.321  18.736  0.00  0.00    +0.000 A 
ATOM      2  N   UNL     1       4.449   4.149  19.403  0.00  0.00    +0.000 NA
ATOM      3  C   UNL     1       3.207   3.632  19.590  0.00  0.00    +0.000 A 
ATOM      4  C   UNL     1       2.808   2.975  20.745  0.00  0.00    +0.000 A 
ATOM      5  C   UNL     1       1.497   2.503  20.879  0.00  0.00    +0.000 A 
ATOM      6  C   UNL     1       0.653   2.500  19.773  0.00  0.00    +0.000 A 
ATOM      7  C   UNL     1       1.018   3.233  18.654  0.00  0.00    +0.000 A 
ATOM      8  C   UNL     1       2.168   4.000  18.721  0.00  0.00    +0.000 A 
ATOM      9  N   UNL     1       2.198   5.233  18.180  0.00  0.00    +0.000 NA
ATOM     10  C   UNL     1       3.219   6.014  18.588  0.00  0.00    +0.000 A 
ENDROOT
BRANCH   1  11
ATOM     11  S   UNL     1       5.785   5.938  17.847  0.00  0.00    +0.000 S 
ATOM     12  O   UNL     1       6.948   5.618  18.672  0.00  0.00    +0.000 OA
ATOM     13  O   UNL     1       5.490   7.321  17.510  0.00  0.00    +0.000 OA
BRANCH  11  17
ATOM     14  C   UNL     1       6.313   4.011  13.748  0.00  0.00    +0.000 A 
ATOM     15  C   UNL     1       7.309   4.839  14.279  0.00  0.00    +0.000 A 
ATOM     16  C   UNL     1       7.186   5.379  15.558  0.00  0.00    +0.000 A 
ATOM     17  C   UNL     1       6.053   5.088  16.313  0.00  0.00    +0.000 A 
ATOM     18  C   UNL     1       5.050   4.254  15.800  0.00  0.00    +0.000 A 
ATOM     19  C   UNL     1       5.182   3.718  14.513  0.00  0.00    +0.000 A 
BRANCH  14  21
ATOM     20  C   UNL     1       5.500   2.845  11.849  0.00  0.00    +0.000 C 
ATOM     21  O   UNL     1       6.544   3.584  12.470  0.00  0.00    +0.000 OA
ENDBRANCH  14  21
ENDBRANCH  11  17
ENDBRANCH   1  11
BRANCH  10  22
ATOM     22  N   UNL     1       2.993   6.956  19.709  0.00  0.00    +0.000 N 
ATOM     23  H   UNL     1       3.151   6.465  20.590  0.00  0.00    +0.000 HD
BRANCH  22  24
ATOM     24  C   UNL     1       1.950   7.927  19.840  0.00  0.00    +0.000 A 
ATOM     25  C   UNL     1       1.203   8.019  21.030  0.00  0.00    +0.000 A 
ATOM     26  C   UNL     1       0.213   9.000  21.193  0.00  0.00    +0.000 A 
ATOM     27  C   UNL     1      -0.063   9.897  20.159  0.00  0.00    +0.000 A 
ATOM     28  C   UNL     1       0.614   9.788  18.946  0.00  0.00    +0.000 A 
ATOM     29  C   UNL     1       1.646   8.840  18.822  0.00  0.00    +0.000 A 
BRANCH  28  30
ATOM     30  N   UNL     1       0.433  10.761  17.952  0.00  0.00    +0.000 N 
ATOM     31  H   UNL     1       0.765  10.488  17.034  0.00  0.00    +0.000 HD
ATOM     32  H   UNL     1       0.756  11.682  18.232  0.00  0.00    +0.000 HD
ENDBRANCH  28  30
ENDBRANCH  22  24
ENDBRANCH  10  22
TORSDOF 6
ENDMDL
MODEL 4
REMARK VINA RESULT:      -8.3      2.296      3.659
REMARK  Name = 
REMARK  7 active torsions:
REMARK  status: ('A' for Active; 'I' for Inactive)
REMARK    1  A    between atoms: C_1  and  O_2
REMARK    2  A    between atoms: O_2  and  C_3
REMARK    3  A    between atoms: C_6  and  S_7
REMARK    4  A    between atoms: S_7  and  C_10
REMARK    5  A    between atoms: C_19  and  N_20
REMARK    6  A    between atoms: N_20  and  C_21
REMARK    7  A    between atoms: C_25  and  N_26
REMARK                            x       y       z     vdW  Elec       q    Type
REMARK                         _______ _______ _______ _____ _____    ______ ____
ROOT
ATOM      1  C   UNL     1       4.459   4.779  17.986  0.00  0.00    +0.000 A 
ATOM      2  N   UNL     1       4.508   3.714  18.812  0.00  0.00    +0.000 NA
ATOM      3  C   UNL     1       3.271   3.355  19.238  0.00  0.00    +0.000 A 
ATOM      4  C   UNL     1       2.992   2.910  20.522  0.00  0.00    +0.000 A 
ATOM      5  C   UNL     1       1.682   2.594  20.899  0.00  0.00    +0.000 A 
ATOM      6  C   UNL     1       0.688   2.521  19.928  0.00  0.00    +0.000 A 
ATOM      7  C   UNL     1       0.944   3.049  18.672  0.00  0.00    +0.000 A 
ATOM      8  C   UNL     1       2.148   3.700  18.468  0.00  0.00    +0.000 A 
ATOM      9  N   UNL     1       2.197   4.835  17.746  0.00  0.00    +0.000 NA
ATOM     10  C   UNL     1       3.325   5.560  17.891  0.00  0.00    +0.000 A 
ENDROOT
BRANCH   1  11
ATOM     11  S   UNL     1       5.742   5.124  16.838  0.00  0.00    +0.000 S 
ATOM     12  O   UNL     1       5.079   5.737  15.690  0.00  0.00    +0.000 OA
ATOM     13  O   UNL     1       6.502   3.895  16.670  0.00  0.00    +0.000 OA
BRANCH  11  17
ATOM     14  C   UNL     1       8.428   8.382  18.561  0.00  0.00    +0.000 A 
ATOM     15  C   UNL     1       8.433   7.092  19.106  0.00  0.00    +0.000 A 
ATOM     16  C   UNL     1       7.666   6.074  18.545  0.00  0.00    +0.000 A 
ATOM     17  C   UNL     1       6.883   6.349  17.427  0.00  0.00    +0.000 A 
ATOM     18  C   UNL     1       6.872   7.632  16.863  0.00  0.00    +0.000 A 
ATOM     19  C   UNL     1       7.645   8.649  17.436  0.00  0.00    +0.000 A 
BRANCH  14  21
ATOM     20  C   UNL     1       9.307  10.583  18.649  0.00  0.00    +0.000 C 
ATOM     21  O   UNL     1       9.195   9.292  19.234  0.00  0.00    +0.000 OA
ENDBRANCH  14  21
ENDBRANCH  11  17
ENDBRANCH   1  11
BRANCH  10  22
ATOM     22  N   UNL     1       3.341   6.668  18.875  0.00  0.00    +0.000 N 
ATOM     23  H   UNL     1       3.617   6.297  19.785  0.00  0.00    +0.000 HD
BRANCH  22  24
ATOM     24  C   UNL     1       2.386   7.724  19.018  0.00  0.00    +0.000 A 
ATOM     25  C   UNL     1       2.030   8.522  17.913  0.00  0.00    +0.000 A 
ATOM     26  C   UNL     1       1.056   9.525  18.025  0.00  0.00    +0.000 A 
ATOM     27  C   UNL     1       0.434   9.766  19.252  0.00  0.00    +0.000 A 
ATOM     28  C   UNL     1       0.814   9.038  20.377  0.00  0.00    +0.000 A 
ATOM     29  C   UNL     1       1.744   7.992  20.233  0.00  0.00    +0.000 A 
BRANCH  28  30
ATOM     30  N   UNL     1       0.106   9.185  21.579  0.00  0.00    +0.000 N 
ATOM     31  H   UNL     1      -0.439   8.372  21.847  0.00  0.00    +0.000 HD
ATOM     32  H   UNL     1      -0.425  10.049  21.627  0.00  0.00    +0.000 HD
ENDBRANCH  28  30
ENDBRANCH  22  24
ENDBRANCH  10  22
TORSDOF 6
ENDMDL
MODEL 5
REMARK VINA RESULT:      -8.2      2.415      3.844
REMARK  Name = 
REMARK  7 active torsions:
REMARK  status: ('A' for Active; 'I' for Inactive)
REMARK    1  A    between atoms: C_1  and  O_2
REMARK    2  A    between atoms: O_2  and  C_3
REMARK    3  A    between atoms: C_6  and  S_7
REMARK    4  A    between atoms: S_7  and  C_10
REMARK    5  A    between atoms: C_19  and  N_20
REMARK    6  A    between atoms: N_20  and  C_21
REMARK    7  A    between atoms: C_25  and  N_26
REMARK                            x       y       z     vdW  Elec       q    Type
REMARK                         _______ _______ _______ _____ _____    ______ ____
ROOT
ATOM      1  C   UNL     1       4.444   4.838  18.003  0.00  0.00    +0.000 A 
ATOM      2  N   UNL     1       4.487   3.751  18.800  0.00  0.00    +0.000 NA
ATOM      3  C   UNL     1       3.250   3.408  19.242  0.00  0.00    +0.000 A 
ATOM      4  C   UNL     1       2.987   2.935  20.519  0.00  0.00    +0.000 A 
ATOM      5  C   UNL     1       1.678   2.637  20.914  0.00  0.00    +0.000 A 
ATOM      6  C   UNL     1       0.664   2.610  19.961  0.00  0.00    +0.000 A 
ATOM      7  C   UNL     1       0.906   3.165  18.714  0.00  0.00    +0.000 A 
ATOM      8  C   UNL     1       2.120   3.795  18.503  0.00  0.00    +0.000 A 
ATOM      9  N   UNL     1       2.179   4.948  17.810  0.00  0.00    +0.000 NA
ATOM     10  C   UNL     1       3.325   5.645  17.950  0.00  0.00    +0.000 A 
ENDROOT
BRANCH   1  11
ATOM     11  S   UNL     1       5.712   5.186  16.839  0.00  0.00    +0.000 S 
ATOM     12  O   UNL     1       5.036   5.825  15.712  0.00  0.00    +0.000 OA
ATOM     13  O   UNL     1       6.454   3.952  16.638  0.00  0.00    +0.000 OA
BRANCH  11  17
ATOM     14  C   UNL     1       8.460   8.394  18.556  0.00  0.00    +0.000 A 
ATOM     15  C   UNL     1       8.425   7.112  19.117  0.00  0.00    +0.000 A 
ATOM     16  C   UNL     1       7.638   6.107  18.559  0.00  0.00    +0.000 A 
ATOM     17  C   UNL     1       6.877   6.388  17.427  0.00  0.00    +0.000 A 
ATOM     18  C   UNL     1       6.907   7.664  16.847  0.00  0.00    +0.000 A 
ATOM     19  C   UNL     1       7.700   8.667  17.417  0.00  0.00    +0.000 A 
BRANCH  14  21
ATOM     20  C   UNL     1       9.241  10.627  18.737  0.00  0.00    +0.000 C 
ATOM     21  O   UNL     1       9.243   9.292  19.227  0.00  0.00    +0.000 OA
ENDBRANCH  14  21
ENDBRANCH  11  17
ENDBRANCH   1  11
BRANCH  10  22
ATOM     22  N   UNL     1       3.384   6.726  18.962  0.00  0.00    +0.000 N 
ATOM     23  H   UNL     1       3.870   6.379  19.789  0.00  0.00    +0.000 HD
BRANCH  22  24
ATOM     24  C   UNL     1       2.347   7.644  19.322  0.00  0.00    +0.000 A 
ATOM     25  C   UNL     1       1.736   7.574  20.589  0.00  0.00    +0.000 A 
ATOM     26  C   UNL     1       0.756   8.500  20.976  0.00  0.00    +0.000 A 
ATOM     27  C   UNL     1       0.352   9.504  20.094  0.00  0.00    +0.000 A 
ATOM     28  C   UNL     1       0.890   9.558  18.811  0.00  0.00    +0.000 A 
ATOM     29  C   UNL     1       1.917   8.662  18.461  0.00  0.00    +0.000 A 
BRANCH  28  30
ATOM     30  N   UNL     1       0.584  10.637  17.967  0.00  0.00    +0.000 N 
ATOM     31  H   UNL     1      -0.232  10.493  17.382  0.00  0.00    +0.000 HD
ATOM     32  H   UNL     1       1.387  10.977  17.448  0.00  0.00    +0.000 HD
ENDBRANCH  28  30
ENDBRANCH  22  24
ENDBRANCH  10  22
TORSDOF 6
ENDMDL
MODEL 6
REMARK VINA RESULT:      -8.0      3.164      6.353
REMARK  Name = 
REMARK  7 active torsions:
REMARK  status: ('A' for Active; 'I' for Inactive)
REMARK    1  A    between atoms: C_1  and  O_2
REMARK    2  A    between atoms: O_2  and  C_3
REMARK    3  A    between atoms: C_6  and  S_7
REMARK    4  A    between atoms: S_7  and  C_10
REMARK    5  A    between atoms: C_19  and  N_20
REMARK    6  A    between atoms: N_20  and  C_21
REMARK    7  A    between atoms: C_25  and  N_26
REMARK                            x       y       z     vdW  Elec       q    Type
REMARK                         _______ _______ _______ _____ _____    ______ ____
ROOT
ATOM      1  C   UNL     1       5.573   4.787  18.229  0.00  0.00    +0.000 A 
ATOM      2  N   UNL     1       4.522   5.199  18.968  0.00  0.00    +0.000 NA
ATOM      3  C   UNL     1       3.437   4.407  18.777  0.00  0.00    +0.000 A 
ATOM      4  C   UNL     1       2.134   4.879  18.720  0.00  0.00    +0.000 A 
ATOM      5  C   UNL     1       1.068   4.004  18.482  0.00  0.00    +0.000 A 
ATOM      6  C   UNL     1       1.288   2.631  18.515  0.00  0.00    +0.000 A 
ATOM      7  C   UNL     1       2.594   2.164  18.482  0.00  0.00    +0.000 A 
ATOM      8  C   UNL     1       3.615   3.086  18.334  0.00  0.00    +0.000 A 
ATOM      9  N   UNL     1       4.663   2.820  17.533  0.00  0.00    +0.000 NA
ATOM     10  C   UNL     1       5.412   3.890  17.193  0.00  0.00    +0.000 A 
ENDROOT
BRANCH   1  11
ATOM     11  S   UNL     1       7.226   5.198  18.655  0.00  0.00    +0.000 S 
ATOM     12  O   UNL     1       8.065   4.380  17.782  0.00  0.00    +0.000 OA
ATOM     13  O   UNL     1       7.336   5.069  20.100  0.00  0.00    +0.000 OA
BRANCH  11  17
ATOM     14  C   UNL     1       8.063   9.612  17.877  0.00  0.00    +0.000 A 
ATOM     15  C   UNL     1       8.818   8.899  18.815  0.00  0.00    +0.000 A 
ATOM     16  C   UNL     1       8.614   7.535  19.013  0.00  0.00    +0.000 A 
ATOM     17  C   UNL     1       7.642   6.877  18.263  0.00  0.00    +0.000 A 
ATOM     18  C   UNL     1       6.882   7.574  17.313  0.00  0.00    +0.000 A 
ATOM     19  C   UNL     1       7.094   8.945  17.124  0.00  0.00    +0.000 A 
BRANCH  14  21
ATOM     20  C   UNL     1       9.533  11.381  18.458  0.00  0.00    +0.000 C 
ATOM     21  O   UNL     1       8.340  10.950  17.815  0.00  0.00    +0.000 OA
ENDBRANCH  14  21
ENDBRANCH  11  17
ENDBRANCH   1  11
BRANCH  10  22
ATOM     22  N   UNL     1       5.131   4.580  15.912  0.00  0.00    +0.000 N 
ATOM     23  H   UNL     1       4.126   4.553  15.736  0.00  0.00    +0.000 HD
BRANCH  22  24
ATOM     24  C   UNL     1       5.871   4.491  14.690  0.00  0.00    +0.000 A 
ATOM     25  C   UNL     1       5.409   3.687  13.630  0.00  0.00    +0.000 A 
ATOM     26  C   UNL     1       6.094   3.632  12.407  0.00  0.00    +0.000 A 
ATOM     27  C   UNL     1       7.269   4.365  12.228  0.00  0.00    +0.000 A 
ATOM     28  C   UNL     1       7.786   5.117  13.280  0.00  0.00    +0.000 A 
ATOM     29  C   UNL     1       7.052   5.212  14.477  0.00  0.00    +0.000 A 
BRANCH  28  30
ATOM     30  N   UNL     1       8.891   5.955  13.067  0.00  0.00    +0.000 N 
ATOM     31  H   UNL     1       8.873   6.816  13.602  0.00  0.00    +0.000 HD
ATOM     32  H   UNL     1       9.095   6.104  12.084  0.00  0.00    +0.000 HD
ENDBRANCH  28  30
ENDBRANCH  22  24
ENDBRANCH  10  22
TORSDOF 6
ENDMDL
MODEL 7
REMARK VINA RESULT:      -8.0      2.396      3.731
REMARK  Name = 
REMARK  7 active torsions:
REMARK  status: ('A' for Active; 'I' for Inactive)
REMARK    1  A    between atoms: C_1  and  O_2
REMARK    2  A    between atoms: O_2  and  C_3
REMARK    3  A    between atoms: C_6  and  S_7
REMARK    4  A    between atoms: S_7  and  C_10
REMARK    5  A    between atoms: C_19  and  N_20
REMARK    6  A    between atoms: N_20  and  C_21
REMARK    7  A    between atoms: C_25  and  N_26
REMARK                            x       y       z     vdW  Elec       q    Type
REMARK                         _______ _______ _______ _____ _____    ______ ____
ROOT
ATOM      1  C   UNL     1       4.801   4.610  18.482  0.00  0.00    +0.000 A 
ATOM      2  N   UNL     1       4.674   3.556  19.314  0.00  0.00    +0.000 NA
ATOM      3  C   UNL     1       3.371   3.223  19.501  0.00  0.00    +0.000 A 
ATOM      4  C   UNL     1       2.846   2.800  20.713  0.00  0.00    +0.000 A 
ATOM      5  C   UNL     1       1.482   2.510  20.837  0.00  0.00    +0.000 A 
ATOM      6  C   UNL     1       0.690   2.439  19.695  0.00  0.00    +0.000 A 
ATOM      7  C   UNL     1       1.189   2.945  18.505  0.00  0.00    +0.000 A 
ATOM      8  C   UNL     1       2.422   3.574  18.527  0.00  0.00    +0.000 A 
ATOM      9  N   UNL     1       2.627   4.697  17.815  0.00  0.00    +0.000 NA
ATOM     10  C   UNL     1       3.720   5.406  18.164  0.00  0.00    +0.000 A 
ENDROOT
BRANCH   1  11
ATOM     11  S   UNL     1       6.285   4.918  17.596  0.00  0.00    +0.000 S 
ATOM     12  O   UNL     1       5.898   4.930  16.187  0.00  0.00    +0.000 OA
ATOM     13  O   UNL     1       7.271   3.960  18.072  0.00  0.00    +0.000 OA
BRANCH  11  17
ATOM     14  C   UNL     1       8.234   9.003  18.160  0.00  0.00    +0.000 A 
ATOM     15  C   UNL     1       7.145   8.846  17.293  0.00  0.00    +0.000 A 
ATOM     16  C   UNL     1       6.502   7.617  17.164  0.00  0.00    +0.000 A 
ATOM     17  C   UNL     1       6.954   6.531  17.910  0.00  0.00    +0.000 A 
ATOM     18  C   UNL     1       8.036   6.672  18.790  0.00  0.00    +0.000 A 
ATOM     19  C   UNL     1       8.677   7.911  18.911  0.00  0.00    +0.000 A 
BRANCH  14  21
ATOM     20  C   UNL     1       9.610  10.581  19.274  0.00  0.00    +0.000 C 
ATOM     21  O   UNL     1       8.793  10.250  18.158  0.00  0.00    +0.000 OA
ENDBRANCH  14  21
ENDBRANCH  11  17
ENDBRANCH   1  11
BRANCH  10  22
ATOM     22  N   UNL     1       3.569   6.528  19.120  0.00  0.00    +0.000 N 
ATOM     23  H   UNL     1       3.664   6.167  20.070  0.00  0.00    +0.000 HD
BRANCH  22  24
ATOM     24  C   UNL     1       2.620   7.599  19.069  0.00  0.00    +0.000 A 
ATOM     25  C   UNL     1       2.438   8.338  17.885  0.00  0.00    +0.000 A 
ATOM     26  C   UNL     1       1.474   9.355  17.803  0.00  0.00    +0.000 A 
ATOM     27  C   UNL     1       0.687   9.666  18.914  0.00  0.00    +0.000 A 
ATOM     28  C   UNL     1       0.891   8.997  20.119  0.00  0.00    +0.000 A 
ATOM     29  C   UNL     1       1.816   7.938  20.165  0.00  0.00    +0.000 A 
BRANCH  28  30
ATOM     30  N   UNL     1       0.021   9.215  21.198  0.00  0.00    +0.000 N 
ATOM     31  H   UNL     1       0.440   9.068  22.110  0.00  0.00    +0.000 HD
ATOM     32  H   UNL     1      -0.871   8.742  21.093  0.00  0.00    +0.000 HD
ENDBRANCH  28  30
ENDBRANCH  22  24
ENDBRANCH  10  22
TORSDOF 6
ENDMDL
MODEL 8
REMARK VINA RESULT:      -8.0      0.924      1.299
REMARK  Name = 
REMARK  7 active torsions:
REMARK  status: ('A' for Active; 'I' for Inactive)
REMARK    1  A    between atoms: C_1  and  O_2
REMARK    2  A    between atoms: O_2  and  C_3
REMARK    3  A    between atoms: C_6  and  S_7
REMARK    4  A    between atoms: S_7  and  C_10
REMARK    5  A    between atoms: C_19  and  N_20
REMARK    6  A    between atoms: N_20  and  C_21
REMARK    7  A    between atoms: C_25  and  N_26
REMARK                            x       y       z     vdW  Elec       q    Type
REMARK                         _______ _______ _______ _____ _____    ______ ____
ROOT
ATOM      1  C   UNL     1       5.070   5.395  18.288  0.00  0.00    +0.000 A 
ATOM      2  N   UNL     1       4.838   4.633  19.377  0.00  0.00    +0.000 NA
ATOM      3  C   UNL     1       3.511   4.405  19.552  0.00  0.00    +0.000 A 
ATOM      4  C   UNL     1       2.888   4.368  20.791  0.00  0.00    +0.000 A 
ATOM      5  C   UNL     1       1.507   4.164  20.889  0.00  0.00    +0.000 A 
ATOM      6  C   UNL     1       0.788   3.785  19.760  0.00  0.00    +0.000 A 
ATOM      7  C   UNL     1       1.388   3.908  18.516  0.00  0.00    +0.000 A 
ATOM      8  C   UNL     1       2.645   4.482  18.449  0.00  0.00    +0.000 A 
ATOM      9  N   UNL     1       2.951   5.343  17.461  0.00  0.00    +0.000 NA
ATOM     10  C   UNL     1       4.052   6.093  17.672  0.00  0.00    +0.000 A 
ENDROOT
BRANCH   1  11
ATOM     11  S   UNL     1       6.622   5.391  17.467  0.00  0.00    +0.000 S 
ATOM     12  O   UNL     1       7.377   4.298  18.074  0.00  0.00    +0.000 OA
ATOM     13  O   UNL     1       7.135   6.750  17.523  0.00  0.00    +0.000 OA
BRANCH  11  17
ATOM     14  C   UNL     1       6.483   4.037  13.114  0.00  0.00    +0.000 A 
ATOM     15  C   UNL     1       5.492   3.634  14.017  0.00  0.00    +0.000 A 
ATOM     16  C   UNL     1       5.490   4.095  15.332  0.00  0.00    +0.000 A 
ATOM     17  C   UNL     1       6.490   4.969  15.748  0.00  0.00    +0.000 A 
ATOM     18  C   UNL     1       7.486   5.390  14.855  0.00  0.00    +0.000 A 
ATOM     19  C   UNL     1       7.480   4.919  13.536  0.00  0.00    +0.000 A 
BRANCH  14  21
ATOM     20  C   UNL     1       5.473   2.398  11.729  0.00  0.00    +0.000 C 
ATOM     21  O   UNL     1       6.387   3.478  11.870  0.00  0.00    +0.000 OA
ENDBRANCH  14  21
ENDBRANCH  11  17
ENDBRANCH   1  11
BRANCH  10  22
ATOM     22  N   UNL     1       3.892   7.449  18.250  0.00  0.00    +0.000 N 
ATOM     23  H   UNL     1       4.614   7.593  18.957  0.00  0.00    +0.000 HD
BRANCH  22  24
ATOM     24  C   UNL     1       2.675   8.107  18.614  0.00  0.00    +0.000 A 
ATOM     25  C   UNL     1       2.007   8.937  17.694  0.00  0.00    +0.000 A 
ATOM     26  C   UNL     1       0.785   9.546  18.018  0.00  0.00    +0.000 A 
ATOM     27  C   UNL     1       0.217   9.352  19.278  0.00  0.00    +0.000 A 
ATOM     28  C   UNL     1       0.888   8.590  20.232  0.00  0.00    +0.000 A 
ATOM     29  C   UNL     1       2.079   7.935  19.870  0.00  0.00    +0.000 A 
BRANCH  28  30
ATOM     30  N   UNL     1       0.265   8.287  21.452  0.00  0.00    +0.000 N 
ATOM     31  H   UNL     1      -0.733   8.465  21.469  0.00  0.00    +0.000 HD
ATOM     32  H   UNL     1       0.749   8.677  22.255  0.00  0.00    +0.000 HD
ENDBRANCH  28  30
ENDBRANCH  22  24
ENDBRANCH  10  22
TORSDOF 6
ENDMDL
MODEL 9
REMARK VINA RESULT:      -7.9      1.233      1.391
REMARK  Name = 
REMARK  7 active torsions:
REMARK  status: ('A' for Active; 'I' for Inactive)
REMARK    1  A    between atoms: C_1  and  O_2
REMARK    2  A    between atoms: O_2  and  C_3
REMARK    3  A    between atoms: C_6  and  S_7
REMARK    4  A    between atoms: S_7  and  C_10
REMARK    5  A    between atoms: C_19  and  N_20
REMARK    6  A    between atoms: N_20  and  C_21
REMARK    7  A    between atoms: C_25  and  N_26
REMARK                            x       y       z     vdW  Elec       q    Type
REMARK                         _______ _______ _______ _____ _____    ______ ____
ROOT
ATOM      1  C   UNL     1       4.833   5.295  17.357  0.00  0.00    +0.000 A 
ATOM      2  N   UNL     1       5.274   4.188  17.989  0.00  0.00    +0.000 NA
ATOM      3  C   UNL     1       4.247   3.470  18.512  0.00  0.00    +0.000 A 
ATOM      4  C   UNL     1       4.303   2.816  19.734  0.00  0.00    +0.000 A 
ATOM      5  C   UNL     1       3.189   2.126  20.225  0.00  0.00    +0.000 A 
ATOM      6  C   UNL     1       2.093   1.913  19.394  0.00  0.00    +0.000 A 
ATOM      7  C   UNL     1       2.001   2.637  18.215  0.00  0.00    +0.000 A 
ATOM      8  C   UNL     1       2.962   3.600  17.961  0.00  0.00    +0.000 A 
ATOM      9  N   UNL     1       2.616   4.786  17.428  0.00  0.00    +0.000 NA
ATOM     10  C   UNL     1       3.545   5.758  17.537  0.00  0.00    +0.000 A 
ENDROOT
BRANCH   1  11
ATOM     11  S   UNL     1       5.785   6.099  16.120  0.00  0.00    +0.000 S 
ATOM     12  O   UNL     1       7.067   6.398  16.753  0.00  0.00    +0.000 OA
ATOM     13  O   UNL     1       4.966   7.177  15.588  0.00  0.00    +0.000 OA
BRANCH  11  17
ATOM     14  C   UNL     1       6.642   3.602  12.401  0.00  0.00    +0.000 A 
ATOM     15  C   UNL     1       7.593   4.509  12.885  0.00  0.00    +0.000 A 
ATOM     16  C   UNL     1       7.367   5.228  14.057  0.00  0.00    +0.000 A 
ATOM     17  C   UNL     1       6.175   5.038  14.753  0.00  0.00    +0.000 A 
ATOM     18  C   UNL     1       5.216   4.127  14.288  0.00  0.00    +0.000 A 
ATOM     19  C   UNL     1       5.453   3.411  13.108  0.00  0.00    +0.000 A 
BRANCH  14  21
ATOM     20  C   UNL     1       6.836   1.581  11.174  0.00  0.00    +0.000 C 
ATOM     21  O   UNL     1       6.976   2.995  11.222  0.00  0.00    +0.000 OA
ENDBRANCH  14  21
ENDBRANCH  11  17
ENDBRANCH   1  11
BRANCH  10  22
ATOM     22  N   UNL     1       3.459   6.704  18.674  0.00  0.00    +0.000 N 
ATOM     23  H   UNL     1       3.649   6.199  19.540  0.00  0.00    +0.000 HD
BRANCH  22  24
ATOM     24  C   UNL     1       2.490   7.736  18.882  0.00  0.00    +0.000 A 
ATOM     25  C   UNL     1       2.102   8.579  17.823  0.00  0.00    +0.000 A 
ATOM     26  C   UNL     1       1.113   9.559  17.997  0.00  0.00    +0.000 A 
ATOM     27  C   UNL     1       0.507   9.729  19.244  0.00  0.00    +0.000 A 
ATOM     28  C   UNL     1       0.917   8.955  20.327  0.00  0.00    +0.000 A 
ATOM     29  C   UNL     1       1.863   7.935  20.119  0.00  0.00    +0.000 A 
BRANCH  28  30
ATOM     30  N   UNL     1       0.226   9.033  21.545  0.00  0.00    +0.000 N 
ATOM     31  H   UNL     1       0.245   8.179  22.093  0.00  0.00    +0.000 HD
ATOM     32  H   UNL     1      -0.707   9.421  21.451  0.00  0.00    +0.000 HD
ENDBRANCH  28  30
ENDBRANCH  22  24
ENDBRANCH  10  22
TORSDOF 6
ENDMDL
