MODEL 1
REMARK VINA RESULT:      -6.7      0.000      0.000
REMARK  Name = 
REMARK  7 active torsions:
REMARK  status: ('A' for Active; 'I' for Inactive)
REMARK    1  A    between atoms: C_1  and  C_2
REMARK    2  A    between atoms: C_2  and  C_3
REMARK    3  A    between atoms: C_2  and  C_4
REMARK    4  A    between atoms: C_2  and  N_11
REMARK    5  A    between atoms: C_4  and  C_5
REMARK    6  A    between atoms: N_11  and  S_12
REMARK    7  A    between atoms: S_12  and  C_13
REMARK                            x       y       z     vdW  Elec       q    Type
REMARK                         _______ _______ _______ _____ _____    ______ ____
ROOT
ATOM      1  C   UNL     1       5.253   3.966  15.920  0.00  0.00    +0.000 C 
ATOM      2  C   UNL     1       4.753   4.037  17.372  0.00  0.00    +0.000 C 
ATOM      3  C   UNL     1       3.917   5.330  17.493  0.00  0.00    +0.000 C 
ENDROOT
BRANCH   2   4
ATOM      4  N   UNL     1       5.901   4.202  18.329  0.00  0.00    +0.000 NA
ATOM      5  H   UNL     1       6.145   3.305  18.758  0.00  0.00    +0.000 HD
BRANCH   4   6
ATOM      6  S   UNL     1       7.279   5.087  17.898  0.00  0.00    +0.000 S 
ATOM      7  C   UNL     1       7.850   5.606  19.496  0.00  0.00    +0.000 C 
ATOM      8  O   UNL     1       8.254   4.182  17.344  0.00  0.00    +0.000 OA
ATOM      9  O   UNL     1       6.856   6.272  17.182  0.00  0.00    +0.000 OA
ENDBRANCH   4   6
ENDBRANCH   2   4
BRANCH   2  10
ATOM     10  C   UNL     1       3.892   2.779  17.704  0.00  0.00    +0.000 C 
BRANCH  10  11
ATOM     11  C   UNL     1       2.989   2.906  18.916  0.00  0.00    +0.000 A 
ATOM     12  C   UNL     1       3.499   2.730  20.210  0.00  0.00    +0.000 A 
ATOM     13  C   UNL     1       2.644   2.730  21.315  0.00  0.00    +0.000 A 
ATOM     14  C   UNL     1       1.276   2.914  21.143  0.00  0.00    +0.000 A 
ATOM     15  C   UNL     1       0.764   3.143  19.871  0.00  0.00    +0.000 A 
ATOM     16  C   UNL     1       1.619   3.158  18.770  0.00  0.00    +0.000 A 
ENDBRANCH  10  11
ENDBRANCH   2  10
TORSDOF 4
ENDMDL
MODEL 2
REMARK VINA RESULT:      -6.7      1.717      2.658
REMARK  Name = 
REMARK  7 active torsions:
REMARK  status: ('A' for Active; 'I' for Inactive)
REMARK    1  A    between atoms: C_1  and  C_2
REMARK    2  A    between atoms: C_2  and  C_3
REMARK    3  A    between atoms: C_2  and  C_4
REMARK    4  A    between atoms: C_2  and  N_11
REMARK    5  A    between atoms: C_4  and  C_5
REMARK    6  A    between atoms: N_11  and  S_12
REMARK    7  A    between atoms: S_12  and  C_13
REMARK                            x       y       z     vdW  Elec       q    Type
REMARK                         _______ _______ _______ _____ _____    ______ ____
ROOT
ATOM      1  C   UNL     1       5.894   5.564  18.381  0.00  0.00    +0.000 C 
ATOM      2  C   UNL     1       4.957   4.473  17.839  0.00  0.00    +0.000 C 
ATOM      3  C   UNL     1       4.937   3.341  18.888  0.00  0.00    +0.000 C 
ENDROOT
BRANCH   2   4
ATOM      4  N   UNL     1       5.517   3.858  16.586  0.00  0.00    +0.000 NA
ATOM      5  H   UNL     1       4.807   3.288  16.116  0.00  0.00    +0.000 HD
BRANCH   4   6
ATOM      6  S   UNL     1       6.411   4.781  15.482  0.00  0.00    +0.000 S 
ATOM      7  C   UNL     1       6.161   3.846  13.994  0.00  0.00    +0.000 C 
ATOM      8  O   UNL     1       5.768   6.060  15.323  0.00  0.00    +0.000 OA
ATOM      9  O   UNL     1       7.812   4.678  15.830  0.00  0.00    +0.000 OA
ENDBRANCH   4   6
ENDBRANCH   2   4
BRANCH   2  10
ATOM     10  C   UNL     1       3.528   5.057  17.615  0.00  0.00    +0.000 C 
BRANCH  10  11
ATOM     11  C   UNL     1       2.435   4.460  18.483  0.00  0.00    +0.000 A 
ATOM     12  C   UNL     1       2.113   5.031  19.722  0.00  0.00    +0.000 A 
ATOM     13  C   UNL     1       1.192   4.412  20.570  0.00  0.00    +0.000 A 
ATOM     14  C   UNL     1       0.575   3.224  20.188  0.00  0.00    +0.000 A 
ATOM     15  C   UNL     1       0.845   2.676  18.938  0.00  0.00    +0.000 A 
ATOM     16  C   UNL     1       1.753   3.302  18.086  0.00  0.00    +0.000 A 
ENDBRANCH  10  11
ENDBRANCH   2  10
TORSDOF 4
ENDMDL
MODEL 3
REMARK VINA RESULT:      -6.6      0.267      1.268
REMARK  Name = 
REMARK  7 active torsions:
REMARK  status: ('A' for Active; 'I' for Inactive)
REMARK    1  A    between atoms: C_1  and  C_2
REMARK    2  A    between atoms: C_2  and  C_3
REMARK    3  A    between atoms: C_2  and  C_4
REMARK    4  A    between atoms: C_2  and  N_11
REMARK    5  A    between atoms: C_4  and  C_5
REMARK    6  A    between atoms: N_11  and  S_12
REMARK    7  A    between atoms: S_12  and  C_13
REMARK                            x       y       z     vdW  Elec       q    Type
REMARK                         _______ _______ _______ _____ _____    ______ ____
ROOT
ATOM      1  C   UNL     1       5.147   4.422  15.902  0.00  0.00    +0.000 C 
ATOM      2  C   UNL     1       4.664   4.319  17.358  0.00  0.00    +0.000 C 
ATOM      3  C   UNL     1       3.668   5.477  17.581  0.00  0.00    +0.000 C 
ENDROOT
BRANCH   2   4
ATOM      4  N   UNL     1       5.795   4.564  18.318  0.00  0.00    +0.000 NA
ATOM      5  H   UNL     1       5.968   3.732  18.892  0.00  0.00    +0.000 HD
BRANCH   4   6
ATOM      6  S   UNL     1       7.241   5.281  17.803  0.00  0.00    +0.000 S 
ATOM      7  C   UNL     1       7.973   5.701  19.365  0.00  0.00    +0.000 C 
ATOM      8  O   UNL     1       8.059   4.274  17.177  0.00  0.00    +0.000 OA
ATOM      9  O   UNL     1       6.919   6.520  17.128  0.00  0.00    +0.000 OA
ENDBRANCH   4   6
ENDBRANCH   2   4
BRANCH   2  10
ATOM     10  C   UNL     1       3.983   2.936  17.599  0.00  0.00    +0.000 C 
BRANCH  10  11
ATOM     11  C   UNL     1       3.019   2.878  18.770  0.00  0.00    +0.000 A 
ATOM     12  C   UNL     1       1.636   2.974  18.564  0.00  0.00    +0.000 A 
ATOM     13  C   UNL     1       0.760   3.040  19.650  0.00  0.00    +0.000 A 
ATOM     14  C   UNL     1       1.252   3.001  20.952  0.00  0.00    +0.000 A 
ATOM     15  C   UNL     1       2.618   2.851  21.170  0.00  0.00    +0.000 A 
ATOM     16  C   UNL     1       3.490   2.771  20.085  0.00  0.00    +0.000 A 
ENDBRANCH  10  11
ENDBRANCH   2  10
TORSDOF 4
ENDMDL
MODEL 4
REMARK VINA RESULT:      -6.6      1.750      2.090
REMARK  Name = 
REMARK  7 active torsions:
REMARK  status: ('A' for Active; 'I' for Inactive)
REMARK    1  A    between atoms: C_1  and  C_2
REMARK    2  A    between atoms: C_2  and  C_3
REMARK    3  A    between atoms: C_2  and  C_4
REMARK    4  A    between atoms: C_2  and  N_11
REMARK    5  A    between atoms: C_4  and  C_5
REMARK    6  A    between atoms: N_11  and  S_12
REMARK    7  A    between atoms: S_12  and  C_13
REMARK                            x       y       z     vdW  Elec       q    Type
REMARK                         _______ _______ _______ _____ _____    ______ ____
ROOT
ATOM      1  C   UNL     1       5.051   4.525  18.879  0.00  0.00    +0.000 C 
ATOM      2  C   UNL     1       4.631   5.342  17.646  0.00  0.00    +0.000 C 
ATOM      3  C   UNL     1       4.841   4.433  16.416  0.00  0.00    +0.000 C 
ENDROOT
BRANCH   2   4
ATOM      4  N   UNL     1       5.544   6.519  17.445  0.00  0.00    +0.000 NA
ATOM      5  H   UNL     1       5.329   7.262  18.117  0.00  0.00    +0.000 HD
BRANCH   4   6
ATOM      6  S   UNL     1       7.215   6.308  17.257  0.00  0.00    +0.000 S 
ATOM      7  C   UNL     1       7.801   7.926  17.694  0.00  0.00    +0.000 C 
ATOM      8  O   UNL     1       7.677   5.377  18.253  0.00  0.00    +0.000 OA
ATOM      9  O   UNL     1       7.494   6.111  15.850  0.00  0.00    +0.000 OA
ENDBRANCH   4   6
ENDBRANCH   2   4
BRANCH   2  10
ATOM     10  C   UNL     1       3.138   5.776  17.776  0.00  0.00    +0.000 C 
BRANCH  10  11
ATOM     11  C   UNL     1       2.249   4.833  18.565  0.00  0.00    +0.000 A 
ATOM     12  C   UNL     1       1.956   5.085  19.912  0.00  0.00    +0.000 A 
ATOM     13  C   UNL     1       1.237   4.156  20.668  0.00  0.00    +0.000 A 
ATOM     14  C   UNL     1       0.795   2.971  20.086  0.00  0.00    +0.000 A 
ATOM     15  C   UNL     1       1.033   2.733  18.737  0.00  0.00    +0.000 A 
ATOM     16  C   UNL     1       1.738   3.667  17.980  0.00  0.00    +0.000 A 
ENDBRANCH  10  11
ENDBRANCH   2  10
TORSDOF 4
ENDMDL
MODEL 5
REMARK VINA RESULT:      -6.5      1.871      2.825
REMARK  Name = 
REMARK  7 active torsions:
REMARK  status: ('A' for Active; 'I' for Inactive)
REMARK    1  A    between atoms: C_1  and  C_2
REMARK    2  A    between atoms: C_2  and  C_3
REMARK    3  A    between atoms: C_2  and  C_4
REMARK    4  A    between atoms: C_2  and  N_11
REMARK    5  A    between atoms: C_4  and  C_5
REMARK    6  A    between atoms: N_11  and  S_12
REMARK    7  A    between atoms: S_12  and  C_13
REMARK                            x       y       z     vdW  Elec       q    Type
REMARK                         _______ _______ _______ _____ _____    ______ ____
ROOT
ATOM      1  C   UNL     1       5.725   6.147  17.858  0.00  0.00    +0.000 C 
ATOM      2  C   UNL     1       4.891   4.877  17.620  0.00  0.00    +0.000 C 
ATOM      3  C   UNL     1       5.193   3.919  18.793  0.00  0.00    +0.000 C 
ENDROOT
BRANCH   2   4
ATOM      4  N   UNL     1       5.346   4.159  16.379  0.00  0.00    +0.000 NA
ATOM      5  H   UNL     1       4.565   3.657  15.946  0.00  0.00    +0.000 HD
BRANCH   4   6
ATOM      6  S   UNL     1       6.310   4.936  15.223  0.00  0.00    +0.000 S 
ATOM      7  C   UNL     1       6.130   3.828  13.848  0.00  0.00    +0.000 C 
ATOM      8  O   UNL     1       5.692   6.190  14.875  0.00  0.00    +0.000 OA
ATOM      9  O   UNL     1       7.688   4.869  15.658  0.00  0.00    +0.000 OA
ENDBRANCH   4   6
ENDBRANCH   2   4
BRANCH   2  10
ATOM     10  C   UNL     1       3.374   5.236  17.564  0.00  0.00    +0.000 C 
BRANCH  10  11
ATOM     11  C   UNL     1       2.482   4.456  18.512  0.00  0.00    +0.000 A 
ATOM     12  C   UNL     1       1.885   3.255  18.107  0.00  0.00    +0.000 A 
ATOM     13  C   UNL     1       0.972   2.601  18.938  0.00  0.00    +0.000 A 
ATOM     14  C   UNL     1       0.653   3.132  20.185  0.00  0.00    +0.000 A 
ATOM     15  C   UNL     1       1.280   4.294  20.621  0.00  0.00    +0.000 A 
ATOM     16  C   UNL     1       2.201   4.938  19.797  0.00  0.00    +0.000 A 
ENDBRANCH  10  11
ENDBRANCH   2  10
TORSDOF 4
ENDMDL
MODEL 6
REMARK VINA RESULT:      -6.4      1.318      1.953
REMARK  Name = 
REMARK  7 active torsions:
REMARK  status: ('A' for Active; 'I' for Inactive)
REMARK    1  A    between atoms: C_1  and  C_2
REMARK    2  A    between atoms: C_2  and  C_3
REMARK    3  A    between atoms: C_2  and  C_4
REMARK    4  A    between atoms: C_2  and  N_11
REMARK    5  A    between atoms: C_4  and  C_5
REMARK    6  A    between atoms: N_11  and  S_12
REMARK    7  A    between atoms: S_12  and  C_13
REMARK                            x       y       z     vdW  Elec       q    Type
REMARK                         _______ _______ _______ _____ _____    ______ ____
ROOT
ATOM      1  C   UNL     1       4.517   4.033  16.692  0.00  0.00    +0.000 C 
ATOM      2  C   UNL     1       4.581   5.498  17.154  0.00  0.00    +0.000 C 
ATOM      3  C   UNL     1       5.006   6.334  15.927  0.00  0.00    +0.000 C 
ENDROOT
BRANCH   2   4
ATOM      4  N   UNL     1       5.667   5.692  18.176  0.00  0.00    +0.000 NA
ATOM      5  H   UNL     1       5.552   5.036  18.954  0.00  0.00    +0.000 HD
BRANCH   4   6
ATOM      6  S   UNL     1       7.290   5.836  17.712  0.00  0.00    +0.000 S 
ATOM      7  C   UNL     1       8.085   5.845  19.299  0.00  0.00    +0.000 C 
ATOM      8  O   UNL     1       7.680   4.635  17.019  0.00  0.00    +0.000 OA
ATOM      9  O   UNL     1       7.482   7.144  17.122  0.00  0.00    +0.000 OA
ENDBRANCH   4   6
ENDBRANCH   2   4
BRANCH   2  10
ATOM     10  C   UNL     1       3.188   5.952  17.689  0.00  0.00    +0.000 C 
BRANCH  10  11
ATOM     11  C   UNL     1       2.535   5.015  18.688  0.00  0.00    +0.000 A 
ATOM     12  C   UNL     1       1.587   4.071  18.271  0.00  0.00    +0.000 A 
ATOM     13  C   UNL     1       0.902   3.292  19.207  0.00  0.00    +0.000 A 
ATOM     14  C   UNL     1       1.162   3.439  20.567  0.00  0.00    +0.000 A 
ATOM     15  C   UNL     1       2.140   4.334  20.991  0.00  0.00    +0.000 A 
ATOM     16  C   UNL     1       2.833   5.100  20.055  0.00  0.00    +0.000 A 
ENDBRANCH  10  11
ENDBRANCH   2  10
TORSDOF 4
ENDMDL
MODEL 7
REMARK VINA RESULT:      -6.4      1.830      2.448
REMARK  Name = 
REMARK  7 active torsions:
REMARK  status: ('A' for Active; 'I' for Inactive)
REMARK    1  A    between atoms: C_1  and  C_2
REMARK    2  A    between atoms: C_2  and  C_3
REMARK    3  A    between atoms: C_2  and  C_4
REMARK    4  A    between atoms: C_2  and  N_11
REMARK    5  A    between atoms: C_4  and  C_5
REMARK    6  A    between atoms: N_11  and  S_12
REMARK    7  A    between atoms: S_12  and  C_13
REMARK                            x       y       z     vdW  Elec       q    Type
REMARK                         _______ _______ _______ _____ _____    ______ ____
ROOT
ATOM      1  C   UNL     1       5.302   5.076  19.236  0.00  0.00    +0.000 C 
ATOM      2  C   UNL     1       4.829   5.647  17.889  0.00  0.00    +0.000 C 
ATOM      3  C   UNL     1       5.136   4.578  16.818  0.00  0.00    +0.000 C 
ENDROOT
BRANCH   2   4
ATOM      4  N   UNL     1       5.637   6.855  17.504  0.00  0.00    +0.000 NA
ATOM      5  H   UNL     1       5.318   7.681  18.019  0.00  0.00    +0.000 HD
BRANCH   4   6
ATOM      6  S   UNL     1       7.327   6.785  17.416  0.00  0.00    +0.000 S 
ATOM      7  C   UNL     1       7.738   8.500  17.623  0.00  0.00    +0.000 C 
ATOM      8  O   UNL     1       7.820   6.063  18.560  0.00  0.00    +0.000 OA
ATOM      9  O   UNL     1       7.699   6.410  16.068  0.00  0.00    +0.000 OA
ENDBRANCH   4   6
ENDBRANCH   2   4
BRANCH   2  10
ATOM     10  C   UNL     1       3.302   5.961  17.948  0.00  0.00    +0.000 C 
BRANCH  10  11
ATOM     11  C   UNL     1       2.446   4.912  18.633  0.00  0.00    +0.000 A 
ATOM     12  C   UNL     1       2.036   3.761  17.946  0.00  0.00    +0.000 A 
ATOM     13  C   UNL     1       1.152   2.856  18.540  0.00  0.00    +0.000 A 
ATOM     14  C   UNL     1       0.675   3.085  19.827  0.00  0.00    +0.000 A 
ATOM     15  C   UNL     1       1.116   4.195  20.541  0.00  0.00    +0.000 A 
ATOM     16  C   UNL     1       2.009   5.089  19.953  0.00  0.00    +0.000 A 
ENDBRANCH  10  11
ENDBRANCH   2  10
TORSDOF 4
ENDMDL
MODEL 8
REMARK VINA RESULT:      -6.4      2.082      3.558
REMARK  Name = 
REMARK  7 active torsions:
REMARK  status: ('A' for Active; 'I' for Inactive)
REMARK    1  A    between atoms: C_1  and  C_2
REMARK    2  A    between atoms: C_2  and  C_3
REMARK    3  A    between atoms: C_2  and  C_4
REMARK    4  A    between atoms: C_2  and  N_11
REMARK    5  A    between atoms: C_4  and  C_5
REMARK    6  A    between atoms: N_11  and  S_12
REMARK    7  A    between atoms: S_12  and  C_13
REMARK                            x       y       z     vdW  Elec       q    Type
REMARK                         _______ _______ _______ _____ _____    ______ ____
ROOT
ATOM      1  C   UNL     1       7.338   7.218  17.448  0.00  0.00    +0.000 C 
ATOM      2  C   UNL     1       6.842   5.822  17.861  0.00  0.00    +0.000 C 
ATOM      3  C   UNL     1       7.767   5.340  18.999  0.00  0.00    +0.000 C 
ENDROOT
BRANCH   2   4
ATOM      4  N   UNL     1       7.023   4.835  16.741  0.00  0.00    +0.000 NA
ATOM      5  H   UNL     1       6.602   3.933  16.984  0.00  0.00    +0.000 HD
BRANCH   4   6
ATOM      6  S   UNL     1       6.701   5.264  15.135  0.00  0.00    +0.000 S 
ATOM      7  C   UNL     1       6.121   3.715  14.491  0.00  0.00    +0.000 C 
ATOM      8  O   UNL     1       5.605   6.198  15.118  0.00  0.00    +0.000 OA
ATOM      9  O   UNL     1       7.958   5.563  14.482  0.00  0.00    +0.000 OA
ENDBRANCH   4   6
ENDBRANCH   2   4
BRANCH   2  10
ATOM     10  C   UNL     1       5.358   5.901  18.336  0.00  0.00    +0.000 C 
BRANCH  10  11
ATOM     11  C   UNL     1       4.584   4.597  18.276  0.00  0.00    +0.000 A 
ATOM     12  C   UNL     1       3.626   4.379  17.277  0.00  0.00    +0.000 A 
ATOM     13  C   UNL     1       2.831   3.230  17.293  0.00  0.00    +0.000 A 
ATOM     14  C   UNL     1       2.991   2.282  18.300  0.00  0.00    +0.000 A 
ATOM     15  C   UNL     1       3.975   2.460  19.267  0.00  0.00    +0.000 A 
ATOM     16  C   UNL     1       4.777   3.600  19.241  0.00  0.00    +0.000 A 
ENDBRANCH  10  11
ENDBRANCH   2  10
TORSDOF 4
ENDMDL
MODEL 9
REMARK VINA RESULT:      -6.4      1.336      1.803
REMARK  Name = 
REMARK  7 active torsions:
REMARK  status: ('A' for Active; 'I' for Inactive)
REMARK    1  A    between atoms: C_1  and  C_2
REMARK    2  A    between atoms: C_2  and  C_3
REMARK    3  A    between atoms: C_2  and  C_4
REMARK    4  A    between atoms: C_2  and  N_11
REMARK    5  A    between atoms: C_4  and  C_5
REMARK    6  A    between atoms: N_11  and  S_12
REMARK    7  A    between atoms: S_12  and  C_13
REMARK                            x       y       z     vdW  Elec       q    Type
REMARK                         _______ _______ _______ _____ _____    ______ ____
ROOT
ATOM      1  C   UNL     1       4.838   4.494  16.298  0.00  0.00    +0.000 C 
ATOM      2  C   UNL     1       4.680   5.122  17.693  0.00  0.00    +0.000 C 
ATOM      3  C   UNL     1       3.356   5.915  17.678  0.00  0.00    +0.000 C 
ENDROOT
BRANCH   2   4
ATOM      4  N   UNL     1       5.761   6.135  17.952  0.00  0.00    +0.000 NA
ATOM      5  H   UNL     1       5.384   6.943  18.456  0.00  0.00    +0.000 HD
BRANCH   4   6
ATOM      6  S   UNL     1       7.272   5.667  18.558  0.00  0.00    +0.000 S 
ATOM      7  C   UNL     1       8.170   7.191  18.410  0.00  0.00    +0.000 C 
ATOM      8  O   UNL     1       7.133   5.359  19.958  0.00  0.00    +0.000 OA
ATOM      9  O   UNL     1       7.862   4.724  17.632  0.00  0.00    +0.000 OA
ENDBRANCH   4   6
ENDBRANCH   2   4
BRANCH   2  10
ATOM     10  C   UNL     1       4.654   4.004  18.781  0.00  0.00    +0.000 C 
BRANCH  10  11
ATOM     11  C   UNL     1       3.273   3.562  19.230  0.00  0.00    +0.000 A 
ATOM     12  C   UNL     1       2.509   2.691  18.442  0.00  0.00    +0.000 A 
ATOM     13  C   UNL     1       1.194   2.380  18.798  0.00  0.00    +0.000 A 
ATOM     14  C   UNL     1       0.632   2.926  19.948  0.00  0.00    +0.000 A 
ATOM     15  C   UNL     1       1.397   3.750  20.768  0.00  0.00    +0.000 A 
ATOM     16  C   UNL     1       2.713   4.048  20.419  0.00  0.00    +0.000 A 
ENDBRANCH  10  11
ENDBRANCH   2  10
TORSDOF 4
ENDMDL
