MODEL 1
REMARK VINA RESULT:      -7.6      0.000      0.000
REMARK  Name = 
REMARK  8 active torsions:
REMARK  status: ('A' for Active; 'I' for Inactive)
REMARK    1  A    between atoms: C_1  and  C_2
REMARK    2  A    between atoms: C_5  and  C_6
REMARK    3  A    between atoms: N_7  and  C_8
REMARK    4  A    between atoms: C_8  and  C_9
REMARK    5  A    between atoms: C_8  and  C_13
REMARK    6  A    between atoms: C_9  and  C_10
REMARK    7  A    between atoms: C_10  and  O_12
REMARK    8  A    between atoms: C_13  and  C_14
REMARK                            x       y       z     vdW  Elec       q    Type
REMARK                         _______ _______ _______ _____ _____    ______ ____
ROOT
ATOM      1  C   UNL     1       5.378   6.054  16.722  0.00  0.00    +0.000 C 
ENDROOT
BRANCH   1   8
ATOM      2  C   UNL     1       5.647   3.903  19.171  0.00  0.00    +0.000 C 
ATOM      3  C   UNL     1       6.513   5.079  18.865  0.00  0.00    +0.000 A 
ATOM      4  C   UNL     1       7.640   5.409  19.596  0.00  0.00    +0.000 A 
ATOM      5  C   UNL     1       8.178   6.584  19.066  0.00  0.00    +0.000 A 
ATOM      6  C   UNL     1       7.374   6.981  18.019  0.00  0.00    +0.000 A 
ATOM      7  C   UNL     1       7.573   8.217  17.206  0.00  0.00    +0.000 C 
ATOM      8  N   UNL     1       6.358   6.024  17.851  0.00  0.00    +0.000 N 
ENDBRANCH   1   8
BRANCH   1   9
ATOM      9  C   UNL     1       5.385   4.707  15.979  0.00  0.00    +0.000 C 
BRANCH   9  10
ATOM     10  C   UNL     1       6.482   4.591  14.963  0.00  0.00    +0.000 C 
ATOM     11  O   UNL     1       7.415   5.380  14.872  0.00  0.00    +0.000 OA
BRANCH  10  12
ATOM     12  O   UNL     1       6.383   3.522  14.146  0.00  0.00    +0.000 OA
ATOM     13  H   UNL     1       7.001   3.528  13.390  0.00  0.00    +0.000 HD
ENDBRANCH  10  12
ENDBRANCH   9  10
ENDBRANCH   1   9
BRANCH   1  14
ATOM     14  C   UNL     1       3.947   6.539  17.072  0.00  0.00    +0.000 C 
BRANCH  14  15
ATOM     15  C   UNL     1       3.286   6.090  18.359  0.00  0.00    +0.000 A 
ATOM     16  C   UNL     1       3.010   6.877  19.463  0.00  0.00    +0.000 A 
ATOM     17  N   UNL     1       2.194   6.188  20.316  0.00  0.00    +0.000 N 
ATOM     18  C   UNL     1       1.845   4.986  19.760  0.00  0.00    +0.000 A 
ATOM     19  C   UNL     1       0.914   4.037  20.199  0.00  0.00    +0.000 A 
ATOM     20  C   UNL     1       0.746   2.888  19.426  0.00  0.00    +0.000 A 
ATOM     21  C   UNL     1       1.504   2.686  18.276  0.00  0.00    +0.000 A 
ATOM     22  C   UNL     1       2.418   3.656  17.839  0.00  0.00    +0.000 A 
ATOM     23  C   UNL     1       2.580   4.849  18.578  0.00  0.00    +0.000 A 
ATOM     24  H   UNL     1       1.816   6.553  21.179  0.00  0.00    +0.000 HD
ENDBRANCH  14  15
ENDBRANCH   1  14
TORSDOF 6
ENDMDL
MODEL 2
REMARK VINA RESULT:      -7.4      2.336      5.943
REMARK  Name = 
REMARK  8 active torsions:
REMARK  status: ('A' for Active; 'I' for Inactive)
REMARK    1  A    between atoms: C_1  and  C_2
REMARK    2  A    between atoms: C_5  and  C_6
REMARK    3  A    between atoms: N_7  and  C_8
REMARK    4  A    between atoms: C_8  and  C_9
REMARK    5  A    between atoms: C_8  and  C_13
REMARK    6  A    between atoms: C_9  and  C_10
REMARK    7  A    between atoms: C_10  and  O_12
REMARK    8  A    between atoms: C_13  and  C_14
REMARK                            x       y       z     vdW  Elec       q    Type
REMARK                         _______ _______ _______ _____ _____    ______ ____
ROOT
ATOM      1  C   UNL     1       4.561   4.591  17.937  0.00  0.00    +0.000 C 
ENDROOT
BRANCH   1   8
ATOM      2  C   UNL     1       3.154   1.699  18.528  0.00  0.00    +0.000 C 
ATOM      3  C   UNL     1       2.722   3.054  18.979  0.00  0.00    +0.000 A 
ATOM      4  C   UNL     1       1.626   3.275  19.794  0.00  0.00    +0.000 A 
ATOM      5  C   UNL     1       1.486   4.653  19.977  0.00  0.00    +0.000 A 
ATOM      6  C   UNL     1       2.488   5.277  19.264  0.00  0.00    +0.000 A 
ATOM      7  C   UNL     1       2.672   6.754  19.158  0.00  0.00    +0.000 C 
ATOM      8  N   UNL     1       3.296   4.289  18.675  0.00  0.00    +0.000 N 
ENDBRANCH   1   8
BRANCH   1   9
ATOM      9  C   UNL     1       5.779   4.259  18.816  0.00  0.00    +0.000 C 
BRANCH   9  10
ATOM     10  C   UNL     1       6.594   5.461  19.187  0.00  0.00    +0.000 C 
ATOM     11  O   UNL     1       6.516   6.542  18.617  0.00  0.00    +0.000 OA
BRANCH  10  12
ATOM     12  O   UNL     1       7.430   5.275  20.231  0.00  0.00    +0.000 OA
ATOM     13  H   UNL     1       7.552   4.343  20.494  0.00  0.00    +0.000 HD
ENDBRANCH  10  12
ENDBRANCH   9  10
ENDBRANCH   1   9
BRANCH   1  14
ATOM     14  C   UNL     1       4.674   4.005  16.506  0.00  0.00    +0.000 C 
BRANCH  14  15
ATOM     15  C   UNL     1       5.658   4.597  15.518  0.00  0.00    +0.000 A 
ATOM     16  C   UNL     1       6.757   5.381  15.819  0.00  0.00    +0.000 A 
ATOM     17  N   UNL     1       7.536   5.513  14.703  0.00  0.00    +0.000 N 
ATOM     18  C   UNL     1       7.024   4.757  13.684  0.00  0.00    +0.000 A 
ATOM     19  C   UNL     1       7.570   4.467  12.427  0.00  0.00    +0.000 A 
ATOM     20  C   UNL     1       6.830   3.649  11.572  0.00  0.00    +0.000 A 
ATOM     21  C   UNL     1       5.580   3.167  11.952  0.00  0.00    +0.000 A 
ATOM     22  C   UNL     1       5.058   3.449  13.223  0.00  0.00    +0.000 A 
ATOM     23  C   UNL     1       5.802   4.241  14.126  0.00  0.00    +0.000 A 
ATOM     24  H   UNL     1       8.417   6.008  14.666  0.00  0.00    +0.000 HD
ENDBRANCH  14  15
ENDBRANCH   1  14
TORSDOF 6
ENDMDL
MODEL 3
REMARK VINA RESULT:      -7.2      2.743      6.293
REMARK  Name = 
REMARK  8 active torsions:
REMARK  status: ('A' for Active; 'I' for Inactive)
REMARK    1  A    between atoms: C_1  and  C_2
REMARK    2  A    between atoms: C_5  and  C_6
REMARK    3  A    between atoms: N_7  and  C_8
REMARK    4  A    between atoms: C_8  and  C_9
REMARK    5  A    between atoms: C_8  and  C_13
REMARK    6  A    between atoms: C_9  and  C_10
REMARK    7  A    between atoms: C_10  and  O_12
REMARK    8  A    between atoms: C_13  and  C_14
REMARK                            x       y       z     vdW  Elec       q    Type
REMARK                         _______ _______ _______ _____ _____    ______ ____
ROOT
ATOM      1  C   UNL     1       3.846   4.454  17.702  0.00  0.00    +0.000 C 
ENDROOT
BRANCH   1   8
ATOM      2  C   UNL     1       4.452   2.262  20.051  0.00  0.00    +0.000 C 
ATOM      3  C   UNL     1       3.137   2.672  19.477  0.00  0.00    +0.000 A 
ATOM      4  C   UNL     1       1.923   2.180  19.920  0.00  0.00    +0.000 A 
ATOM      5  C   UNL     1       0.911   2.737  19.135  0.00  0.00    +0.000 A 
ATOM      6  C   UNL     1       1.506   3.561  18.202  0.00  0.00    +0.000 A 
ATOM      7  C   UNL     1       0.780   4.317  17.140  0.00  0.00    +0.000 C 
ATOM      8  N   UNL     1       2.892   3.566  18.435  0.00  0.00    +0.000 N 
ENDBRANCH   1   8
BRANCH   1   9
ATOM      9  C   UNL     1       4.347   5.574  18.629  0.00  0.00    +0.000 C 
BRANCH   9  10
ATOM     10  C   UNL     1       3.291   6.579  18.978  0.00  0.00    +0.000 C 
ATOM     11  O   UNL     1       2.889   7.443  18.209  0.00  0.00    +0.000 OA
BRANCH  10  12
ATOM     12  O   UNL     1       2.785   6.455  20.224  0.00  0.00    +0.000 OA
ATOM     13  H   UNL     1       1.980   5.906  20.284  0.00  0.00    +0.000 HD
ENDBRANCH  10  12
ENDBRANCH   9  10
ENDBRANCH   1   9
BRANCH   1  14
ATOM     14  C   UNL     1       4.996   3.742  16.943  0.00  0.00    +0.000 C 
BRANCH  14  15
ATOM     15  C   UNL     1       5.879   4.526  15.994  0.00  0.00    +0.000 A 
ATOM     16  C   UNL     1       6.899   5.393  16.343  0.00  0.00    +0.000 A 
ATOM     17  N   UNL     1       7.622   5.711  15.227  0.00  0.00    +0.000 N 
ATOM     18  C   UNL     1       7.160   5.001  14.152  0.00  0.00    +0.000 A 
ATOM     19  C   UNL     1       7.692   4.890  12.861  0.00  0.00    +0.000 A 
ATOM     20  C   UNL     1       7.014   4.080  11.950  0.00  0.00    +0.000 A 
ATOM     21  C   UNL     1       5.835   3.432  12.310  0.00  0.00    +0.000 A 
ATOM     22  C   UNL     1       5.328   3.538  13.613  0.00  0.00    +0.000 A 
ATOM     23  C   UNL     1       6.014   4.318  14.571  0.00  0.00    +0.000 A 
ATOM     24  H   UNL     1       8.445   6.299  15.218  0.00  0.00    +0.000 HD
ENDBRANCH  14  15
ENDBRANCH   1  14
TORSDOF 6
ENDMDL
MODEL 4
REMARK VINA RESULT:      -7.2      2.862      6.010
REMARK  Name = 
REMARK  8 active torsions:
REMARK  status: ('A' for Active; 'I' for Inactive)
REMARK    1  A    between atoms: C_1  and  C_2
REMARK    2  A    between atoms: C_5  and  C_6
REMARK    3  A    between atoms: N_7  and  C_8
REMARK    4  A    between atoms: C_8  and  C_9
REMARK    5  A    between atoms: C_8  and  C_13
REMARK    6  A    between atoms: C_9  and  C_10
REMARK    7  A    between atoms: C_10  and  O_12
REMARK    8  A    between atoms: C_13  and  C_14
REMARK                            x       y       z     vdW  Elec       q    Type
REMARK                         _______ _______ _______ _____ _____    ______ ____
ROOT
ATOM      1  C   UNL     1       4.490   3.389  17.903  0.00  0.00    +0.000 C 
ENDROOT
BRANCH   1   8
ATOM      2  C   UNL     1       1.354   4.221  17.494  0.00  0.00    +0.000 C 
ATOM      3  C   UNL     1       2.427   4.962  18.219  0.00  0.00    +0.000 A 
ATOM      4  C   UNL     1       2.213   6.151  18.894  0.00  0.00    +0.000 A 
ATOM      5  C   UNL     1       3.434   6.586  19.413  0.00  0.00    +0.000 A 
ATOM      6  C   UNL     1       4.399   5.672  19.046  0.00  0.00    +0.000 A 
ATOM      7  C   UNL     1       5.853   5.786  19.362  0.00  0.00    +0.000 C 
ATOM      8  N   UNL     1       3.775   4.628  18.341  0.00  0.00    +0.000 N 
ENDBRANCH   1   8
BRANCH   1   9
ATOM      9  C   UNL     1       3.854   2.151  18.558  0.00  0.00    +0.000 C 
BRANCH   9  10
ATOM     10  C   UNL     1       4.122   2.049  20.029  0.00  0.00    +0.000 C 
ATOM     11  O   UNL     1       3.320   2.379  20.894  0.00  0.00    +0.000 OA
BRANCH  10  12
ATOM     12  O   UNL     1       5.331   1.540  20.348  0.00  0.00    +0.000 OA
ATOM     13  H   UNL     1       5.587   0.748  19.838  0.00  0.00    +0.000 HD
ENDBRANCH  10  12
ENDBRANCH   9  10
ENDBRANCH   1   9
BRANCH   1  14
ATOM     14  C   UNL     1       4.694   3.223  16.374  0.00  0.00    +0.000 C 
BRANCH  14  15
ATOM     15  C   UNL     1       5.645   4.138  15.631  0.00  0.00    +0.000 A 
ATOM     16  C   UNL     1       6.589   4.978  16.193  0.00  0.00    +0.000 A 
ATOM     17  N   UNL     1       7.416   5.448  15.211  0.00  0.00    +0.000 N 
ATOM     18  C   UNL     1       7.098   4.867  14.014  0.00  0.00    +0.000 A 
ATOM     19  C   UNL     1       7.768   4.929  12.786  0.00  0.00    +0.000 A 
ATOM     20  C   UNL     1       7.223   4.223  11.714  0.00  0.00    +0.000 A 
ATOM     21  C   UNL     1       6.036   3.509  11.860  0.00  0.00    +0.000 A 
ATOM     22  C   UNL     1       5.388   3.441  13.102  0.00  0.00    +0.000 A 
ATOM     23  C   UNL     1       5.939   4.111  14.217  0.00  0.00    +0.000 A 
ATOM     24  H   UNL     1       8.213   6.052  15.364  0.00  0.00    +0.000 HD
ENDBRANCH  14  15
ENDBRANCH   1  14
TORSDOF 6
ENDMDL
MODEL 5
REMARK VINA RESULT:      -7.1      0.235      1.743
REMARK  Name = 
REMARK  8 active torsions:
REMARK  status: ('A' for Active; 'I' for Inactive)
REMARK    1  A    between atoms: C_1  and  C_2
REMARK    2  A    between atoms: C_5  and  C_6
REMARK    3  A    between atoms: N_7  and  C_8
REMARK    4  A    between atoms: C_8  and  C_9
REMARK    5  A    between atoms: C_8  and  C_13
REMARK    6  A    between atoms: C_9  and  C_10
REMARK    7  A    between atoms: C_10  and  O_12
REMARK    8  A    between atoms: C_13  and  C_14
REMARK                            x       y       z     vdW  Elec       q    Type
REMARK                         _______ _______ _______ _____ _____    ______ ____
ROOT
ATOM      1  C   UNL     1       5.325   6.172  16.578  0.00  0.00    +0.000 C 
ENDROOT
BRANCH   1   8
ATOM      2  C   UNL     1       7.719   8.275  17.313  0.00  0.00    +0.000 C 
ATOM      3  C   UNL     1       7.364   6.993  17.991  0.00  0.00    +0.000 A 
ATOM      4  C   UNL     1       8.014   6.518  19.116  0.00  0.00    +0.000 A 
ATOM      5  C   UNL     1       7.461   5.280  19.452  0.00  0.00    +0.000 A 
ATOM      6  C   UNL     1       6.481   4.991  18.526  0.00  0.00    +0.000 A 
ATOM      7  C   UNL     1       5.672   3.737  18.498  0.00  0.00    +0.000 C 
ATOM      8  N   UNL     1       6.378   6.074  17.636  0.00  0.00    +0.000 N 
ENDBRANCH   1   8
BRANCH   1   9
ATOM      9  C   UNL     1       5.253   4.859  15.778  0.00  0.00    +0.000 C 
BRANCH   9  10
ATOM     10  C   UNL     1       6.417   4.658  14.855  0.00  0.00    +0.000 C 
ATOM     11  O   UNL     1       7.342   5.452  14.738  0.00  0.00    +0.000 OA
BRANCH  10  12
ATOM     12  O   UNL     1       6.388   3.504  14.155  0.00  0.00    +0.000 OA
ATOM     13  H   UNL     1       6.932   3.506  13.344  0.00  0.00    +0.000 HD
ENDBRANCH  10  12
ENDBRANCH   9  10
ENDBRANCH   1   9
BRANCH   1  14
ATOM     14  C   UNL     1       3.932   6.668  17.045  0.00  0.00    +0.000 C 
BRANCH  14  15
ATOM     15  C   UNL     1       3.346   6.169  18.351  0.00  0.00    +0.000 A 
ATOM     16  C   UNL     1       3.186   6.899  19.514  0.00  0.00    +0.000 A 
ATOM     17  N   UNL     1       2.404   6.194  20.385  0.00  0.00    +0.000 N 
ATOM     18  C   UNL     1       1.963   5.043  19.790  0.00  0.00    +0.000 A 
ATOM     19  C   UNL     1       1.024   4.108  20.243  0.00  0.00    +0.000 A 
ATOM     20  C   UNL     1       0.749   3.015  19.421  0.00  0.00    +0.000 A 
ATOM     21  C   UNL     1       1.412   2.852  18.207  0.00  0.00    +0.000 A 
ATOM     22  C   UNL     1       2.334   3.809  17.759  0.00  0.00    +0.000 A 
ATOM     23  C   UNL     1       2.603   4.947  18.551  0.00  0.00    +0.000 A 
ATOM     24  H   UNL     1       2.106   6.522  21.294  0.00  0.00    +0.000 HD
ENDBRANCH  14  15
ENDBRANCH   1  14
TORSDOF 6
ENDMDL
MODEL 6
REMARK VINA RESULT:      -7.1      2.407      5.754
REMARK  Name = 
REMARK  8 active torsions:
REMARK  status: ('A' for Active; 'I' for Inactive)
REMARK    1  A    between atoms: C_1  and  C_2
REMARK    2  A    between atoms: C_5  and  C_6
REMARK    3  A    between atoms: N_7  and  C_8
REMARK    4  A    between atoms: C_8  and  C_9
REMARK    5  A    between atoms: C_8  and  C_13
REMARK    6  A    between atoms: C_9  and  C_10
REMARK    7  A    between atoms: C_10  and  O_12
REMARK    8  A    between atoms: C_13  and  C_14
REMARK                            x       y       z     vdW  Elec       q    Type
REMARK                         _______ _______ _______ _____ _____    ______ ____
ROOT
ATOM      1  C   UNL     1       5.002   5.061  17.941  0.00  0.00    +0.000 C 
ENDROOT
BRANCH   1   8
ATOM      2  C   UNL     1       4.024   2.578  19.830  0.00  0.00    +0.000 C 
ATOM      3  C   UNL     1       3.434   3.943  19.708  0.00  0.00    +0.000 A 
ATOM      4  C   UNL     1       2.356   4.380  20.457  0.00  0.00    +0.000 A 
ATOM      5  C   UNL     1       2.042   5.680  20.055  0.00  0.00    +0.000 A 
ATOM      6  C   UNL     1       2.918   6.035  19.051  0.00  0.00    +0.000 A 
ATOM      7  C   UNL     1       2.897   7.333  18.315  0.00  0.00    +0.000 C 
ATOM      8  N   UNL     1       3.824   4.978  18.858  0.00  0.00    +0.000 N 
ENDBRANCH   1   8
BRANCH   1   9
ATOM      9  C   UNL     1       6.256   4.505  18.638  0.00  0.00    +0.000 C 
BRANCH   9  10
ATOM     10  C   UNL     1       7.118   5.565  19.253  0.00  0.00    +0.000 C 
ATOM     11  O   UNL     1       7.629   5.472  20.362  0.00  0.00    +0.000 OA
BRANCH  10  12
ATOM     12  O   UNL     1       7.314   6.653  18.478  0.00  0.00    +0.000 OA
ATOM     13  H   UNL     1       7.258   6.484  17.518  0.00  0.00    +0.000 HD
ENDBRANCH  10  12
ENDBRANCH   9  10
ENDBRANCH   1   9
BRANCH   1  14
ATOM     14  C   UNL     1       4.801   4.485  16.516  0.00  0.00    +0.000 C 
BRANCH  14  15
ATOM     15  C   UNL     1       5.771   4.840  15.408  0.00  0.00    +0.000 A 
ATOM     16  C   UNL     1       6.978   5.501  15.550  0.00  0.00    +0.000 A 
ATOM     17  N   UNL     1       7.679   5.417  14.380  0.00  0.00    +0.000 N 
ATOM     18  C   UNL     1       7.002   4.634  13.484  0.00  0.00    +0.000 A 
ATOM     19  C   UNL     1       7.410   4.149  12.235  0.00  0.00    +0.000 A 
ATOM     20  C   UNL     1       6.512   3.353  11.525  0.00  0.00    +0.000 A 
ATOM     21  C   UNL     1       5.246   3.078  12.034  0.00  0.00    +0.000 A 
ATOM     22  C   UNL     1       4.861   3.553  13.296  0.00  0.00    +0.000 A 
ATOM     23  C   UNL     1       5.763   4.329  14.057  0.00  0.00    +0.000 A 
ATOM     24  H   UNL     1       8.608   5.787  14.233  0.00  0.00    +0.000 HD
ENDBRANCH  14  15
ENDBRANCH   1  14
TORSDOF 6
ENDMDL
MODEL 7
REMARK VINA RESULT:      -7.1      1.614      2.316
REMARK  Name = 
REMARK  8 active torsions:
REMARK  status: ('A' for Active; 'I' for Inactive)
REMARK    1  A    between atoms: C_1  and  C_2
REMARK    2  A    between atoms: C_5  and  C_6
REMARK    3  A    between atoms: N_7  and  C_8
REMARK    4  A    between atoms: C_8  and  C_9
REMARK    5  A    between atoms: C_8  and  C_13
REMARK    6  A    between atoms: C_9  and  C_10
REMARK    7  A    between atoms: C_10  and  O_12
REMARK    8  A    between atoms: C_13  and  C_14
REMARK                            x       y       z     vdW  Elec       q    Type
REMARK                         _______ _______ _______ _____ _____    ______ ____
ROOT
ATOM      1  C   UNL     1       5.384   4.318  16.312  0.00  0.00    +0.000 C 
ENDROOT
BRANCH   1   8
ATOM      2  C   UNL     1       8.155   4.356  18.048  0.00  0.00    +0.000 C 
ATOM      3  C   UNL     1       7.297   5.506  17.638  0.00  0.00    +0.000 A 
ATOM      4  C   UNL     1       7.604   6.826  17.918  0.00  0.00    +0.000 A 
ATOM      5  C   UNL     1       6.568   7.628  17.433  0.00  0.00    +0.000 A 
ATOM      6  C   UNL     1       5.621   6.800  16.868  0.00  0.00    +0.000 A 
ATOM      7  C   UNL     1       4.332   7.255  16.270  0.00  0.00    +0.000 C 
ATOM      8  N   UNL     1       6.087   5.476  16.946  0.00  0.00    +0.000 N 
ENDBRANCH   1   8
BRANCH   1   9
ATOM      9  C   UNL     1       6.324   3.603  15.326  0.00  0.00    +0.000 C 
BRANCH   9  10
ATOM     10  C   UNL     1       6.553   4.367  14.057  0.00  0.00    +0.000 C 
ATOM     11  O   UNL     1       7.209   5.399  13.990  0.00  0.00    +0.000 OA
BRANCH  10  12
ATOM     12  O   UNL     1       5.988   3.819  12.960  0.00  0.00    +0.000 OA
ATOM     13  H   UNL     1       5.016   3.740  12.998  0.00  0.00    +0.000 HD
ENDBRANCH  10  12
ENDBRANCH   9  10
ENDBRANCH   1   9
BRANCH   1  14
ATOM     14  C   UNL     1       4.670   3.339  17.280  0.00  0.00    +0.000 C 
BRANCH  14  15
ATOM     15  C   UNL     1       3.349   3.725  17.914  0.00  0.00    +0.000 A 
ATOM     16  C   UNL     1       2.229   4.203  17.258  0.00  0.00    +0.000 A 
ATOM     17  N   UNL     1       1.167   4.200  18.118  0.00  0.00    +0.000 N 
ATOM     18  C   UNL     1       1.535   3.643  19.313  0.00  0.00    +0.000 A 
ATOM     19  C   UNL     1       0.745   3.294  20.415  0.00  0.00    +0.000 A 
ATOM     20  C   UNL     1       1.384   2.724  21.516  0.00  0.00    +0.000 A 
ATOM     21  C   UNL     1       2.765   2.540  21.522  0.00  0.00    +0.000 A 
ATOM     22  C   UNL     1       3.538   2.875  20.401  0.00  0.00    +0.000 A 
ATOM     23  C   UNL     1       2.913   3.416  19.255  0.00  0.00    +0.000 A 
ATOM     24  H   UNL     1       0.223   4.468  17.875  0.00  0.00    +0.000 HD
ENDBRANCH  14  15
ENDBRANCH   1  14
TORSDOF 6
ENDMDL
MODEL 8
REMARK VINA RESULT:      -7.0      2.370      6.110
REMARK  Name = 
REMARK  8 active torsions:
REMARK  status: ('A' for Active; 'I' for Inactive)
REMARK    1  A    between atoms: C_1  and  C_2
REMARK    2  A    between atoms: C_5  and  C_6
REMARK    3  A    between atoms: N_7  and  C_8
REMARK    4  A    between atoms: C_8  and  C_9
REMARK    5  A    between atoms: C_8  and  C_13
REMARK    6  A    between atoms: C_9  and  C_10
REMARK    7  A    between atoms: C_10  and  O_12
REMARK    8  A    between atoms: C_13  and  C_14
REMARK                            x       y       z     vdW  Elec       q    Type
REMARK                         _______ _______ _______ _____ _____    ______ ____
ROOT
ATOM      1  C   UNL     1       4.631   4.693  17.910  0.00  0.00    +0.000 C 
ENDROOT
BRANCH   1   8
ATOM      2  C   UNL     1       2.619   6.825  19.360  0.00  0.00    +0.000 C 
ATOM      3  C   UNL     1       2.497   5.340  19.273  0.00  0.00    +0.000 A 
ATOM      4  C   UNL     1       1.427   4.630  19.787  0.00  0.00    +0.000 A 
ATOM      5  C   UNL     1       1.660   3.270  19.572  0.00  0.00    +0.000 A 
ATOM      6  C   UNL     1       2.878   3.145  18.937  0.00  0.00    +0.000 A 
ATOM      7  C   UNL     1       3.521   1.852  18.563  0.00  0.00    +0.000 C 
ATOM      8  N   UNL     1       3.389   4.433  18.701  0.00  0.00    +0.000 N 
ENDBRANCH   1   8
BRANCH   1   9
ATOM      9  C   UNL     1       5.872   4.287  18.724  0.00  0.00    +0.000 C 
BRANCH   9  10
ATOM     10  C   UNL     1       6.687   5.455  19.194  0.00  0.00    +0.000 C 
ATOM     11  O   UNL     1       6.718   6.539  18.626  0.00  0.00    +0.000 OA
BRANCH  10  12
ATOM     12  O   UNL     1       7.388   5.233  20.326  0.00  0.00    +0.000 OA
ATOM     13  H   UNL     1       7.344   5.955  20.981  0.00  0.00    +0.000 HD
ENDBRANCH  10  12
ENDBRANCH   9  10
ENDBRANCH   1   9
BRANCH   1  14
ATOM     14  C   UNL     1       4.650   4.132  16.465  0.00  0.00    +0.000 C 
BRANCH  14  15
ATOM     15  C   UNL     1       5.648   4.664  15.456  0.00  0.00    +0.000 A 
ATOM     16  C   UNL     1       6.773   5.421  15.730  0.00  0.00    +0.000 A 
ATOM     17  N   UNL     1       7.551   5.495  14.609  0.00  0.00    +0.000 N 
ATOM     18  C   UNL     1       7.011   4.726  13.614  0.00  0.00    +0.000 A 
ATOM     19  C   UNL     1       7.542   4.382  12.364  0.00  0.00    +0.000 A 
ATOM     20  C   UNL     1       6.774   3.564  11.537  0.00  0.00    +0.000 A 
ATOM     21  C   UNL     1       5.511   3.132  11.935  0.00  0.00    +0.000 A 
ATOM     22  C   UNL     1       5.003   3.468  13.198  0.00  0.00    +0.000 A 
ATOM     23  C   UNL     1       5.775   4.262  14.075  0.00  0.00    +0.000 A 
ATOM     24  H   UNL     1       8.447   5.960  14.554  0.00  0.00    +0.000 HD
ENDBRANCH  14  15
ENDBRANCH   1  14
TORSDOF 6
ENDMDL
MODEL 9
REMARK VINA RESULT:      -7.0      3.185      6.151
REMARK  Name = 
REMARK  8 active torsions:
REMARK  status: ('A' for Active; 'I' for Inactive)
REMARK    1  A    between atoms: C_1  and  C_2
REMARK    2  A    between atoms: C_5  and  C_6
REMARK    3  A    between atoms: N_7  and  C_8
REMARK    4  A    between atoms: C_8  and  C_9
REMARK    5  A    between atoms: C_8  and  C_13
REMARK    6  A    between atoms: C_9  and  C_10
REMARK    7  A    between atoms: C_10  and  O_12
REMARK    8  A    between atoms: C_13  and  C_14
REMARK                            x       y       z     vdW  Elec       q    Type
REMARK                         _______ _______ _______ _____ _____    ______ ____
ROOT
ATOM      1  C   UNL     1       2.157   5.845  19.656  0.00  0.00    +0.000 C 
ENDROOT
BRANCH   1   8
ATOM      2  C   UNL     1       2.277   3.532  21.964  0.00  0.00    +0.000 C 
ATOM      3  C   UNL     1       1.822   3.412  20.548  0.00  0.00    +0.000 A 
ATOM      4  C   UNL     1       1.318   2.244  20.003  0.00  0.00    +0.000 A 
ATOM      5  C   UNL     1       1.037   2.475  18.655  0.00  0.00    +0.000 A 
ATOM      6  C   UNL     1       1.381   3.780  18.369  0.00  0.00    +0.000 A 
ATOM      7  C   UNL     1       1.279   4.418  17.025  0.00  0.00    +0.000 C 
ATOM      8  N   UNL     1       1.828   4.390  19.554  0.00  0.00    +0.000 N 
ENDBRANCH   1   8
BRANCH   1   9
ATOM      9  C   UNL     1       1.311   6.504  20.759  0.00  0.00    +0.000 C 
BRANCH   9  10
ATOM     10  C   UNL     1       1.462   7.995  20.818  0.00  0.00    +0.000 C 
ATOM     11  O   UNL     1       1.311   8.735  19.854  0.00  0.00    +0.000 OA
BRANCH  10  12
ATOM     12  O   UNL     1       1.765   8.483  22.039  0.00  0.00    +0.000 OA
ATOM     13  H   UNL     1       2.513   8.039  22.482  0.00  0.00    +0.000 HD
ENDBRANCH  10  12
ENDBRANCH   9  10
ENDBRANCH   1   9
BRANCH   1  14
ATOM     14  C   UNL     1       3.664   6.198  19.762  0.00  0.00    +0.000 C 
BRANCH  14  15
ATOM     15  C   UNL     1       4.688   5.398  18.984  0.00  0.00    +0.000 A 
ATOM     16  C   UNL     1       5.247   4.190  19.357  0.00  0.00    +0.000 A 
ATOM     17  N   UNL     1       5.929   3.661  18.297  0.00  0.00    +0.000 N 
ATOM     18  C   UNL     1       5.762   4.452  17.193  0.00  0.00    +0.000 A 
ATOM     19  C   UNL     1       6.141   4.221  15.865  0.00  0.00    +0.000 A 
ATOM     20  C   UNL     1       5.834   5.203  14.923  0.00  0.00    +0.000 A 
ATOM     21  C   UNL     1       5.199   6.382  15.304  0.00  0.00    +0.000 A 
ATOM     22  C   UNL     1       4.807   6.588  16.635  0.00  0.00    +0.000 A 
ATOM     23  C   UNL     1       5.067   5.593  17.604  0.00  0.00    +0.000 A 
ATOM     24  H   UNL     1       6.398   2.765  18.298  0.00  0.00    +0.000 HD
ENDBRANCH  14  15
ENDBRANCH   1  14
TORSDOF 6
ENDMDL
