MODEL 1
REMARK VINA RESULT:      -6.9      0.000      0.000
REMARK  Name = 
REMARK  5 active torsions:
REMARK  status: ('A' for Active; 'I' for Inactive)
REMARK    1  A    between atoms: C_1  and  O_2
REMARK    2  A    between atoms: O_2  and  C_3
REMARK    3  A    between atoms: C_3  and  C_5
REMARK    4  A    between atoms: N_8  and  C_9
REMARK    5  A    between atoms: N_8  and  C_10
REMARK                            x       y       z     vdW  Elec       q    Type
REMARK                         _______ _______ _______ _____ _____    ______ ____
ROOT
ATOM      1  C   UNL     1      -1.304  13.188  19.570  0.00  0.00    +0.000 C 
ATOM      2  S   UNL     1      -1.675  13.996  21.142  0.00  0.00    +0.000 S 
ATOM      3  C   UNL     1      -3.214  13.174  21.036  0.00  0.00    +0.000 C 
ATOM      4  N   UNL     1      -4.362  13.954  21.103  0.00  0.00    +0.000 N 
ATOM      5  C   UNL     1      -4.294  15.407  20.890  0.00  0.00    +0.000 C 
ATOM      6  N   UNL     1      -3.093  11.909  20.770  0.00  0.00    +0.000 NA
ATOM      7  C   UNL     1      -2.017  11.789  19.680  0.00  0.00    +0.000 C 
ATOM      8  C   UNL     1      -2.825  11.505  18.366  0.00  0.00    +0.000 A 
ATOM      9  C   UNL     1      -4.198  11.801  18.225  0.00  0.00    +0.000 A 
ATOM     10  C   UNL     1      -4.856  11.648  17.004  0.00  0.00    +0.000 A 
ATOM     11  C   UNL     1      -4.149  11.220  15.889  0.00  0.00    +0.000 A 
ATOM     12  C   UNL     1      -2.814  10.846  16.027  0.00  0.00    +0.000 A 
ATOM     13  C   UNL     1      -2.180  10.911  17.277  0.00  0.00    +0.000 A 
ATOM     14  N   UNL     1      -0.889  10.396  17.442  0.00  0.00    +0.000 N 
ATOM     15  C   UNL     1      -0.345  10.133  18.720  0.00  0.00    +0.000 A 
ATOM     16  C   UNL     1       0.878   9.456  18.787  0.00  0.00    +0.000 A 
ATOM     17  C   UNL     1       1.567   9.377  19.991  0.00  0.00    +0.000 A 
ATOM     18  C   UNL     1       1.011   9.935  21.142  0.00  0.00    +0.000 A 
ATOM     19  C   UNL     1      -0.234  10.580  21.098  0.00  0.00    +0.000 A 
ATOM     20  C   UNL     1      -0.913  10.728  19.879  0.00  0.00    +0.000 A 
ATOM     21  H   UNL     1      -0.636   9.706  16.744  0.00  0.00    +0.000 HD
ENDROOT
BRANCH   4  22
ATOM     22  C   UNL     1      -5.521  13.564  21.806  0.00  0.00    +0.000 A 
ATOM     23  C   UNL     1      -6.530  12.862  21.143  0.00  0.00    +0.000 A 
ATOM     24  C   UNL     1      -7.625  12.352  21.836  0.00  0.00    +0.000 A 
ATOM     25  C   UNL     1      -7.744  12.556  23.208  0.00  0.00    +0.000 A 
ATOM     26  C   UNL     1      -6.766  13.275  23.890  0.00  0.00    +0.000 A 
ATOM     27  C   UNL     1      -5.661  13.779  23.195  0.00  0.00    +0.000 A 
ENDBRANCH   4  22
BRANCH   1  28
ATOM     28  C   UNL     1       0.193  13.273  19.327  0.00  0.00    +0.000 C 
ATOM     29  O   UNL     1       0.799  13.010  18.299  0.00  0.00    +0.000 OA
BRANCH  28  31
ATOM     30  C   UNL     1       2.209  13.416  20.494  0.00  0.00    +0.000 C 
ATOM     31  O   UNL     1       0.801  13.571  20.522  0.00  0.00    +0.000 OA
ENDBRANCH  28  31
ENDBRANCH   1  28
TORSDOF 3
ENDMDL
MODEL 2
REMARK VINA RESULT:      -6.8      2.626      6.977
REMARK  Name = 
REMARK  5 active torsions:
REMARK  status: ('A' for Active; 'I' for Inactive)
REMARK    1  A    between atoms: C_1  and  O_2
REMARK    2  A    between atoms: O_2  and  C_3
REMARK    3  A    between atoms: C_3  and  C_5
REMARK    4  A    between atoms: N_8  and  C_9
REMARK    5  A    between atoms: N_8  and  C_10
REMARK                            x       y       z     vdW  Elec       q    Type
REMARK                         _______ _______ _______ _____ _____    ______ ____
ROOT
ATOM      1  C   UNL     1      -0.667  10.806  21.362  0.00  0.00    +0.000 C 
ATOM      2  S   UNL     1       0.706   9.900  22.107  0.00  0.00    +0.000 S 
ATOM      3  C   UNL     1       1.127   9.475  20.465  0.00  0.00    +0.000 C 
ATOM      4  N   UNL     1       1.244   8.123  20.164  0.00  0.00    +0.000 N 
ATOM      5  C   UNL     1       0.679   7.104  21.059  0.00  0.00    +0.000 C 
ATOM      6  N   UNL     1       1.153  10.501  19.669  0.00  0.00    +0.000 NA
ATOM      7  C   UNL     1      -0.078  11.354  20.011  0.00  0.00    +0.000 C 
ATOM      8  C   UNL     1      -1.085  11.071  18.843  0.00  0.00    +0.000 A 
ATOM      9  C   UNL     1      -1.000   9.933  18.011  0.00  0.00    +0.000 A 
ATOM     10  C   UNL     1      -1.982   9.649  17.061  0.00  0.00    +0.000 A 
ATOM     11  C   UNL     1      -3.085  10.483  16.940  0.00  0.00    +0.000 A 
ATOM     12  C   UNL     1      -3.144  11.653  17.693  0.00  0.00    +0.000 A 
ATOM     13  C   UNL     1      -2.109  11.984  18.581  0.00  0.00    +0.000 A 
ATOM     14  N   UNL     1      -2.100  13.227  19.224  0.00  0.00    +0.000 N 
ATOM     15  C   UNL     1      -0.941  13.739  19.849  0.00  0.00    +0.000 A 
ATOM     16  C   UNL     1      -0.971  15.061  20.311  0.00  0.00    +0.000 A 
ATOM     17  C   UNL     1       0.044  15.536  21.131  0.00  0.00    +0.000 A 
ATOM     18  C   UNL     1       1.117  14.707  21.453  0.00  0.00    +0.000 A 
ATOM     19  C   UNL     1       1.183  13.394  20.963  0.00  0.00    +0.000 A 
ATOM     20  C   UNL     1       0.134  12.874  20.188  0.00  0.00    +0.000 A 
ATOM     21  H   UNL     1      -2.649  13.934  18.747  0.00  0.00    +0.000 HD
ENDROOT
BRANCH   4  22
ATOM     22  C   UNL     1       2.247   7.604  19.319  0.00  0.00    +0.000 A 
ATOM     23  C   UNL     1       2.857   6.388  19.634  0.00  0.00    +0.000 A 
ATOM     24  C   UNL     1       3.757   5.786  18.757  0.00  0.00    +0.000 A 
ATOM     25  C   UNL     1       4.081   6.404  17.551  0.00  0.00    +0.000 A 
ATOM     26  C   UNL     1       3.507   7.630  17.223  0.00  0.00    +0.000 A 
ATOM     27  C   UNL     1       2.597   8.228  18.101  0.00  0.00    +0.000 A 
ENDBRANCH   4  22
BRANCH   1  28
ATOM     28  C   UNL     1      -1.233  11.760  22.401  0.00  0.00    +0.000 C 
ATOM     29  O   UNL     1      -0.681  12.182  23.406  0.00  0.00    +0.000 OA
BRANCH  28  31
ATOM     30  C   UNL     1      -3.141  13.022  22.860  0.00  0.00    +0.000 C 
ATOM     31  O   UNL     1      -2.555  11.980  22.100  0.00  0.00    +0.000 OA
ENDBRANCH  28  31
ENDBRANCH   1  28
TORSDOF 3
ENDMDL
MODEL 3
REMARK VINA RESULT:      -6.8      1.169      1.526
REMARK  Name = 
REMARK  5 active torsions:
REMARK  status: ('A' for Active; 'I' for Inactive)
REMARK    1  A    between atoms: C_1  and  O_2
REMARK    2  A    between atoms: O_2  and  C_3
REMARK    3  A    between atoms: C_3  and  C_5
REMARK    4  A    between atoms: N_8  and  C_9
REMARK    5  A    between atoms: N_8  and  C_10
REMARK                            x       y       z     vdW  Elec       q    Type
REMARK                         _______ _______ _______ _____ _____    ______ ____
ROOT
ATOM      1  C   UNL     1      -0.692  13.038  20.574  0.00  0.00    +0.000 C 
ATOM      2  S   UNL     1      -1.169  14.137  21.925  0.00  0.00    +0.000 S 
ATOM      3  C   UNL     1      -2.796  13.582  21.609  0.00  0.00    +0.000 C 
ATOM      4  N   UNL     1      -3.761  14.546  21.343  0.00  0.00    +0.000 N 
ATOM      5  C   UNL     1      -3.372  15.914  20.971  0.00  0.00    +0.000 C 
ATOM      6  N   UNL     1      -2.882  12.289  21.532  0.00  0.00    +0.000 NA
ATOM      7  C   UNL     1      -1.675  11.816  20.707  0.00  0.00    +0.000 C 
ATOM      8  C   UNL     1      -2.275  11.467  19.301  0.00  0.00    +0.000 A 
ATOM      9  C   UNL     1      -3.516  11.966  18.848  0.00  0.00    +0.000 A 
ATOM     10  C   UNL     1      -3.963  11.734  17.546  0.00  0.00    +0.000 A 
ATOM     11  C   UNL     1      -3.167  11.021  16.661  0.00  0.00    +0.000 A 
ATOM     12  C   UNL     1      -1.979  10.452  17.114  0.00  0.00    +0.000 A 
ATOM     13  C   UNL     1      -1.577  10.608  18.449  0.00  0.00    +0.000 A 
ATOM     14  N   UNL     1      -0.463   9.914  18.937  0.00  0.00    +0.000 N 
ATOM     15  C   UNL     1      -0.218   9.769  20.321  0.00  0.00    +0.000 A 
ATOM     16  C   UNL     1       0.816   8.914  20.721  0.00  0.00    +0.000 A 
ATOM     17  C   UNL     1       1.249   8.912  22.040  0.00  0.00    +0.000 A 
ATOM     18  C   UNL     1       0.619   9.732  22.975  0.00  0.00    +0.000 A 
ATOM     19  C   UNL     1      -0.446  10.564  22.599  0.00  0.00    +0.000 A 
ATOM     20  C   UNL     1      -0.855  10.628  21.258  0.00  0.00    +0.000 A 
ATOM     21  H   UNL     1      -0.232   9.088  18.396  0.00  0.00    +0.000 HD
ENDROOT
BRANCH   4  22
ATOM     22  C   UNL     1      -5.081  14.476  21.836  0.00  0.00    +0.000 A 
ATOM     23  C   UNL     1      -6.102  13.992  21.016  0.00  0.00    +0.000 A 
ATOM     24  C   UNL     1      -7.388  13.789  21.513  0.00  0.00    +0.000 A 
ATOM     25  C   UNL     1      -7.682  14.090  22.841  0.00  0.00    +0.000 A 
ATOM     26  C   UNL     1      -6.689  14.598  23.674  0.00  0.00    +0.000 A 
ATOM     27  C   UNL     1      -5.396  14.792  23.176  0.00  0.00    +0.000 A 
ENDBRANCH   4  22
BRANCH   1  28
ATOM     28  C   UNL     1       0.812  12.828  20.634  0.00  0.00    +0.000 C 
ATOM     29  O   UNL     1       1.552  13.004  21.589  0.00  0.00    +0.000 OA
BRANCH  28  31
ATOM     30  C   UNL     1       0.815  13.453  18.386  0.00  0.00    +0.000 C 
ATOM     31  O   UNL     1       1.250  12.529  19.367  0.00  0.00    +0.000 OA
ENDBRANCH  28  31
ENDBRANCH   1  28
TORSDOF 3
ENDMDL
MODEL 4
REMARK VINA RESULT:      -6.7     10.100     12.611
REMARK  Name = 
REMARK  5 active torsions:
REMARK  status: ('A' for Active; 'I' for Inactive)
REMARK    1  A    between atoms: C_1  and  O_2
REMARK    2  A    between atoms: O_2  and  C_3
REMARK    3  A    between atoms: C_3  and  C_5
REMARK    4  A    between atoms: N_8  and  C_9
REMARK    5  A    between atoms: N_8  and  C_10
REMARK                            x       y       z     vdW  Elec       q    Type
REMARK                         _______ _______ _______ _____ _____    ______ ____
ROOT
ATOM      1  C   UNL     1       7.981  15.376  19.709  0.00  0.00    +0.000 C 
ATOM      2  S   UNL     1       7.400  16.413  21.069  0.00  0.00    +0.000 S 
ATOM      3  C   UNL     1       8.258  15.291  22.099  0.00  0.00    +0.000 C 
ATOM      4  N   UNL     1       7.537  14.675  23.115  0.00  0.00    +0.000 N 
ATOM      5  C   UNL     1       6.067  14.667  23.092  0.00  0.00    +0.000 C 
ATOM      6  N   UNL     1       9.472  15.065  21.698  0.00  0.00    +0.000 NA
ATOM      7  C   UNL     1       9.407  14.899  20.172  0.00  0.00    +0.000 C 
ATOM      8  C   UNL     1       9.546  13.354  19.942  0.00  0.00    +0.000 A 
ATOM      9  C   UNL     1       9.286  12.398  20.947  0.00  0.00    +0.000 A 
ATOM     10  C   UNL     1       9.302  11.029  20.675  0.00  0.00    +0.000 A 
ATOM     11  C   UNL     1       9.553  10.587  19.383  0.00  0.00    +0.000 A 
ATOM     12  C   UNL     1       9.892  11.510  18.397  0.00  0.00    +0.000 A 
ATOM     13  C   UNL     1       9.967  12.879  18.697  0.00  0.00    +0.000 A 
ATOM     14  N   UNL     1      10.451  13.785  17.745  0.00  0.00    +0.000 N 
ATOM     15  C   UNL     1      10.859  15.092  18.095  0.00  0.00    +0.000 A 
ATOM     16  C   UNL     1      11.493  15.867  17.117  0.00  0.00    +0.000 A 
ATOM     17  C   UNL     1      11.703  17.223  17.329  0.00  0.00    +0.000 A 
ATOM     18  C   UNL     1      11.323  17.799  18.540  0.00  0.00    +0.000 A 
ATOM     19  C   UNL     1      10.725  17.027  19.547  0.00  0.00    +0.000 A 
ATOM     20  C   UNL     1      10.443  15.670  19.325  0.00  0.00    +0.000 A 
ATOM     21  H   UNL     1      11.034  13.354  17.036  0.00  0.00    +0.000 HD
ENDROOT
BRANCH   4  22
ATOM     22  C   UNL     1       8.058  14.450  24.406  0.00  0.00    +0.000 A 
ATOM     23  C   UNL     1       8.656  15.500  25.105  0.00  0.00    +0.000 A 
ATOM     24  C   UNL     1       9.063  15.344  26.428  0.00  0.00    +0.000 A 
ATOM     25  C   UNL     1       8.900  14.119  27.072  0.00  0.00    +0.000 A 
ATOM     26  C   UNL     1       8.330  13.047  26.390  0.00  0.00    +0.000 A 
ATOM     27  C   UNL     1       7.913  13.209  25.065  0.00  0.00    +0.000 A 
ENDBRANCH   4  22
BRANCH   1  28
ATOM     28  C   UNL     1       7.808  16.145  18.410  0.00  0.00    +0.000 C 
ATOM     29  O   UNL     1       7.745  17.356  18.264  0.00  0.00    +0.000 OA
BRANCH  28  31
ATOM     30  C   UNL     1       6.618  14.260  17.724  0.00  0.00    +0.000 C 
ATOM     31  O   UNL     1       7.592  15.237  17.404  0.00  0.00    +0.000 OA
ENDBRANCH  28  31
ENDBRANCH   1  28
TORSDOF 3
ENDMDL
MODEL 5
REMARK VINA RESULT:      -6.6      9.931     11.898
REMARK  Name = 
REMARK  5 active torsions:
REMARK  status: ('A' for Active; 'I' for Inactive)
REMARK    1  A    between atoms: C_1  and  O_2
REMARK    2  A    between atoms: O_2  and  C_3
REMARK    3  A    between atoms: C_3  and  C_5
REMARK    4  A    between atoms: N_8  and  C_9
REMARK    5  A    between atoms: N_8  and  C_10
REMARK                            x       y       z     vdW  Elec       q    Type
REMARK                         _______ _______ _______ _____ _____    ______ ____
ROOT
ATOM      1  C   UNL     1       9.991  15.561  20.331  0.00  0.00    +0.000 C 
ATOM      2  S   UNL     1      10.649  15.740  22.003  0.00  0.00    +0.000 S 
ATOM      3  C   UNL     1       9.119  15.071  22.520  0.00  0.00    +0.000 C 
ATOM      4  N   UNL     1       8.372  15.810  23.429  0.00  0.00    +0.000 N 
ATOM      5  C   UNL     1       8.657  17.235  23.651  0.00  0.00    +0.000 C 
ATOM      6  N   UNL     1       8.797  13.992  21.875  0.00  0.00    +0.000 NA
ATOM      7  C   UNL     1       9.127  14.248  20.396  0.00  0.00    +0.000 C 
ATOM      8  C   UNL     1       7.733  14.500  19.724  0.00  0.00    +0.000 A 
ATOM      9  C   UNL     1       6.582  14.875  20.451  0.00  0.00    +0.000 A 
ATOM     10  C   UNL     1       5.389  15.210  19.808  0.00  0.00    +0.000 A 
ATOM     11  C   UNL     1       5.329  15.202  18.422  0.00  0.00    +0.000 A 
ATOM     12  C   UNL     1       6.427  14.757  17.691  0.00  0.00    +0.000 A 
ATOM     13  C   UNL     1       7.594  14.331  18.343  0.00  0.00    +0.000 A 
ATOM     14  N   UNL     1       8.638  13.747  17.616  0.00  0.00    +0.000 N 
ATOM     15  C   UNL     1       9.667  13.010  18.243  0.00  0.00    +0.000 A 
ATOM     16  C   UNL     1      10.568  12.313  17.429  0.00  0.00    +0.000 A 
ATOM     17  C   UNL     1      11.724  11.769  17.974  0.00  0.00    +0.000 A 
ATOM     18  C   UNL     1      11.959  11.878  19.344  0.00  0.00    +0.000 A 
ATOM     19  C   UNL     1      11.045  12.537  20.179  0.00  0.00    +0.000 A 
ATOM     20  C   UNL     1       9.905  13.150  19.638  0.00  0.00    +0.000 A 
ATOM     21  H   UNL     1       8.343  13.356  16.728  0.00  0.00    +0.000 HD
ENDROOT
BRANCH   4  22
ATOM     22  C   UNL     1       7.661  15.228  24.500  0.00  0.00    +0.000 A 
ATOM     23  C   UNL     1       6.294  14.975  24.368  0.00  0.00    +0.000 A 
ATOM     24  C   UNL     1       5.592  14.286  25.354  0.00  0.00    +0.000 A 
ATOM     25  C   UNL     1       6.244  13.856  26.507  0.00  0.00    +0.000 A 
ATOM     26  C   UNL     1       7.601  14.117  26.677  0.00  0.00    +0.000 A 
ATOM     27  C   UNL     1       8.306  14.801  25.681  0.00  0.00    +0.000 A 
ENDBRANCH   4  22
BRANCH   1  28
ATOM     28  C   UNL     1      11.143  15.678  19.346  0.00  0.00    +0.000 C 
ATOM     29  O   UNL     1      12.333  15.515  19.568  0.00  0.00    +0.000 OA
BRANCH  28  31
ATOM     30  C   UNL     1      11.543  16.018  17.073  0.00  0.00    +0.000 C 
ATOM     31  O   UNL     1      10.639  16.143  18.156  0.00  0.00    +0.000 OA
ENDBRANCH  28  31
ENDBRANCH   1  28
TORSDOF 3
ENDMDL
MODEL 6
REMARK VINA RESULT:      -6.4      2.748      6.173
REMARK  Name = 
REMARK  5 active torsions:
REMARK  status: ('A' for Active; 'I' for Inactive)
REMARK    1  A    between atoms: C_1  and  O_2
REMARK    2  A    between atoms: O_2  and  C_3
REMARK    3  A    between atoms: C_3  and  C_5
REMARK    4  A    between atoms: N_8  and  C_9
REMARK    5  A    between atoms: N_8  and  C_10
REMARK                            x       y       z     vdW  Elec       q    Type
REMARK                         _______ _______ _______ _____ _____    ______ ____
ROOT
ATOM      1  C   UNL     1       1.450  13.338  20.418  0.00  0.00    +0.000 C 
ATOM      2  S   UNL     1       1.621  12.428  18.867  0.00  0.00    +0.000 S 
ATOM      3  C   UNL     1      -0.127  12.383  18.870  0.00  0.00    +0.000 C 
ATOM      4  N   UNL     1      -0.735  11.136  18.787  0.00  0.00    +0.000 N 
ATOM      5  C   UNL     1       0.027   9.910  19.065  0.00  0.00    +0.000 C 
ATOM      6  N   UNL     1      -0.661  13.547  19.086  0.00  0.00    +0.000 NA
ATOM      7  C   UNL     1       0.149  14.200  20.217  0.00  0.00    +0.000 C 
ATOM      8  C   UNL     1      -0.771  14.068  21.480  0.00  0.00    +0.000 A 
ATOM      9  C   UNL     1      -1.825  13.135  21.573  0.00  0.00    +0.000 A 
ATOM     10  C   UNL     1      -2.545  12.962  22.756  0.00  0.00    +0.000 A 
ATOM     11  C   UNL     1      -2.208  13.701  23.881  0.00  0.00    +0.000 A 
ATOM     12  C   UNL     1      -1.226  14.684  23.786  0.00  0.00    +0.000 A 
ATOM     13  C   UNL     1      -0.569  14.920  22.570  0.00  0.00    +0.000 A 
ATOM     14  N   UNL     1       0.309  16.004  22.439  0.00  0.00    +0.000 N 
ATOM     15  C   UNL     1       0.728  16.481  21.177  0.00  0.00    +0.000 A 
ATOM     16  C   UNL     1       1.460  17.673  21.133  0.00  0.00    +0.000 A 
ATOM     17  C   UNL     1       2.090  18.063  19.959  0.00  0.00    +0.000 A 
ATOM     18  C   UNL     1       1.951  17.285  18.810  0.00  0.00    +0.000 A 
ATOM     19  C   UNL     1       1.186  16.110  18.827  0.00  0.00    +0.000 A 
ATOM     20  C   UNL     1       0.596  15.665  20.020  0.00  0.00    +0.000 A 
ATOM     21  H   UNL     1       0.146  16.740  23.117  0.00  0.00    +0.000 HD
ENDROOT
BRANCH   4  22
ATOM     22  C   UNL     1      -1.892  10.890  18.017  0.00  0.00    +0.000 A 
ATOM     23  C   UNL     1      -3.076  11.568  18.312  0.00  0.00    +0.000 A 
ATOM     24  C   UNL     1      -4.198  11.445  17.494  0.00  0.00    +0.000 A 
ATOM     25  C   UNL     1      -4.160  10.619  16.373  0.00  0.00    +0.000 A 
ATOM     26  C   UNL     1      -3.000   9.912  16.070  0.00  0.00    +0.000 A 
ATOM     27  C   UNL     1      -1.872  10.044  16.887  0.00  0.00    +0.000 A 
ENDBRANCH   4  22
BRANCH   1  28
ATOM     28  C   UNL     1       2.778  14.009  20.730  0.00  0.00    +0.000 C 
ATOM     29  O   UNL     1       3.694  14.244  19.958  0.00  0.00    +0.000 OA
BRANCH  28  31
ATOM     30  C   UNL     1       3.890  15.072  22.483  0.00  0.00    +0.000 C 
ATOM     31  O   UNL     1       2.850  14.196  22.089  0.00  0.00    +0.000 OA
ENDBRANCH  28  31
ENDBRANCH   1  28
TORSDOF 3
ENDMDL
MODEL 7
REMARK VINA RESULT:      -6.3      2.539      6.770
REMARK  Name = 
REMARK  5 active torsions:
REMARK  status: ('A' for Active; 'I' for Inactive)
REMARK    1  A    between atoms: C_1  and  O_2
REMARK    2  A    between atoms: O_2  and  C_3
REMARK    3  A    between atoms: C_3  and  C_5
REMARK    4  A    between atoms: N_8  and  C_9
REMARK    5  A    between atoms: N_8  and  C_10
REMARK                            x       y       z     vdW  Elec       q    Type
REMARK                         _______ _______ _______ _____ _____    ______ ____
ROOT
ATOM      1  C   UNL     1      -3.323  12.616  22.363  0.00  0.00    +0.000 C 
ATOM      2  S   UNL     1      -1.672  12.807  23.069  0.00  0.00    +0.000 S 
ATOM      3  C   UNL     1      -1.123  12.839  21.410  0.00  0.00    +0.000 C 
ATOM      4  N   UNL     1      -0.154  11.915  21.038  0.00  0.00    +0.000 N 
ATOM      5  C   UNL     1       0.118  10.736  21.874  0.00  0.00    +0.000 C 
ATOM      6  N   UNL     1      -1.801  13.663  20.670  0.00  0.00    +0.000 NA
ATOM      7  C   UNL     1      -3.279  13.478  21.047  0.00  0.00    +0.000 C 
ATOM      8  C   UNL     1      -3.884  12.654  19.857  0.00  0.00    +0.000 A 
ATOM      9  C   UNL     1      -3.096  11.893  18.967  0.00  0.00    +0.000 A 
ATOM     10  C   UNL     1      -3.676  11.075  17.995  0.00  0.00    +0.000 A 
ATOM     11  C   UNL     1      -5.058  10.981  17.910  0.00  0.00    +0.000 A 
ATOM     12  C   UNL     1      -5.850  11.786  18.724  0.00  0.00    +0.000 A 
ATOM     13  C   UNL     1      -5.264  12.677  19.636  0.00  0.00    +0.000 A 
ATOM     14  N   UNL     1      -6.056  13.588  20.344  0.00  0.00    +0.000 N 
ATOM     15  C   UNL     1      -5.503  14.708  21.005  0.00  0.00    +0.000 A 
ATOM     16  C   UNL     1      -6.382  15.659  21.536  0.00  0.00    +0.000 A 
ATOM     17  C   UNL     1      -5.908  16.648  22.388  0.00  0.00    +0.000 A 
ATOM     18  C   UNL     1      -4.545  16.717  22.674  0.00  0.00    +0.000 A 
ATOM     19  C   UNL     1      -3.646  15.797  22.116  0.00  0.00    +0.000 A 
ATOM     20  C   UNL     1      -4.115  14.751  21.306  0.00  0.00    +0.000 A 
ATOM     21  H   UNL     1      -6.948  13.778  19.901  0.00  0.00    +0.000 HD
ENDROOT
BRANCH   4  22
ATOM     22  C   UNL     1       0.918  12.223  20.175  0.00  0.00    +0.000 A 
ATOM     23  C   UNL     1       1.138  11.444  19.038  0.00  0.00    +0.000 A 
ATOM     24  C   UNL     1       2.105  11.799  18.099  0.00  0.00    +0.000 A 
ATOM     25  C   UNL     1       2.890  12.933  18.296  0.00  0.00    +0.000 A 
ATOM     26  C   UNL     1       2.709  13.713  19.434  0.00  0.00    +0.000 A 
ATOM     27  C   UNL     1       1.731  13.362  20.370  0.00  0.00    +0.000 A 
ENDBRANCH   4  22
BRANCH   1  28
ATOM     28  C   UNL     1      -4.346  12.914  23.446  0.00  0.00    +0.000 C 
ATOM     29  O   UNL     1      -4.173  13.529  24.487  0.00  0.00    +0.000 OA
BRANCH  28  31
ATOM     30  C   UNL     1      -6.624  12.670  23.888  0.00  0.00    +0.000 C 
ATOM     31  O   UNL     1      -5.504  12.247  23.130  0.00  0.00    +0.000 OA
ENDBRANCH  28  31
ENDBRANCH   1  28
TORSDOF 3
ENDMDL
MODEL 8
REMARK VINA RESULT:      -6.3      7.658     12.238
REMARK  Name = 
REMARK  5 active torsions:
REMARK  status: ('A' for Active; 'I' for Inactive)
REMARK    1  A    between atoms: C_1  and  O_2
REMARK    2  A    between atoms: O_2  and  C_3
REMARK    3  A    between atoms: C_3  and  C_5
REMARK    4  A    between atoms: N_8  and  C_9
REMARK    5  A    between atoms: N_8  and  C_10
REMARK                            x       y       z     vdW  Elec       q    Type
REMARK                         _______ _______ _______ _____ _____    ______ ____
ROOT
ATOM      1  C   UNL     1       6.923  16.574  20.862  0.00  0.00    +0.000 C 
ATOM      2  S   UNL     1       8.047  16.918  19.490  0.00  0.00    +0.000 S 
ATOM      3  C   UNL     1       8.554  15.256  19.680  0.00  0.00    +0.000 C 
ATOM      4  N   UNL     1       9.908  15.020  19.885  0.00  0.00    +0.000 N 
ATOM      5  C   UNL     1      10.805  16.108  20.299  0.00  0.00    +0.000 C 
ATOM      6  N   UNL     1       7.556  14.427  19.738  0.00  0.00    +0.000 NA
ATOM      7  C   UNL     1       6.498  15.075  20.644  0.00  0.00    +0.000 C 
ATOM      8  C   UNL     1       6.613  14.293  21.998  0.00  0.00    +0.000 A 
ATOM      9  C   UNL     1       7.756  13.550  22.365  0.00  0.00    +0.000 A 
ATOM     10  C   UNL     1       7.873  12.966  23.628  0.00  0.00    +0.000 A 
ATOM     11  C   UNL     1       6.861  13.137  24.561  0.00  0.00    +0.000 A 
ATOM     12  C   UNL     1       5.691  13.797  24.191  0.00  0.00    +0.000 A 
ATOM     13  C   UNL     1       5.538  14.300  22.891  0.00  0.00    +0.000 A 
ATOM     14  N   UNL     1       4.309  14.830  22.478  0.00  0.00    +0.000 N 
ATOM     15  C   UNL     1       4.001  15.035  21.115  0.00  0.00    +0.000 A 
ATOM     16  C   UNL     1       2.690  15.399  20.783  0.00  0.00    +0.000 A 
ATOM     17  C   UNL     1       2.391  15.836  19.499  0.00  0.00    +0.000 A 
ATOM     18  C   UNL     1       3.392  15.865  18.529  0.00  0.00    +0.000 A 
ATOM     19  C   UNL     1       4.700  15.463  18.835  0.00  0.00    +0.000 A 
ATOM     20  C   UNL     1       5.037  15.082  20.143  0.00  0.00    +0.000 A 
ATOM     21  H   UNL     1       3.522  14.500  23.026  0.00  0.00    +0.000 HD
ENDROOT
BRANCH   4  22
ATOM     22  C   UNL     1      10.603  13.943  19.295  0.00  0.00    +0.000 A 
ATOM     23  C   UNL     1      11.235  12.999  20.107  0.00  0.00    +0.000 A 
ATOM     24  C   UNL     1      11.817  11.856  19.562  0.00  0.00    +0.000 A 
ATOM     25  C   UNL     1      11.798  11.649  18.185  0.00  0.00    +0.000 A 
ATOM     26  C   UNL     1      11.197  12.587  17.350  0.00  0.00    +0.000 A 
ATOM     27  C   UNL     1      10.604  13.729  17.899  0.00  0.00    +0.000 A 
ENDBRANCH   4  22
BRANCH   1  28
ATOM     28  C   UNL     1       5.874  17.673  20.910  0.00  0.00    +0.000 C 
ATOM     29  O   UNL     1       5.542  18.428  20.009  0.00  0.00    +0.000 OA
BRANCH  28  31
ATOM     30  C   UNL     1       6.484  17.902  23.150  0.00  0.00    +0.000 C 
ATOM     31  O   UNL     1       5.435  17.784  22.207  0.00  0.00    +0.000 OA
ENDBRANCH  28  31
ENDBRANCH   1  28
TORSDOF 3
ENDMDL
MODEL 9
REMARK VINA RESULT:      -6.1     10.194     13.079
REMARK  Name = 
REMARK  5 active torsions:
REMARK  status: ('A' for Active; 'I' for Inactive)
REMARK    1  A    between atoms: C_1  and  O_2
REMARK    2  A    between atoms: O_2  and  C_3
REMARK    3  A    between atoms: C_3  and  C_5
REMARK    4  A    between atoms: N_8  and  C_9
REMARK    5  A    between atoms: N_8  and  C_10
REMARK                            x       y       z     vdW  Elec       q    Type
REMARK                         _______ _______ _______ _____ _____    ______ ____
ROOT
ATOM      1  C   UNL     1       6.749  15.024  22.705  0.00  0.00    +0.000 C 
ATOM      2  S   UNL     1       6.134  14.463  21.103  0.00  0.00    +0.000 S 
ATOM      3  C   UNL     1       7.820  14.287  20.680  0.00  0.00    +0.000 C 
ATOM      4  N   UNL     1       8.269  14.958  19.548  0.00  0.00    +0.000 N 
ATOM      5  C   UNL     1       7.479  16.049  18.960  0.00  0.00    +0.000 C 
ATOM      6  N   UNL     1       8.500  13.636  21.574  0.00  0.00    +0.000 NA
ATOM      7  C   UNL     1       8.044  14.163  22.943  0.00  0.00    +0.000 C 
ATOM      8  C   UNL     1       9.216  15.092  23.413  0.00  0.00    +0.000 A 
ATOM      9  C   UNL     1      10.168  15.641  22.527  0.00  0.00    +0.000 A 
ATOM     10  C   UNL     1      11.125  16.560  22.961  0.00  0.00    +0.000 A 
ATOM     11  C   UNL     1      11.133  16.972  24.286  0.00  0.00    +0.000 A 
ATOM     12  C   UNL     1      10.255  16.381  25.192  0.00  0.00    +0.000 A 
ATOM     13  C   UNL     1       9.357  15.388  24.772  0.00  0.00    +0.000 A 
ATOM     14  N   UNL     1       8.582  14.693  25.709  0.00  0.00    +0.000 N 
ATOM     15  C   UNL     1       7.928  13.482  25.389  0.00  0.00    +0.000 A 
ATOM     16  C   UNL     1       7.324  12.766  26.430  0.00  0.00    +0.000 A 
ATOM     17  C   UNL     1       6.477  11.703  26.145  0.00  0.00    +0.000 A 
ATOM     18  C   UNL     1       6.268  11.322  24.820  0.00  0.00    +0.000 A 
ATOM     19  C   UNL     1       6.900  12.003  23.769  0.00  0.00    +0.000 A 
ATOM     20  C   UNL     1       7.706  13.121  24.033  0.00  0.00    +0.000 A 
ATOM     21  H   UNL     1       8.969  14.710  26.646  0.00  0.00    +0.000 HD
ENDROOT
BRANCH   4  22
ATOM     22  C   UNL     1       9.185  14.400  18.631  0.00  0.00    +0.000 A 
ATOM     23  C   UNL     1      10.225  15.183  18.128  0.00  0.00    +0.000 A 
ATOM     24  C   UNL     1      11.219  14.629  17.324  0.00  0.00    +0.000 A 
ATOM     25  C   UNL     1      11.176  13.277  16.988  0.00  0.00    +0.000 A 
ATOM     26  C   UNL     1      10.135  12.479  17.456  0.00  0.00    +0.000 A 
ATOM     27  C   UNL     1       9.144  13.035  18.271  0.00  0.00    +0.000 A 
ENDBRANCH   4  22
BRANCH   1  28
ATOM     28  C   UNL     1       5.602  14.983  23.701  0.00  0.00    +0.000 C 
ATOM     29  O   UNL     1       4.556  14.359  23.610  0.00  0.00    +0.000 OA
BRANCH  28  31
ATOM     30  C   UNL     1       6.118  17.201  24.211  0.00  0.00    +0.000 C 
ATOM     31  O   UNL     1       5.869  15.893  24.695  0.00  0.00    +0.000 OA
ENDBRANCH  28  31
ENDBRANCH   1  28
TORSDOF 3
ENDMDL
