MODEL 1
REMARK VINA RESULT:      -7.6      0.000      0.000
REMARK  Name = 
REMARK  4 active torsions:
REMARK  status: ('A' for Active; 'I' for Inactive)
REMARK    1  A    between atoms: C_1  and  C_2
REMARK    2  A    between atoms: N_5  and  C_6
REMARK    3  A    between atoms: C_13  and  C_14
REMARK    4  A    between atoms: C_18  and  C_19
REMARK                            x       y       z     vdW  Elec       q    Type
REMARK                         _______ _______ _______ _____ _____    ______ ____
ROOT
ATOM      1  C   UNL     1       4.544   3.872  17.024  0.00  0.00    +0.000 A 
ATOM      2  N   UNL     1       5.382   3.060  16.308  0.00  0.00    +0.000 NA
ATOM      3  C   UNL     1       6.152   3.560  15.333  0.00  0.00    +0.000 A 
ATOM      4  N   UNL     1       6.243   4.832  14.946  0.00  0.00    +0.000 NA
ATOM      5  C   UNL     1       5.455   5.623  15.684  0.00  0.00    +0.000 A 
ATOM      6  N   UNL     1       5.392   6.970  15.482  0.00  0.00    +0.000 N 
ATOM      7  C   UNL     1       4.546   7.533  16.391  0.00  0.00    +0.000 A 
ATOM      8  C   UNL     1       4.042   6.528  17.204  0.00  0.00    +0.000 A 
ATOM      9  C   UNL     1       4.600   5.269  16.730  0.00  0.00    +0.000 A 
ATOM     10  H   UNL     1       5.923   7.452  14.772  0.00  0.00    +0.000 HD
ENDROOT
BRANCH   1  15
ATOM     11  C   UNL     1       1.067   2.802  21.269  0.00  0.00    +0.000 C 
ATOM     12  C   UNL     1       1.902   2.509  20.029  0.00  0.00    +0.000 C 
ATOM     13  C   UNL     1       3.378   2.806  20.313  0.00  0.00    +0.000 C 
ATOM     14  C   UNL     1       4.218   2.504  19.083  0.00  0.00    +0.000 C 
ATOM     15  N   UNL     1       3.726   3.217  17.925  0.00  0.00    +0.000 N 
ATOM     16  C   UNL     1       2.309   3.060  17.587  0.00  0.00    +0.000 C 
ATOM     17  C   UNL     1       1.436   3.327  18.815  0.00  0.00    +0.000 C 
ENDBRANCH   1  15
BRANCH   8  18
ATOM     18  C   UNL     1       3.146   6.867  18.307  0.00  0.00    +0.000 A 
ATOM     19  C   UNL     1       3.139   6.094  19.482  0.00  0.00    +0.000 A 
ATOM     20  C   UNL     1       2.352   6.467  20.577  0.00  0.00    +0.000 A 
ATOM     21  C   UNL     1       1.595   7.639  20.524  0.00  0.00    +0.000 A 
ATOM     22  C   UNL     1       1.567   8.406  19.354  0.00  0.00    +0.000 A 
ATOM     23  C   UNL     1       2.298   7.979  18.232  0.00  0.00    +0.000 A 
BRANCH  22  24
ATOM     24  C   UNL     1       0.903   9.686  19.342  0.00  0.00    +0.000 C 
ATOM     25  N   UNL     1       0.315  10.681  19.318  0.00  0.00    +0.000 NA
ENDBRANCH  22  24
ENDBRANCH   8  18
TORSDOF 3
ENDMDL
MODEL 2
REMARK VINA RESULT:      -7.5      2.201      5.898
REMARK  Name = 
REMARK  4 active torsions:
REMARK  status: ('A' for Active; 'I' for Inactive)
REMARK    1  A    between atoms: C_1  and  C_2
REMARK    2  A    between atoms: N_5  and  C_6
REMARK    3  A    between atoms: C_13  and  C_14
REMARK    4  A    between atoms: C_18  and  C_19
REMARK                            x       y       z     vdW  Elec       q    Type
REMARK                         _______ _______ _______ _____ _____    ______ ____
ROOT
ATOM      1  C   UNL     1       2.174   4.734  19.501  0.00  0.00    +0.000 A 
ATOM      2  N   UNL     1       1.203   4.476  20.431  0.00  0.00    +0.000 NA
ATOM      3  C   UNL     1       0.819   3.219  20.689  0.00  0.00    +0.000 A 
ATOM      4  N   UNL     1       1.298   2.100  20.147  0.00  0.00    +0.000 NA
ATOM      5  C   UNL     1       2.279   2.361  19.275  0.00  0.00    +0.000 A 
ATOM      6  N   UNL     1       2.933   1.370  18.605  0.00  0.00    +0.000 N 
ATOM      7  C   UNL     1       3.904   1.911  17.815  0.00  0.00    +0.000 A 
ATOM      8  C   UNL     1       3.880   3.290  17.971  0.00  0.00    +0.000 A 
ATOM      9  C   UNL     1       2.798   3.601  18.895  0.00  0.00    +0.000 A 
ATOM     10  H   UNL     1       2.723   0.390  18.718  0.00  0.00    +0.000 HD
ENDROOT
BRANCH   1  15
ATOM     11  C   UNL     1       1.421  10.112  18.171  0.00  0.00    +0.000 C 
ATOM     12  C   UNL     1       2.171   8.874  18.644  0.00  0.00    +0.000 C 
ATOM     13  C   UNL     1       2.172   7.811  17.540  0.00  0.00    +0.000 C 
ATOM     14  C   UNL     1       2.930   6.578  18.002  0.00  0.00    +0.000 C 
ATOM     15  N   UNL     1       2.400   6.073  19.250  0.00  0.00    +0.000 N 
ATOM     16  C   UNL     1       2.293   7.016  20.367  0.00  0.00    +0.000 C 
ATOM     17  C   UNL     1       1.561   8.286  19.925  0.00  0.00    +0.000 C 
ENDBRANCH   1  15
BRANCH   8  18
ATOM     18  C   UNL     1       4.862   4.116  17.272  0.00  0.00    +0.000 A 
ATOM     19  C   UNL     1       4.799   4.268  15.876  0.00  0.00    +0.000 A 
ATOM     20  C   UNL     1       5.678   5.131  15.212  0.00  0.00    +0.000 A 
ATOM     21  C   UNL     1       6.602   5.882  15.941  0.00  0.00    +0.000 A 
ATOM     22  C   UNL     1       6.699   5.723  17.328  0.00  0.00    +0.000 A 
ATOM     23  C   UNL     1       5.866   4.793  17.976  0.00  0.00    +0.000 A 
BRANCH  22  24
ATOM     24  C   UNL     1       7.549   6.595  18.099  0.00  0.00    +0.000 C 
ATOM     25  N   UNL     1       8.281   7.273  18.683  0.00  0.00    +0.000 NA
ENDBRANCH  22  24
ENDBRANCH   8  18
TORSDOF 3
ENDMDL
MODEL 3
REMARK VINA RESULT:      -7.4      1.979      6.178
REMARK  Name = 
REMARK  4 active torsions:
REMARK  status: ('A' for Active; 'I' for Inactive)
REMARK    1  A    between atoms: C_1  and  C_2
REMARK    2  A    between atoms: N_5  and  C_6
REMARK    3  A    between atoms: C_13  and  C_14
REMARK    4  A    between atoms: C_18  and  C_19
REMARK                            x       y       z     vdW  Elec       q    Type
REMARK                         _______ _______ _______ _____ _____    ______ ____
ROOT
ATOM      1  C   UNL     1       2.114   4.731  19.461  0.00  0.00    +0.000 A 
ATOM      2  N   UNL     1       1.078   4.473  20.318  0.00  0.00    +0.000 NA
ATOM      3  C   UNL     1       0.673   3.217  20.545  0.00  0.00    +0.000 A 
ATOM      4  N   UNL     1       1.186   2.098  20.036  0.00  0.00    +0.000 NA
ATOM      5  C   UNL     1       2.227   2.358  19.237  0.00  0.00    +0.000 A 
ATOM      6  N   UNL     1       2.925   1.367  18.613  0.00  0.00    +0.000 N 
ATOM      7  C   UNL     1       3.951   1.906  17.895  0.00  0.00    +0.000 A 
ATOM      8  C   UNL     1       3.921   3.284  18.053  0.00  0.00    +0.000 A 
ATOM      9  C   UNL     1       2.776   3.597  18.898  0.00  0.00    +0.000 A 
ATOM     10  H   UNL     1       2.704   0.387  18.708  0.00  0.00    +0.000 HD
ENDROOT
BRANCH   1  15
ATOM     11  C   UNL     1       1.445  10.143  18.231  0.00  0.00    +0.000 C 
ATOM     12  C   UNL     1       2.178   8.884  18.674  0.00  0.00    +0.000 C 
ATOM     13  C   UNL     1       2.146   7.841  17.553  0.00  0.00    +0.000 C 
ATOM     14  C   UNL     1       2.887   6.586  17.985  0.00  0.00    +0.000 C 
ATOM     15  N   UNL     1       2.362   6.070  19.230  0.00  0.00    +0.000 N 
ATOM     16  C   UNL     1       2.285   6.995  20.364  0.00  0.00    +0.000 C 
ATOM     17  C   UNL     1       1.571   8.285  19.952  0.00  0.00    +0.000 C 
ENDBRANCH   1  15
BRANCH   8  18
ATOM     18  C   UNL     1       4.952   4.109  17.428  0.00  0.00    +0.000 A 
ATOM     19  C   UNL     1       5.797   4.909  18.218  0.00  0.00    +0.000 A 
ATOM     20  C   UNL     1       6.846   5.629  17.636  0.00  0.00    +0.000 A 
ATOM     21  C   UNL     1       7.087   5.524  16.264  0.00  0.00    +0.000 A 
ATOM     22  C   UNL     1       6.240   4.756  15.458  0.00  0.00    +0.000 A 
ATOM     23  C   UNL     1       5.140   4.101  16.041  0.00  0.00    +0.000 A 
BRANCH  22  24
ATOM     24  C   UNL     1       6.566   4.531  14.072  0.00  0.00    +0.000 C 
ATOM     25  N   UNL     1       6.848   4.291  12.977  0.00  0.00    +0.000 NA
ENDBRANCH  22  24
ENDBRANCH   8  18
TORSDOF 3
ENDMDL
MODEL 4
REMARK VINA RESULT:      -7.2      9.234     11.803
REMARK  Name = 
REMARK  4 active torsions:
REMARK  status: ('A' for Active; 'I' for Inactive)
REMARK    1  A    between atoms: C_1  and  C_2
REMARK    2  A    between atoms: N_5  and  C_6
REMARK    3  A    between atoms: C_13  and  C_14
REMARK    4  A    between atoms: C_18  and  C_19
REMARK                            x       y       z     vdW  Elec       q    Type
REMARK                         _______ _______ _______ _____ _____    ______ ____
ROOT
ATOM      1  C   UNL     1       9.279  16.279  19.284  0.00  0.00    +0.000 A 
ATOM      2  N   UNL     1       9.044  17.597  18.997  0.00  0.00    +0.000 NA
ATOM      3  C   UNL     1       9.559  18.162  17.898  0.00  0.00    +0.000 A 
ATOM      4  N   UNL     1      10.304  17.576  16.962  0.00  0.00    +0.000 NA
ATOM      5  C   UNL     1      10.489  16.277  17.228  0.00  0.00    +0.000 A 
ATOM      6  N   UNL     1      11.207  15.466  16.401  0.00  0.00    +0.000 N 
ATOM      7  C   UNL     1      11.205  14.192  16.888  0.00  0.00    +0.000 A 
ATOM      8  C   UNL     1      10.467  14.173  18.063  0.00  0.00    +0.000 A 
ATOM      9  C   UNL     1      10.024  15.537  18.317  0.00  0.00    +0.000 A 
ATOM     10  H   UNL     1      11.645  15.785  15.549  0.00  0.00    +0.000 HD
ENDROOT
BRANCH   1  15
ATOM     11  C   UNL     1       8.312  13.235  23.872  0.00  0.00    +0.000 C 
ATOM     12  C   UNL     1       8.216  14.431  22.934  0.00  0.00    +0.000 C 
ATOM     13  C   UNL     1       7.617  13.994  21.592  0.00  0.00    +0.000 C 
ATOM     14  C   UNL     1       7.507  15.186  20.656  0.00  0.00    +0.000 C 
ATOM     15  N   UNL     1       8.784  15.849  20.499  0.00  0.00    +0.000 N 
ATOM     16  C   UNL     1       9.484  16.261  21.719  0.00  0.00    +0.000 C 
ATOM     17  C   UNL     1       9.584  15.089  22.698  0.00  0.00    +0.000 C 
ENDBRANCH   1  15
BRANCH   8  18
ATOM     18  C   UNL     1      10.257  12.910  18.768  0.00  0.00    +0.000 A 
ATOM     19  C   UNL     1      10.603  12.787  20.125  0.00  0.00    +0.000 A 
ATOM     20  C   UNL     1      10.319  11.612  20.830  0.00  0.00    +0.000 A 
ATOM     21  C   UNL     1       9.650  10.563  20.196  0.00  0.00    +0.000 A 
ATOM     22  C   UNL     1       9.324  10.656  18.839  0.00  0.00    +0.000 A 
ATOM     23  C   UNL     1       9.686  11.808  18.119  0.00  0.00    +0.000 A 
BRANCH  22  24
ATOM     24  C   UNL     1       8.512   9.639  18.218  0.00  0.00    +0.000 C 
ATOM     25  N   UNL     1       7.862   8.859  17.665  0.00  0.00    +0.000 NA
ENDBRANCH  22  24
ENDBRANCH   8  18
TORSDOF 3
ENDMDL
MODEL 5
REMARK VINA RESULT:      -7.1      1.993      2.565
REMARK  Name = 
REMARK  4 active torsions:
REMARK  status: ('A' for Active; 'I' for Inactive)
REMARK    1  A    between atoms: C_1  and  C_2
REMARK    2  A    between atoms: N_5  and  C_6
REMARK    3  A    between atoms: C_13  and  C_14
REMARK    4  A    between atoms: C_18  and  C_19
REMARK                            x       y       z     vdW  Elec       q    Type
REMARK                         _______ _______ _______ _____ _____    ______ ____
ROOT
ATOM      1  C   UNL     1       4.991   4.010  16.539  0.00  0.00    +0.000 A 
ATOM      2  N   UNL     1       5.837   3.382  15.665  0.00  0.00    +0.000 NA
ATOM      3  C   UNL     1       6.872   4.037  15.123  0.00  0.00    +0.000 A 
ATOM      4  N   UNL     1       7.236   5.299  15.346  0.00  0.00    +0.000 NA
ATOM      5  C   UNL     1       6.430   5.889  16.238  0.00  0.00    +0.000 A 
ATOM      6  N   UNL     1       6.617   7.179  16.637  0.00  0.00    +0.000 N 
ATOM      7  C   UNL     1       5.682   7.511  17.573  0.00  0.00    +0.000 A 
ATOM      8  C   UNL     1       4.865   6.411  17.788  0.00  0.00    +0.000 A 
ATOM      9  C   UNL     1       5.319   5.354  16.894  0.00  0.00    +0.000 A 
ATOM     10  H   UNL     1       7.359   7.767  16.290  0.00  0.00    +0.000 HD
ENDROOT
BRANCH   1  15
ATOM     11  C   UNL     1       0.659   2.045  19.476  0.00  0.00    +0.000 C 
ATOM     12  C   UNL     1       1.621   2.164  18.302  0.00  0.00    +0.000 C 
ATOM     13  C   UNL     1       3.051   1.870  18.768  0.00  0.00    +0.000 C 
ATOM     14  C   UNL     1       4.015   1.974  17.598  0.00  0.00    +0.000 C 
ATOM     15  N   UNL     1       3.904   3.258  16.941  0.00  0.00    +0.000 N 
ATOM     16  C   UNL     1       2.570   3.678  16.502  0.00  0.00    +0.000 C 
ATOM     17  C   UNL     1       1.567   3.554  17.651  0.00  0.00    +0.000 C 
ENDBRANCH   1  15
BRANCH   8  18
ATOM     18  C   UNL     1       3.806   6.478  18.792  0.00  0.00    +0.000 A 
ATOM     19  C   UNL     1       2.874   7.531  18.773  0.00  0.00    +0.000 A 
ATOM     20  C   UNL     1       1.803   7.553  19.673  0.00  0.00    +0.000 A 
ATOM     21  C   UNL     1       1.629   6.501  20.575  0.00  0.00    +0.000 A 
ATOM     22  C   UNL     1       2.561   5.459  20.628  0.00  0.00    +0.000 A 
ATOM     23  C   UNL     1       3.678   5.489  19.775  0.00  0.00    +0.000 A 
BRANCH  22  24
ATOM     24  C   UNL     1       2.311   4.305  21.455  0.00  0.00    +0.000 C 
ATOM     25  N   UNL     1       2.174   3.364  22.112  0.00  0.00    +0.000 NA
ENDBRANCH  22  24
ENDBRANCH   8  18
TORSDOF 3
ENDMDL
MODEL 6
REMARK VINA RESULT:      -6.7      8.157     11.049
REMARK  Name = 
REMARK  4 active torsions:
REMARK  status: ('A' for Active; 'I' for Inactive)
REMARK    1  A    between atoms: C_1  and  C_2
REMARK    2  A    between atoms: N_5  and  C_6
REMARK    3  A    between atoms: C_13  and  C_14
REMARK    4  A    between atoms: C_18  and  C_19
REMARK                            x       y       z     vdW  Elec       q    Type
REMARK                         _______ _______ _______ _____ _____    ______ ____
ROOT
ATOM      1  C   UNL     1      -5.263  12.662  19.970  0.00  0.00    +0.000 A 
ATOM      2  N   UNL     1      -6.630  12.700  20.036  0.00  0.00    +0.000 NA
ATOM      3  C   UNL     1      -7.378  12.282  19.006  0.00  0.00    +0.000 A 
ATOM      4  N   UNL     1      -6.951  11.776  17.850  0.00  0.00    +0.000 NA
ATOM      5  C   UNL     1      -5.615  11.700  17.815  0.00  0.00    +0.000 A 
ATOM      6  N   UNL     1      -4.948  11.199  16.737  0.00  0.00    +0.000 N 
ATOM      7  C   UNL     1      -3.607  11.203  16.981  0.00  0.00    +0.000 A 
ATOM      8  C   UNL     1      -3.393  11.721  18.250  0.00  0.00    +0.000 A 
ATOM      9  C   UNL     1      -4.695  12.085  18.793  0.00  0.00    +0.000 A 
ATOM     10  H   UNL     1      -5.409  10.861  15.905  0.00  0.00    +0.000 HD
ENDROOT
BRANCH   1  15
ATOM     11  C   UNL     1      -1.341  14.009  23.718  0.00  0.00    +0.000 C 
ATOM     12  C   UNL     1      -2.697  14.054  23.026  0.00  0.00    +0.000 C 
ATOM     13  C   UNL     1      -3.355  12.672  23.079  0.00  0.00    +0.000 C 
ATOM     14  C   UNL     1      -4.714  12.713  22.401  0.00  0.00    +0.000 C 
ATOM     15  N   UNL     1      -4.611  13.222  21.051  0.00  0.00    +0.000 N 
ATOM     16  C   UNL     1      -3.944  14.513  20.866  0.00  0.00    +0.000 C 
ATOM     17  C   UNL     1      -2.582  14.515  21.566  0.00  0.00    +0.000 C 
ENDBRANCH   1  15
BRANCH   8  18
ATOM     18  C   UNL     1      -2.036  11.787  18.789  0.00  0.00    +0.000 A 
ATOM     19  C   UNL     1      -1.039  12.514  18.115  0.00  0.00    +0.000 A 
ATOM     20  C   UNL     1       0.237  12.659  18.671  0.00  0.00    +0.000 A 
ATOM     21  C   UNL     1       0.517  12.113  19.926  0.00  0.00    +0.000 A 
ATOM     22  C   UNL     1      -0.454  11.363  20.598  0.00  0.00    +0.000 A 
ATOM     23  C   UNL     1      -1.706  11.155  19.994  0.00  0.00    +0.000 A 
BRANCH  22  24
ATOM     24  C   UNL     1      -0.219  10.919  21.950  0.00  0.00    +0.000 C 
ATOM     25  N   UNL     1      -0.003  10.510  23.009  0.00  0.00    +0.000 NA
ENDBRANCH  22  24
ENDBRANCH   8  18
TORSDOF 3
ENDMDL
MODEL 7
REMARK VINA RESULT:      -6.6      1.805      4.520
REMARK  Name = 
REMARK  4 active torsions:
REMARK  status: ('A' for Active; 'I' for Inactive)
REMARK    1  A    between atoms: C_1  and  C_2
REMARK    2  A    between atoms: N_5  and  C_6
REMARK    3  A    between atoms: C_13  and  C_14
REMARK    4  A    between atoms: C_18  and  C_19
REMARK                            x       y       z     vdW  Elec       q    Type
REMARK                         _______ _______ _______ _____ _____    ______ ____
ROOT
ATOM      1  C   UNL     1       3.884   3.401  18.386  0.00  0.00    +0.000 A 
ATOM      2  N   UNL     1       4.146   2.081  18.135  0.00  0.00    +0.000 NA
ATOM      3  C   UNL     1       3.342   1.120  18.610  0.00  0.00    +0.000 A 
ATOM      4  N   UNL     1       2.229   1.278  19.325  0.00  0.00    +0.000 NA
ATOM      5  C   UNL     1       1.957   2.573  19.524  0.00  0.00    +0.000 A 
ATOM      6  N   UNL     1       0.857   2.981  20.217  0.00  0.00    +0.000 N 
ATOM      7  C   UNL     1       0.803   4.344  20.236  0.00  0.00    +0.000 A 
ATOM      8  C   UNL     1       1.898   4.837  19.540  0.00  0.00    +0.000 A 
ATOM      9  C   UNL     1       2.681   3.690  19.100  0.00  0.00    +0.000 A 
ATOM     10  H   UNL     1       0.187   2.345  20.623  0.00  0.00    +0.000 HD
ENDROOT
BRANCH   1  15
ATOM     11  C   UNL     1       6.697   8.092  17.233  0.00  0.00    +0.000 C 
ATOM     12  C   UNL     1       6.438   6.594  17.314  0.00  0.00    +0.000 C 
ATOM     13  C   UNL     1       5.194   6.234  16.496  0.00  0.00    +0.000 C 
ATOM     14  C   UNL     1       4.938   4.737  16.564  0.00  0.00    +0.000 C 
ATOM     15  N   UNL     1       4.846   4.283  17.934  0.00  0.00    +0.000 N 
ATOM     16  C   UNL     1       5.954   4.621  18.833  0.00  0.00    +0.000 C 
ATOM     17  C   UNL     1       6.257   6.119  18.764  0.00  0.00    +0.000 C 
ENDBRANCH   1  15
BRANCH   8  18
ATOM     18  C   UNL     1       2.054   6.278  19.360  0.00  0.00    +0.000 A 
ATOM     19  C   UNL     1       2.464   6.799  18.120  0.00  0.00    +0.000 A 
ATOM     20  C   UNL     1       2.527   8.181  17.912  0.00  0.00    +0.000 A 
ATOM     21  C   UNL     1       2.141   9.057  18.929  0.00  0.00    +0.000 A 
ATOM     22  C   UNL     1       1.758   8.558  20.179  0.00  0.00    +0.000 A 
ATOM     23  C   UNL     1       1.776   7.170  20.403  0.00  0.00    +0.000 A 
BRANCH  22  24
ATOM     24  C   UNL     1       1.226   9.447  21.182  0.00  0.00    +0.000 C 
ATOM     25  N   UNL     1       0.841  10.204  21.965  0.00  0.00    +0.000 NA
ENDBRANCH  22  24
ENDBRANCH   8  18
TORSDOF 3
ENDMDL
MODEL 8
REMARK VINA RESULT:      -6.6      4.832      8.737
REMARK  Name = 
REMARK  4 active torsions:
REMARK  status: ('A' for Active; 'I' for Inactive)
REMARK    1  A    between atoms: C_1  and  C_2
REMARK    2  A    between atoms: N_5  and  C_6
REMARK    3  A    between atoms: C_13  and  C_14
REMARK    4  A    between atoms: C_18  and  C_19
REMARK                            x       y       z     vdW  Elec       q    Type
REMARK                         _______ _______ _______ _____ _____    ______ ____
ROOT
ATOM      1  C   UNL     1       0.927  10.684  19.047  0.00  0.00    +0.000 A 
ATOM      2  N   UNL     1       1.429   9.909  18.036  0.00  0.00    +0.000 NA
ATOM      3  C   UNL     1       1.889   8.676  18.282  0.00  0.00    +0.000 A 
ATOM      4  N   UNL     1       1.908   8.038  19.451  0.00  0.00    +0.000 NA
ATOM      5  C   UNL     1       1.372   8.786  20.423  0.00  0.00    +0.000 A 
ATOM      6  N   UNL     1       1.267   8.337  21.706  0.00  0.00    +0.000 N 
ATOM      7  C   UNL     1       0.653   9.279  22.476  0.00  0.00    +0.000 A 
ATOM      8  C   UNL     1       0.350  10.372  21.676  0.00  0.00    +0.000 A 
ATOM      9  C   UNL     1       0.848  10.078  20.339  0.00  0.00    +0.000 A 
ATOM     10  H   UNL     1       1.586   7.427  22.005  0.00  0.00    +0.000 HD
ENDROOT
BRANCH   1  15
ATOM     11  C   UNL     1      -0.425  16.104  19.255  0.00  0.00    +0.000 C 
ATOM     12  C   UNL     1      -0.063  14.771  18.615  0.00  0.00    +0.000 C 
ATOM     13  C   UNL     1      -1.107  13.713  18.989  0.00  0.00    +0.000 C 
ATOM     14  C   UNL     1      -0.758  12.382  18.343  0.00  0.00    +0.000 C 
ATOM     15  N   UNL     1       0.588  11.972  18.682  0.00  0.00    +0.000 N 
ATOM     16  C   UNL     1       1.669  12.928  18.425  0.00  0.00    +0.000 C 
ATOM     17  C   UNL     1       1.333  14.290  19.037  0.00  0.00    +0.000 C 
ENDBRANCH   1  15
BRANCH   8  18
ATOM     18  C   UNL     1      -0.367  11.511  22.243  0.00  0.00    +0.000 A 
ATOM     19  C   UNL     1       0.094  12.822  22.026  0.00  0.00    +0.000 A 
ATOM     20  C   UNL     1      -0.638  13.921  22.487  0.00  0.00    +0.000 A 
ATOM     21  C   UNL     1      -1.860  13.724  23.134  0.00  0.00    +0.000 A 
ATOM     22  C   UNL     1      -2.320  12.426  23.385  0.00  0.00    +0.000 A 
ATOM     23  C   UNL     1      -1.538  11.328  22.990  0.00  0.00    +0.000 A 
BRANCH  22  24
ATOM     24  C   UNL     1      -3.642  12.219  23.924  0.00  0.00    +0.000 C 
ATOM     25  N   UNL     1      -4.673  12.035  24.413  0.00  0.00    +0.000 NA
ENDBRANCH  22  24
ENDBRANCH   8  18
TORSDOF 3
ENDMDL
MODEL 9
REMARK VINA RESULT:      -6.5      2.119      4.682
REMARK  Name = 
REMARK  4 active torsions:
REMARK  status: ('A' for Active; 'I' for Inactive)
REMARK    1  A    between atoms: C_1  and  C_2
REMARK    2  A    between atoms: N_5  and  C_6
REMARK    3  A    between atoms: C_13  and  C_14
REMARK    4  A    between atoms: C_18  and  C_19
REMARK                            x       y       z     vdW  Elec       q    Type
REMARK                         _______ _______ _______ _____ _____    ______ ____
ROOT
ATOM      1  C   UNL     1       3.898   4.187  18.733  0.00  0.00    +0.000 A 
ATOM      2  N   UNL     1       4.350   2.981  18.271  0.00  0.00    +0.000 NA
ATOM      3  C   UNL     1       3.653   1.858  18.492  0.00  0.00    +0.000 A 
ATOM      4  N   UNL     1       2.486   1.742  19.124  0.00  0.00    +0.000 NA
ATOM      5  C   UNL     1       2.031   2.934  19.530  0.00  0.00    +0.000 A 
ATOM      6  N   UNL     1       0.844   3.068  20.187  0.00  0.00    +0.000 N 
ATOM      7  C   UNL     1       0.608   4.385  20.448  0.00  0.00    +0.000 A 
ATOM      8  C   UNL     1       1.668   5.129  19.951  0.00  0.00    +0.000 A 
ATOM      9  C   UNL     1       2.624   4.189  19.380  0.00  0.00    +0.000 A 
ATOM     10  H   UNL     1       0.241   2.290  20.411  0.00  0.00    +0.000 HD
ENDROOT
BRANCH   1  15
ATOM     11  C   UNL     1       8.027   7.411  16.780  0.00  0.00    +0.000 C 
ATOM     12  C   UNL     1       6.800   7.047  17.605  0.00  0.00    +0.000 C 
ATOM     13  C   UNL     1       7.127   5.875  18.537  0.00  0.00    +0.000 C 
ATOM     14  C   UNL     1       5.910   5.515  19.372  0.00  0.00    +0.000 C 
ATOM     15  N   UNL     1       4.760   5.248  18.535  0.00  0.00    +0.000 N 
ATOM     16  C   UNL     1       4.384   6.275  17.559  0.00  0.00    +0.000 C 
ATOM     17  C   UNL     1       5.599   6.683  16.720  0.00  0.00    +0.000 C 
ENDBRANCH   1  15
BRANCH   8  18
ATOM     18  C   UNL     1       1.642   6.586  20.049  0.00  0.00    +0.000 A 
ATOM     19  C   UNL     1       1.853   7.380  18.908  0.00  0.00    +0.000 A 
ATOM     20  C   UNL     1       1.738   8.773  18.977  0.00  0.00    +0.000 A 
ATOM     21  C   UNL     1       1.370   9.384  20.177  0.00  0.00    +0.000 A 
ATOM     22  C   UNL     1       1.184   8.613  21.330  0.00  0.00    +0.000 A 
ATOM     23  C   UNL     1       1.382   7.222  21.269  0.00  0.00    +0.000 A 
BRANCH  22  24
ATOM     24  C   UNL     1       0.668   9.220  22.532  0.00  0.00    +0.000 C 
ATOM     25  N   UNL     1       0.280   9.657  23.529  0.00  0.00    +0.000 NA
ENDBRANCH  22  24
ENDBRANCH   8  18
TORSDOF 3
ENDMDL
