MODEL 1
REMARK VINA RESULT:      -8.1      0.000      0.000
REMARK  Name = 
REMARK  9 active torsions:
REMARK  status: ('A' for Active; 'I' for Inactive)
REMARK    1  A    between atoms: C_1  and  C_2
REMARK    2  A    between atoms: C_2  and  N_3
REMARK    3  A    between atoms: C_2  and  C_27
REMARK    4  A    between atoms: N_6  and  C_7
REMARK    5  A    between atoms: C_10  and  O_11
REMARK    6  A    between atoms: O_11  and  C_12
REMARK    7  A    between atoms: C_18  and  N_19
REMARK    8  A    between atoms: N_19  and  C_20
REMARK    9  A    between atoms: N_19  and  C_21
REMARK                            x       y       z     vdW  Elec       q    Type
REMARK                         _______ _______ _______ _____ _____    ______ ____
ROOT
ATOM      1  C   UNL     1       1.532   8.393  19.811  0.00  0.00    +0.000 A 
ATOM      2  C   UNL     1       0.536   8.882  20.663  0.00  0.00    +0.000 A 
ATOM      3  C   UNL     1      -0.362   9.898  20.283  0.00  0.00    +0.000 A 
ATOM      4  C   UNL     1      -0.295  10.500  19.038  0.00  0.00    +0.000 A 
ATOM      5  C   UNL     1       0.698  10.040  18.153  0.00  0.00    +0.000 A 
ATOM      6  C   UNL     1       1.610   9.003  18.543  0.00  0.00    +0.000 A 
ENDROOT
BRANCH   1  10
ATOM      7  N   UNL     1       3.666   5.338  19.900  0.00  0.00    +0.000 N 
ATOM      8  C   UNL     1       2.749   6.240  19.372  0.00  0.00    +0.000 C 
ATOM      9  O   UNL     1       2.361   6.072  18.222  0.00  0.00    +0.000 OA
ATOM     10  N   UNL     1       2.411   7.301  20.178  0.00  0.00    +0.000 N 
ATOM     11  H   UNL     1       3.734   5.219  20.901  0.00  0.00    +0.000 HD
ATOM     12  H   UNL     1       2.933   7.406  21.036  0.00  0.00    +0.000 HD
BRANCH   7  14
ATOM     13  C   UNL     1       4.347   2.920  19.853  0.00  0.00    +0.000 C 
ATOM     14  C   UNL     1       4.138   4.215  19.053  0.00  0.00    +0.000 C 
BRANCH  14  15
ATOM     15  C   UNL     1       5.419   4.499  18.272  0.00  0.00    +0.000 A 
ATOM     16  N   UNL     1       6.645   4.616  18.753  0.00  0.00    +0.000 NA
ATOM     17  C   UNL     1       7.566   4.615  17.706  0.00  0.00    +0.000 A 
ATOM     18  C   UNL     1       7.041   4.493  16.439  0.00  0.00    +0.000 A 
ATOM     19  S   UNL     1       5.337   4.449  16.533  0.00  0.00    +0.000 S 
ENDBRANCH  14  15
ENDBRANCH   7  14
ENDBRANCH   1  10
BRANCH   4  20
ATOM     20  O   UNL     1      -1.373  11.297  18.670  0.00  0.00    +0.000 OA
BRANCH  20  21
ATOM     21  C   UNL     1      -1.532  12.531  19.287  0.00  0.00    +0.000 A 
ATOM     22  N   UNL     1      -0.499  13.363  19.075  0.00  0.00    +0.000 NA
ATOM     23  C   UNL     1      -0.335  14.294  20.011  0.00  0.00    +0.000 A 
ATOM     24  N   UNL     1      -1.002  14.350  21.171  0.00  0.00    +0.000 NA
ATOM     25  C   UNL     1      -2.125  13.621  21.253  0.00  0.00    +0.000 A 
ATOM     26  C   UNL     1      -2.897  13.637  22.418  0.00  0.00    +0.000 A 
ATOM     27  C   UNL     1      -4.200  13.130  22.472  0.00  0.00    +0.000 A 
ATOM     28  C   UNL     1      -4.753  12.757  21.242  0.00  0.00    +0.000 A 
ATOM     29  C   UNL     1      -3.945  12.555  20.122  0.00  0.00    +0.000 A 
ATOM     30  C   UNL     1      -2.560  12.842  20.192  0.00  0.00    +0.000 A 
BRANCH  27  31
ATOM     31  N   UNL     1      -4.959  13.030  23.628  0.00  0.00    +0.000 N 
ATOM     32  C   UNL     1      -6.415  13.157  23.507  0.00  0.00    +0.000 C 
ATOM     33  C   UNL     1      -4.495  12.369  24.843  0.00  0.00    +0.000 C 
ENDBRANCH  27  31
ENDBRANCH  20  21
ENDBRANCH   4  20
TORSDOF 6
ENDMDL
MODEL 2
REMARK VINA RESULT:      -8.0      3.381     11.450
REMARK  Name = 
REMARK  9 active torsions:
REMARK  status: ('A' for Active; 'I' for Inactive)
REMARK    1  A    between atoms: C_1  and  C_2
REMARK    2  A    between atoms: C_2  and  N_3
REMARK    3  A    between atoms: C_2  and  C_27
REMARK    4  A    between atoms: N_6  and  C_7
REMARK    5  A    between atoms: C_10  and  O_11
REMARK    6  A    between atoms: O_11  and  C_12
REMARK    7  A    between atoms: C_18  and  N_19
REMARK    8  A    between atoms: N_19  and  C_20
REMARK    9  A    between atoms: N_19  and  C_21
REMARK                            x       y       z     vdW  Elec       q    Type
REMARK                         _______ _______ _______ _____ _____    ______ ____
ROOT
ATOM      1  C   UNL     1       1.882   8.675  18.418  0.00  0.00    +0.000 A 
ATOM      2  C   UNL     1       2.851   8.179  17.539  0.00  0.00    +0.000 A 
ATOM      3  C   UNL     1       3.572   6.995  17.787  0.00  0.00    +0.000 A 
ATOM      4  C   UNL     1       3.382   6.256  18.943  0.00  0.00    +0.000 A 
ATOM      5  C   UNL     1       2.420   6.725  19.855  0.00  0.00    +0.000 A 
ATOM      6  C   UNL     1       1.686   7.931  19.599  0.00  0.00    +0.000 A 
ENDROOT
BRANCH   1  10
ATOM      7  N   UNL     1       0.089  11.942  18.514  0.00  0.00    +0.000 N 
ATOM      8  C   UNL     1       0.808  10.863  19.020  0.00  0.00    +0.000 C 
ATOM      9  O   UNL     1       1.191  10.913  20.182  0.00  0.00    +0.000 OA
ATOM     10  N   UNL     1       1.092   9.855  18.131  0.00  0.00    +0.000 N 
ATOM     11  H   UNL     1      -0.533  11.806  17.729  0.00  0.00    +0.000 HD
ATOM     12  H   UNL     1       0.860  10.022  17.163  0.00  0.00    +0.000 HD
BRANCH   7  14
ATOM     13  C   UNL     1      -1.681  13.307  19.660  0.00  0.00    +0.000 C 
ATOM     14  C   UNL     1      -0.181  13.102  19.397  0.00  0.00    +0.000 C 
BRANCH  14  15
ATOM     15  C   UNL     1       0.396  14.428  18.903  0.00  0.00    +0.000 A 
ATOM     16  N   UNL     1      -0.225  15.591  18.813  0.00  0.00    +0.000 NA
ATOM     17  C   UNL     1       0.701  16.604  18.569  0.00  0.00    +0.000 A 
ATOM     18  C   UNL     1       2.017  16.210  18.478  0.00  0.00    +0.000 A 
ATOM     19  S   UNL     1       2.114  14.512  18.629  0.00  0.00    +0.000 S 
ENDBRANCH  14  15
ENDBRANCH   7  14
ENDBRANCH   1  10
BRANCH   4  20
ATOM     20  O   UNL     1       3.946   4.985  18.971  0.00  0.00    +0.000 OA
BRANCH  20  21
ATOM     21  C   UNL     1       5.288   4.842  18.644  0.00  0.00    +0.000 A 
ATOM     22  N   UNL     1       6.114   5.264  19.615  0.00  0.00    +0.000 NA
ATOM     23  C   UNL     1       7.319   5.641  19.193  0.00  0.00    +0.000 A 
ATOM     24  N   UNL     1       7.683   5.771  17.911  0.00  0.00    +0.000 NA
ATOM     25  C   UNL     1       6.899   5.176  17.001  0.00  0.00    +0.000 A 
ATOM     26  C   UNL     1       7.216   5.241  15.641  0.00  0.00    +0.000 A 
ATOM     27  C   UNL     1       6.607   4.425  14.681  0.00  0.00    +0.000 A 
ATOM     28  C   UNL     1       5.781   3.415  15.184  0.00  0.00    +0.000 A 
ATOM     29  C   UNL     1       5.309   3.460  16.497  0.00  0.00    +0.000 A 
ATOM     30  C   UNL     1       5.763   4.474  17.374  0.00  0.00    +0.000 A 
BRANCH  27  31
ATOM     31  N   UNL     1       6.815   4.529  13.313  0.00  0.00    +0.000 N 
ATOM     32  C   UNL     1       7.936   5.354  12.850  0.00  0.00    +0.000 C 
ATOM     33  C   UNL     1       6.322   3.556  12.346  0.00  0.00    +0.000 C 
ENDBRANCH  27  31
ENDBRANCH  20  21
ENDBRANCH   4  20
TORSDOF 6
ENDMDL
MODEL 3
REMARK VINA RESULT:      -7.9      1.131      1.628
REMARK  Name = 
REMARK  9 active torsions:
REMARK  status: ('A' for Active; 'I' for Inactive)
REMARK    1  A    between atoms: C_1  and  C_2
REMARK    2  A    between atoms: C_2  and  N_3
REMARK    3  A    between atoms: C_2  and  C_27
REMARK    4  A    between atoms: N_6  and  C_7
REMARK    5  A    between atoms: C_10  and  O_11
REMARK    6  A    between atoms: O_11  and  C_12
REMARK    7  A    between atoms: C_18  and  N_19
REMARK    8  A    between atoms: N_19  and  C_20
REMARK    9  A    between atoms: N_19  and  C_21
REMARK                            x       y       z     vdW  Elec       q    Type
REMARK                         _______ _______ _______ _____ _____    ______ ____
ROOT
ATOM      1  C   UNL     1       1.631   8.278  19.922  0.00  0.00    +0.000 A 
ATOM      2  C   UNL     1       1.695   8.916  18.678  0.00  0.00    +0.000 A 
ATOM      3  C   UNL     1       0.942  10.067  18.372  0.00  0.00    +0.000 A 
ATOM      4  C   UNL     1       0.064  10.627  19.285  0.00  0.00    +0.000 A 
ATOM      5  C   UNL     1      -0.032  10.011  20.546  0.00  0.00    +0.000 A 
ATOM      6  C   UNL     1       0.737   8.839  20.855  0.00  0.00    +0.000 A 
ENDROOT
BRANCH   1  10
ATOM      7  N   UNL     1       3.665   5.154  19.916  0.00  0.00    +0.000 N 
ATOM      8  C   UNL     1       2.805   6.120  19.402  0.00  0.00    +0.000 C 
ATOM      9  O   UNL     1       2.477   6.041  18.225  0.00  0.00    +0.000 OA
ATOM     10  N   UNL     1       2.455   7.136  20.260  0.00  0.00    +0.000 N 
ATOM     11  H   UNL     1       3.673   4.967  20.909  0.00  0.00    +0.000 HD
ATOM     12  H   UNL     1       2.932   7.166  21.149  0.00  0.00    +0.000 HD
BRANCH   7  14
ATOM     13  C   UNL     1       4.375   2.749  19.764  0.00  0.00    +0.000 C 
ATOM     14  C   UNL     1       4.148   4.075  19.021  0.00  0.00    +0.000 C 
BRANCH  14  15
ATOM     15  C   UNL     1       5.424   4.407  18.251  0.00  0.00    +0.000 A 
ATOM     16  N   UNL     1       6.640   4.574  18.742  0.00  0.00    +0.000 NA
ATOM     17  C   UNL     1       7.570   4.607  17.704  0.00  0.00    +0.000 A 
ATOM     18  C   UNL     1       7.062   4.463  16.433  0.00  0.00    +0.000 A 
ATOM     19  S   UNL     1       5.360   4.351  16.511  0.00  0.00    +0.000 S 
ENDBRANCH  14  15
ENDBRANCH   7  14
ENDBRANCH   1  10
BRANCH   4  20
ATOM     20  O   UNL     1      -0.428  11.892  18.984  0.00  0.00    +0.000 OA
BRANCH  20  21
ATOM     21  C   UNL     1      -0.127  12.946  19.836  0.00  0.00    +0.000 A 
ATOM     22  N   UNL     1       1.157  13.334  19.760  0.00  0.00    +0.000 NA
ATOM     23  C   UNL     1       1.623  13.928  20.855  0.00  0.00    +0.000 A 
ATOM     24  N   UNL     1       0.973  14.014  22.023  0.00  0.00    +0.000 NA
ATOM     25  C   UNL     1      -0.346  13.778  21.995  0.00  0.00    +0.000 A 
ATOM     26  C   UNL     1      -1.107  13.868  23.164  0.00  0.00    +0.000 A 
ATOM     27  C   UNL     1      -2.507  13.908  23.157  0.00  0.00    +0.000 A 
ATOM     28  C   UNL     1      -3.100  14.025  21.896  0.00  0.00    +0.000 A 
ATOM     29  C   UNL     1      -2.380  13.744  20.734  0.00  0.00    +0.000 A 
ATOM     30  C   UNL     1      -0.997  13.452  20.816  0.00  0.00    +0.000 A 
BRANCH  27  31
ATOM     31  N   UNL     1      -3.300  13.889  24.294  0.00  0.00    +0.000 N 
ATOM     32  C   UNL     1      -4.109  12.692  24.548  0.00  0.00    +0.000 C 
ATOM     33  C   UNL     1      -3.058  14.730  25.461  0.00  0.00    +0.000 C 
ENDBRANCH  27  31
ENDBRANCH  20  21
ENDBRANCH   4  20
TORSDOF 6
ENDMDL
MODEL 4
REMARK VINA RESULT:      -7.9      3.017     11.463
REMARK  Name = 
REMARK  9 active torsions:
REMARK  status: ('A' for Active; 'I' for Inactive)
REMARK    1  A    between atoms: C_1  and  C_2
REMARK    2  A    between atoms: C_2  and  N_3
REMARK    3  A    between atoms: C_2  and  C_27
REMARK    4  A    between atoms: N_6  and  C_7
REMARK    5  A    between atoms: C_10  and  O_11
REMARK    6  A    between atoms: O_11  and  C_12
REMARK    7  A    between atoms: C_18  and  N_19
REMARK    8  A    between atoms: N_19  and  C_20
REMARK    9  A    between atoms: N_19  and  C_21
REMARK                            x       y       z     vdW  Elec       q    Type
REMARK                         _______ _______ _______ _____ _____    ______ ____
ROOT
ATOM      1  C   UNL     1       1.861   8.123  19.446  0.00  0.00    +0.000 A 
ATOM      2  C   UNL     1       1.715   7.015  20.288  0.00  0.00    +0.000 A 
ATOM      3  C   UNL     1       2.347   5.780  20.040  0.00  0.00    +0.000 A 
ATOM      4  C   UNL     1       3.138   5.579  18.922  0.00  0.00    +0.000 A 
ATOM      5  C   UNL     1       3.305   6.668  18.047  0.00  0.00    +0.000 A 
ATOM      6  C   UNL     1       2.661   7.925  18.303  0.00  0.00    +0.000 A 
ENDROOT
BRANCH   1  10
ATOM      7  N   UNL     1      -0.041  11.328  19.382  0.00  0.00    +0.000 N 
ATOM      8  C   UNL     1       0.489  10.146  18.873  0.00  0.00    +0.000 C 
ATOM      9  O   UNL     1       0.179   9.811  17.737  0.00  0.00    +0.000 OA
ATOM     10  N   UNL     1       1.266   9.411  19.736  0.00  0.00    +0.000 N 
ATOM     11  H   UNL     1       0.441  11.815  20.125  0.00  0.00    +0.000 HD
ATOM     12  H   UNL     1       1.301   9.722  20.696  0.00  0.00    +0.000 HD
BRANCH   7  14
ATOM     13  C   UNL     1      -0.615  13.628  18.548  0.00  0.00    +0.000 C 
ATOM     14  C   UNL     1      -0.955  12.129  18.533  0.00  0.00    +0.000 C 
BRANCH  14  15
ATOM     15  C   UNL     1      -2.437  11.979  18.872  0.00  0.00    +0.000 A 
ATOM     16  N   UNL     1      -3.093  12.538  19.874  0.00  0.00    +0.000 NA
ATOM     17  C   UNL     1      -4.465  12.369  19.695  0.00  0.00    +0.000 A 
ATOM     18  C   UNL     1      -4.847  11.688  18.561  0.00  0.00    +0.000 A 
ATOM     19  S   UNL     1      -3.457  11.173  17.713  0.00  0.00    +0.000 S 
ENDBRANCH  14  15
ENDBRANCH   7  14
ENDBRANCH   1  10
BRANCH   4  20
ATOM     20  O   UNL     1       3.915   4.426  18.905  0.00  0.00    +0.000 OA
BRANCH  20  21
ATOM     21  C   UNL     1       5.266   4.535  18.605  0.00  0.00    +0.000 A 
ATOM     22  N   UNL     1       5.986   5.067  19.607  0.00  0.00    +0.000 NA
ATOM     23  C   UNL     1       7.111   5.666  19.224  0.00  0.00    +0.000 A 
ATOM     24  N   UNL     1       7.469   5.899  17.955  0.00  0.00    +0.000 NA
ATOM     25  C   UNL     1       6.821   5.203  17.011  0.00  0.00    +0.000 A 
ATOM     26  C   UNL     1       7.146   5.366  15.661  0.00  0.00    +0.000 A 
ATOM     27  C   UNL     1       6.711   4.485  14.664  0.00  0.00    +0.000 A 
ATOM     28  C   UNL     1       6.069   3.328  15.120  0.00  0.00    +0.000 A 
ATOM     29  C   UNL     1       5.573   3.247  16.422  0.00  0.00    +0.000 A 
ATOM     30  C   UNL     1       5.823   4.298  17.338  0.00  0.00    +0.000 A 
BRANCH  27  31
ATOM     31  N   UNL     1       6.921   4.668  13.306  0.00  0.00    +0.000 N 
ATOM     32  C   UNL     1       8.058   5.497  12.892  0.00  0.00    +0.000 C 
ATOM     33  C   UNL     1       6.410   3.764  12.282  0.00  0.00    +0.000 C 
ENDBRANCH  27  31
ENDBRANCH  20  21
ENDBRANCH   4  20
TORSDOF 6
ENDMDL
MODEL 5
REMARK VINA RESULT:      -7.8      3.263     11.303
REMARK  Name = 
REMARK  9 active torsions:
REMARK  status: ('A' for Active; 'I' for Inactive)
REMARK    1  A    between atoms: C_1  and  C_2
REMARK    2  A    between atoms: C_2  and  N_3
REMARK    3  A    between atoms: C_2  and  C_27
REMARK    4  A    between atoms: N_6  and  C_7
REMARK    5  A    between atoms: C_10  and  O_11
REMARK    6  A    between atoms: O_11  and  C_12
REMARK    7  A    between atoms: C_18  and  N_19
REMARK    8  A    between atoms: N_19  and  C_20
REMARK    9  A    between atoms: N_19  and  C_21
REMARK                            x       y       z     vdW  Elec       q    Type
REMARK                         _______ _______ _______ _____ _____    ______ ____
ROOT
ATOM      1  C   UNL     1       2.130   8.638  18.251  0.00  0.00    +0.000 A 
ATOM      2  C   UNL     1       1.902   7.923  19.432  0.00  0.00    +0.000 A 
ATOM      3  C   UNL     1       2.524   6.691  19.711  0.00  0.00    +0.000 A 
ATOM      4  C   UNL     1       3.389   6.092  18.810  0.00  0.00    +0.000 A 
ATOM      5  C   UNL     1       3.639   6.776  17.606  0.00  0.00    +0.000 A 
ATOM      6  C   UNL     1       3.005   8.033  17.327  0.00  0.00    +0.000 A 
ENDROOT
BRANCH   1  10
ATOM      7  N   UNL     1       0.000  11.696  18.179  0.00  0.00    +0.000 N 
ATOM      8  C   UNL     1       0.343  10.385  18.495  0.00  0.00    +0.000 C 
ATOM      9  O   UNL     1      -0.397   9.753  19.238  0.00  0.00    +0.000 OA
ATOM     10  N   UNL     1       1.543   9.937  17.995  0.00  0.00    +0.000 N 
ATOM     11  H   UNL     1       0.352  12.116  17.330  0.00  0.00    +0.000 HD
ATOM     12  H   UNL     1       2.130  10.619  17.538  0.00  0.00    +0.000 HD
BRANCH   7  14
ATOM     13  C   UNL     1      -1.300  12.136  20.284  0.00  0.00    +0.000 C 
ATOM     14  C   UNL     1      -1.240  12.272  18.754  0.00  0.00    +0.000 C 
BRANCH  14  15
ATOM     15  C   UNL     1      -2.535  11.701  18.179  0.00  0.00    +0.000 A 
ATOM     16  N   UNL     1      -3.740  11.738  18.720  0.00  0.00    +0.000 NA
ATOM     17  C   UNL     1      -4.693  11.345  17.780  0.00  0.00    +0.000 A 
ATOM     18  C   UNL     1      -4.212  11.016  16.533  0.00  0.00    +0.000 A 
ATOM     19  S   UNL     1      -2.508  11.126  16.535  0.00  0.00    +0.000 S 
ENDBRANCH  14  15
ENDBRANCH   7  14
ENDBRANCH   1  10
BRANCH   4  20
ATOM     20  O   UNL     1       4.141   5.022  19.282  0.00  0.00    +0.000 OA
BRANCH  20  21
ATOM     21  C   UNL     1       5.456   4.891  18.856  0.00  0.00    +0.000 A 
ATOM     22  N   UNL     1       6.346   5.356  19.748  0.00  0.00    +0.000 NA
ATOM     23  C   UNL     1       7.508   5.740  19.224  0.00  0.00    +0.000 A 
ATOM     24  N   UNL     1       7.770   5.836  17.914  0.00  0.00    +0.000 NA
ATOM     25  C   UNL     1       6.930   5.200  17.085  0.00  0.00    +0.000 A 
ATOM     26  C   UNL     1       7.141   5.227  15.704  0.00  0.00    +0.000 A 
ATOM     27  C   UNL     1       6.476   4.371  14.817  0.00  0.00    +0.000 A 
ATOM     28  C   UNL     1       5.709   3.364  15.413  0.00  0.00    +0.000 A 
ATOM     29  C   UNL     1       5.339   3.443  16.757  0.00  0.00    +0.000 A 
ATOM     30  C   UNL     1       5.840   4.491  17.566  0.00  0.00    +0.000 A 
BRANCH  27  31
ATOM     31  N   UNL     1       6.576   4.437  13.436  0.00  0.00    +0.000 N 
ATOM     32  C   UNL     1       7.712   5.168  12.864  0.00  0.00    +0.000 C 
ATOM     33  C   UNL     1       5.936   3.485  12.535  0.00  0.00    +0.000 C 
ENDBRANCH  27  31
ENDBRANCH  20  21
ENDBRANCH   4  20
TORSDOF 6
ENDMDL
MODEL 6
REMARK VINA RESULT:      -7.7      2.060      4.538
REMARK  Name = 
REMARK  9 active torsions:
REMARK  status: ('A' for Active; 'I' for Inactive)
REMARK    1  A    between atoms: C_1  and  C_2
REMARK    2  A    between atoms: C_2  and  N_3
REMARK    3  A    between atoms: C_2  and  C_27
REMARK    4  A    between atoms: N_6  and  C_7
REMARK    5  A    between atoms: C_10  and  O_11
REMARK    6  A    between atoms: O_11  and  C_12
REMARK    7  A    between atoms: C_18  and  N_19
REMARK    8  A    between atoms: N_19  and  C_20
REMARK    9  A    between atoms: N_19  and  C_21
REMARK                            x       y       z     vdW  Elec       q    Type
REMARK                         _______ _______ _______ _____ _____    ______ ____
ROOT
ATOM      1  C   UNL     1       1.469   8.383  19.854  0.00  0.00    +0.000 A 
ATOM      2  C   UNL     1       1.413   8.993  18.596  0.00  0.00    +0.000 A 
ATOM      3  C   UNL     1       0.530  10.049  18.299  0.00  0.00    +0.000 A 
ATOM      4  C   UNL     1      -0.365  10.536  19.238  0.00  0.00    +0.000 A 
ATOM      5  C   UNL     1      -0.343   9.944  20.514  0.00  0.00    +0.000 A 
ATOM      6  C   UNL     1       0.559   8.869  20.814  0.00  0.00    +0.000 A 
ENDROOT
BRANCH   1  10
ATOM      7  N   UNL     1       3.738   5.426  19.858  0.00  0.00    +0.000 N 
ATOM      8  C   UNL     1       2.740   6.269  19.382  0.00  0.00    +0.000 C 
ATOM      9  O   UNL     1       2.266   6.044  18.276  0.00  0.00    +0.000 OA
ATOM     10  N   UNL     1       2.423   7.343  20.180  0.00  0.00    +0.000 N 
ATOM     11  H   UNL     1       3.894   5.345  20.854  0.00  0.00    +0.000 HD
ATOM     12  H   UNL     1       3.010   7.500  20.986  0.00  0.00    +0.000 HD
BRANCH   7  14
ATOM     13  C   UNL     1       4.372   2.995  19.810  0.00  0.00    +0.000 C 
ATOM     14  C   UNL     1       4.187   4.295  19.011  0.00  0.00    +0.000 C 
BRANCH  14  15
ATOM     15  C   UNL     1       5.473   4.554  18.229  0.00  0.00    +0.000 A 
ATOM     16  N   UNL     1       6.708   4.585  18.699  0.00  0.00    +0.000 NA
ATOM     17  C   UNL     1       7.617   4.592  17.642  0.00  0.00    +0.000 A 
ATOM     18  C   UNL     1       7.073   4.562  16.377  0.00  0.00    +0.000 A 
ATOM     19  S   UNL     1       5.370   4.598  16.490  0.00  0.00    +0.000 S 
ENDBRANCH  14  15
ENDBRANCH   7  14
ENDBRANCH   1  10
BRANCH   4  20
ATOM     20  O   UNL     1      -1.001  11.734  18.932  0.00  0.00    +0.000 OA
BRANCH  20  21
ATOM     21  C   UNL     1      -0.717  12.856  19.699  0.00  0.00    +0.000 A 
ATOM     22  N   UNL     1      -1.760  13.265  20.439  0.00  0.00    +0.000 NA
ATOM     23  C   UNL     1      -1.740  14.557  20.759  0.00  0.00    +0.000 A 
ATOM     24  N   UNL     1      -0.874  15.458  20.280  0.00  0.00    +0.000 NA
ATOM     25  C   UNL     1       0.235  14.977  19.701  0.00  0.00    +0.000 A 
ATOM     26  C   UNL     1       1.205  15.846  19.194  0.00  0.00    +0.000 A 
ATOM     27  C   UNL     1       2.490  15.423  18.834  0.00  0.00    +0.000 A 
ATOM     28  C   UNL     1       2.807  14.104  19.173  0.00  0.00    +0.000 A 
ATOM     29  C   UNL     1       1.807  13.184  19.495  0.00  0.00    +0.000 A 
ATOM     30  C   UNL     1       0.461  13.613  19.597  0.00  0.00    +0.000 A 
BRANCH  27  31
ATOM     31  N   UNL     1       3.443  16.228  18.230  0.00  0.00    +0.000 N 
ATOM     32  C   UNL     1       3.077  16.907  16.981  0.00  0.00    +0.000 C 
ATOM     33  C   UNL     1       4.575  16.810  18.941  0.00  0.00    +0.000 C 
ENDBRANCH  27  31
ENDBRANCH  20  21
ENDBRANCH   4  20
TORSDOF 6
ENDMDL
MODEL 7
REMARK VINA RESULT:      -7.6      2.569      3.713
REMARK  Name = 
REMARK  9 active torsions:
REMARK  status: ('A' for Active; 'I' for Inactive)
REMARK    1  A    between atoms: C_1  and  C_2
REMARK    2  A    between atoms: C_2  and  N_3
REMARK    3  A    between atoms: C_2  and  C_27
REMARK    4  A    between atoms: N_6  and  C_7
REMARK    5  A    between atoms: C_10  and  O_11
REMARK    6  A    between atoms: O_11  and  C_12
REMARK    7  A    between atoms: C_18  and  N_19
REMARK    8  A    between atoms: N_19  and  C_20
REMARK    9  A    between atoms: N_19  and  C_21
REMARK                            x       y       z     vdW  Elec       q    Type
REMARK                         _______ _______ _______ _____ _____    ______ ____
ROOT
ATOM      1  C   UNL     1       2.743   6.453  18.432  0.00  0.00    +0.000 A 
ATOM      2  C   UNL     1       2.369   6.223  19.760  0.00  0.00    +0.000 A 
ATOM      3  C   UNL     1       1.741   7.200  20.557  0.00  0.00    +0.000 A 
ATOM      4  C   UNL     1       1.477   8.472  20.076  0.00  0.00    +0.000 A 
ATOM      5  C   UNL     1       1.843   8.745  18.745  0.00  0.00    +0.000 A 
ATOM      6  C   UNL     1       2.482   7.746  17.936  0.00  0.00    +0.000 A 
ENDROOT
BRANCH   1  10
ATOM      7  N   UNL     1       5.010   4.241  16.467  0.00  0.00    +0.000 N 
ATOM      8  C   UNL     1       4.648   5.352  17.222  0.00  0.00    +0.000 C 
ATOM      9  O   UNL     1       5.524   6.139  17.558  0.00  0.00    +0.000 OA
ATOM     10  N   UNL     1       3.326   5.427  17.593  0.00  0.00    +0.000 N 
ATOM     11  H   UNL     1       4.323   3.786  15.883  0.00  0.00    +0.000 HD
ATOM     12  H   UNL     1       2.749   4.624  17.388  0.00  0.00    +0.000 HD
BRANCH   7  14
ATOM     13  C   UNL     1       7.394   4.682  17.129  0.00  0.00    +0.000 C 
ATOM     14  C   UNL     1       6.435   4.055  16.104  0.00  0.00    +0.000 C 
BRANCH  14  15
ATOM     15  C   UNL     1       6.816   4.580  14.721  0.00  0.00    +0.000 A 
ATOM     16  N   UNL     1       7.762   5.454  14.424  0.00  0.00    +0.000 NA
ATOM     17  C   UNL     1       7.971   5.477  13.046  0.00  0.00    +0.000 A 
ATOM     18  C   UNL     1       7.189   4.622  12.303  0.00  0.00    +0.000 A 
ATOM     19  S   UNL     1       6.101   3.804  13.334  0.00  0.00    +0.000 S 
ENDBRANCH  14  15
ENDBRANCH   7  14
ENDBRANCH   1  10
BRANCH   4  20
ATOM     20  O   UNL     1       0.633   9.267  20.842  0.00  0.00    +0.000 OA
BRANCH  20  21
ATOM     21  C   UNL     1       0.377  10.567  20.424  0.00  0.00    +0.000 A 
ATOM     22  N   UNL     1       1.204  11.469  20.977  0.00  0.00    +0.000 NA
ATOM     23  C   UNL     1       0.711  12.704  21.046  0.00  0.00    +0.000 A 
ATOM     24  N   UNL     1      -0.551  13.049  20.761  0.00  0.00    +0.000 NA
ATOM     25  C   UNL     1      -1.270  12.165  20.055  0.00  0.00    +0.000 A 
ATOM     26  C   UNL     1      -2.589  12.452  19.693  0.00  0.00    +0.000 A 
ATOM     27  C   UNL     1      -3.293  11.709  18.738  0.00  0.00    +0.000 A 
ATOM     28  C   UNL     1      -2.540  10.762  18.036  0.00  0.00    +0.000 A 
ATOM     29  C   UNL     1      -1.298  10.336  18.511  0.00  0.00    +0.000 A 
ATOM     30  C   UNL     1      -0.732  10.952  19.654  0.00  0.00    +0.000 A 
BRANCH  27  31
ATOM     31  N   UNL     1      -4.632  11.893  18.428  0.00  0.00    +0.000 N 
ATOM     32  C   UNL     1      -5.437  12.726  19.328  0.00  0.00    +0.000 C 
ATOM     33  C   UNL     1      -5.180  11.723  17.087  0.00  0.00    +0.000 C 
ENDBRANCH  27  31
ENDBRANCH  20  21
ENDBRANCH   4  20
TORSDOF 6
ENDMDL
MODEL 8
REMARK VINA RESULT:      -7.6      1.508      2.174
REMARK  Name = 
REMARK  9 active torsions:
REMARK  status: ('A' for Active; 'I' for Inactive)
REMARK    1  A    between atoms: C_1  and  C_2
REMARK    2  A    between atoms: C_2  and  N_3
REMARK    3  A    between atoms: C_2  and  C_27
REMARK    4  A    between atoms: N_6  and  C_7
REMARK    5  A    between atoms: C_10  and  O_11
REMARK    6  A    between atoms: O_11  and  C_12
REMARK    7  A    between atoms: C_18  and  N_19
REMARK    8  A    between atoms: N_19  and  C_20
REMARK    9  A    between atoms: N_19  and  C_21
REMARK                            x       y       z     vdW  Elec       q    Type
REMARK                         _______ _______ _______ _____ _____    ______ ____
ROOT
ATOM      1  C   UNL     1       1.511   8.395  20.146  0.00  0.00    +0.000 A 
ATOM      2  C   UNL     1       1.455   9.133  18.958  0.00  0.00    +0.000 A 
ATOM      3  C   UNL     1       0.566  10.210  18.771  0.00  0.00    +0.000 A 
ATOM      4  C   UNL     1      -0.334  10.590  19.752  0.00  0.00    +0.000 A 
ATOM      5  C   UNL     1      -0.312   9.868  20.959  0.00  0.00    +0.000 A 
ATOM      6  C   UNL     1       0.596   8.773  21.148  0.00  0.00    +0.000 A 
ENDROOT
BRANCH   1  10
ATOM      7  N   UNL     1       3.760   5.436  19.864  0.00  0.00    +0.000 N 
ATOM      8  C   UNL     1       2.749   6.313  19.485  0.00  0.00    +0.000 C 
ATOM      9  O   UNL     1       2.230   6.162  18.386  0.00  0.00    +0.000 OA
ATOM     10  N   UNL     1       2.472   7.333  20.363  0.00  0.00    +0.000 N 
ATOM     11  H   UNL     1       3.955   5.289  20.845  0.00  0.00    +0.000 HD
ATOM     12  H   UNL     1       3.091   7.434  21.154  0.00  0.00    +0.000 HD
BRANCH   7  14
ATOM     13  C   UNL     1       4.340   3.003  19.625  0.00  0.00    +0.000 C 
ATOM     14  C   UNL     1       4.168   4.361  18.927  0.00  0.00    +0.000 C 
BRANCH  14  15
ATOM     15  C   UNL     1       5.443   4.651  18.139  0.00  0.00    +0.000 A 
ATOM     16  N   UNL     1       6.691   4.451  18.526  0.00  0.00    +0.000 NA
ATOM     17  C   UNL     1       7.553   4.595  17.440  0.00  0.00    +0.000 A 
ATOM     18  C   UNL     1       6.961   4.899  16.235  0.00  0.00    +0.000 A 
ATOM     19  S   UNL     1       5.279   5.085  16.460  0.00  0.00    +0.000 S 
ENDBRANCH  14  15
ENDBRANCH   7  14
ENDBRANCH   1  10
BRANCH   4  20
ATOM     20  O   UNL     1      -0.977  11.809  19.571  0.00  0.00    +0.000 OA
BRANCH  20  21
ATOM     21  C   UNL     1      -2.346  11.881  19.791  0.00  0.00    +0.000 A 
ATOM     22  N   UNL     1      -3.070  11.415  18.761  0.00  0.00    +0.000 NA
ATOM     23  C   UNL     1      -4.300  11.916  18.674  0.00  0.00    +0.000 A 
ATOM     24  N   UNL     1      -4.778  12.923  19.417  0.00  0.00    +0.000 NA
ATOM     25  C   UNL     1      -4.094  13.226  20.529  0.00  0.00    +0.000 A 
ATOM     26  C   UNL     1      -4.533  14.247  21.376  0.00  0.00    +0.000 A 
ATOM     27  C   UNL     1      -4.034  14.427  22.671  0.00  0.00    +0.000 A 
ATOM     28  C   UNL     1      -3.187  13.416  23.137  0.00  0.00    +0.000 A 
ATOM     29  C   UNL     1      -2.595  12.510  22.253  0.00  0.00    +0.000 A 
ATOM     30  C   UNL     1      -2.944  12.535  20.881  0.00  0.00    +0.000 A 
BRANCH  27  31
ATOM     31  N   UNL     1      -4.363  15.487  23.502  0.00  0.00    +0.000 N 
ATOM     32  C   UNL     1      -3.419  16.606  23.594  0.00  0.00    +0.000 C 
ATOM     33  C   UNL     1      -5.728  15.793  23.917  0.00  0.00    +0.000 C 
ENDBRANCH  27  31
ENDBRANCH  20  21
ENDBRANCH   4  20
TORSDOF 6
ENDMDL
MODEL 9
REMARK VINA RESULT:      -7.5      0.976      1.039
REMARK  Name = 
REMARK  9 active torsions:
REMARK  status: ('A' for Active; 'I' for Inactive)
REMARK    1  A    between atoms: C_1  and  C_2
REMARK    2  A    between atoms: C_2  and  N_3
REMARK    3  A    between atoms: C_2  and  C_27
REMARK    4  A    between atoms: N_6  and  C_7
REMARK    5  A    between atoms: C_10  and  O_11
REMARK    6  A    between atoms: O_11  and  C_12
REMARK    7  A    between atoms: C_18  and  N_19
REMARK    8  A    between atoms: N_19  and  C_20
REMARK    9  A    between atoms: N_19  and  C_21
REMARK                            x       y       z     vdW  Elec       q    Type
REMARK                         _______ _______ _______ _____ _____    ______ ____
ROOT
ATOM      1  C   UNL     1       1.870   7.970  19.858  0.00  0.00    +0.000 A 
ATOM      2  C   UNL     1       1.037   8.571  20.809  0.00  0.00    +0.000 A 
ATOM      3  C   UNL     1       0.250   9.704  20.526  0.00  0.00    +0.000 A 
ATOM      4  C   UNL     1       0.273  10.315  19.283  0.00  0.00    +0.000 A 
ATOM      5  C   UNL     1       1.103   9.744  18.301  0.00  0.00    +0.000 A 
ATOM      6  C   UNL     1       1.903   8.588  18.592  0.00  0.00    +0.000 A 
ENDROOT
BRANCH   1  10
ATOM      7  N   UNL     1       3.636   4.692  19.694  0.00  0.00    +0.000 N 
ATOM      8  C   UNL     1       2.813   5.723  19.254  0.00  0.00    +0.000 C 
ATOM      9  O   UNL     1       2.371   5.668  18.113  0.00  0.00    +0.000 OA
ATOM     10  N   UNL     1       2.627   6.766  20.130  0.00  0.00    +0.000 N 
ATOM     11  H   UNL     1       3.721   4.506  20.684  0.00  0.00    +0.000 HD
ATOM     12  H   UNL     1       3.185   6.759  20.971  0.00  0.00    +0.000 HD
BRANCH   7  14
ATOM     13  C   UNL     1       4.233   2.258  19.508  0.00  0.00    +0.000 C 
ATOM     14  C   UNL     1       3.945   3.575  18.769  0.00  0.00    +0.000 C 
BRANCH  14  15
ATOM     15  C   UNL     1       5.106   3.842  17.812  0.00  0.00    +0.000 A 
ATOM     16  N   UNL     1       5.151   3.595  16.514  0.00  0.00    +0.000 NA
ATOM     17  C   UNL     1       6.269   4.212  15.954  0.00  0.00    +0.000 A 
ATOM     18  C   UNL     1       7.064   4.924  16.822  0.00  0.00    +0.000 A 
ATOM     19  S   UNL     1       6.451   4.773  18.409  0.00  0.00    +0.000 S 
ENDBRANCH  14  15
ENDBRANCH   7  14
ENDBRANCH   1  10
BRANCH   4  20
ATOM     20  O   UNL     1      -0.720  11.254  19.029  0.00  0.00    +0.000 OA
BRANCH  20  21
ATOM     21  C   UNL     1      -0.781  12.393  19.822  0.00  0.00    +0.000 A 
ATOM     22  N   UNL     1       0.398  13.027  19.923  0.00  0.00    +0.000 NA
ATOM     23  C   UNL     1       0.540  13.762  21.024  0.00  0.00    +0.000 A 
ATOM     24  N   UNL     1      -0.311  13.778  22.057  0.00  0.00    +0.000 NA
ATOM     25  C   UNL     1      -1.535  13.279  21.835  0.00  0.00    +0.000 A 
ATOM     26  C   UNL     1      -2.495  13.277  22.851  0.00  0.00    +0.000 A 
ATOM     27  C   UNL     1      -3.852  13.032  22.611  0.00  0.00    +0.000 A 
ATOM     28  C   UNL     1      -4.223  12.958  21.265  0.00  0.00    +0.000 A 
ATOM     29  C   UNL     1      -3.268  12.766  20.265  0.00  0.00    +0.000 A 
ATOM     30  C   UNL     1      -1.891  12.764  20.598  0.00  0.00    +0.000 A 
BRANCH  27  31
ATOM     31  N   UNL     1      -4.818  12.915  23.600  0.00  0.00    +0.000 N 
ATOM     32  C   UNL     1      -6.226  12.922  23.190  0.00  0.00    +0.000 C 
ATOM     33  C   UNL     1      -4.559  12.340  24.915  0.00  0.00    +0.000 C 
ENDBRANCH  27  31
ENDBRANCH  20  21
ENDBRANCH   4  20
TORSDOF 6
ENDMDL
