MODEL 1
REMARK VINA RESULT:      -5.7      0.000      0.000
REMARK  Name = 
REMARK  11 active torsions:
REMARK  status: ('A' for Active; 'I' for Inactive)
REMARK    1  A    between atoms: C_1  and  C_2
REMARK    2  A    between atoms: C_2  and  C_3
REMARK    3  A    between atoms: C_3  and  C_4
REMARK    4  A    between atoms: C_4  and  CA_5
REMARK    5  A    between atoms: CA_5  and  C_6
REMARK    6  A    between atoms: CA_5  and  N_8
REMARK    7  A    between atoms: C_9  and  O_11
REMARK    8  A    between atoms: O_11  and  C_12
REMARK    9  A    between atoms: C_12  and  C_13
REMARK   10  A    between atoms: C_12  and  C_14
REMARK   11  A    between atoms: C_12  and  C_15
REMARK                            x       y       z     vdW  Elec       q    Type
REMARK                         _______ _______ _______ _____ _____    ______ ____
ROOT
ATOM      1  N   UNL     1       4.054   4.173  18.432  0.00  0.00    +0.000 N 
ATOM      2  C   UNL     1       4.812   5.098  17.780  0.00  0.00    +0.000 C 
ATOM      3  O   UNL     1       4.691   5.349  16.590  0.00  0.00    +0.000 OA
ATOM      4  H   UNL     1       4.265   4.009  19.405  0.00  0.00    +0.000 HD
ENDROOT
BRANCH   1   5
ATOM      5  CA  UNL     1       3.006   3.425  17.746  0.00  0.00    +0.000 C 
BRANCH   5   6
ATOM      6  C   UNL     1       3.203   1.936  18.017  0.00  0.00    +0.000 C 
ATOM      7  O   UNL     1       3.933   1.487  18.898  0.00  0.00    +0.000 OA
ENDBRANCH   5   6
BRANCH   5   8
ATOM      8  C   UNL     1       1.604   3.898  18.137  0.00  0.00    +0.000 C 
BRANCH   8   9
ATOM      9  C   UNL     1       0.953   2.945  19.142  0.00  0.00    +0.000 C 
BRANCH   9  11
ATOM     10  C   UNL     1       2.011   3.121  21.406  0.00  0.00    +0.000 C 
ATOM     11  C   UNL     1       0.845   3.564  20.534  0.00  0.00    +0.000 C 
ENDBRANCH   9  11
ENDBRANCH   8   9
ENDBRANCH   5   8
ENDBRANCH   1   5
BRANCH   2  12
ATOM     12  O   UNL     1       5.695   5.667  18.633  0.00  0.00    +0.000 OA
BRANCH  12  13
ATOM     13  C   UNL     1       7.106   5.711  18.279  0.00  0.00    +0.000 C 
ATOM     14  C   UNL     1       7.473   4.568  17.323  0.00  0.00    +0.000 C 
ATOM     15  C   UNL     1       7.310   7.043  17.537  0.00  0.00    +0.000 C 
ATOM     16  C   UNL     1       7.999   5.724  19.527  0.00  0.00    +0.000 C 
ENDBRANCH  12  13
ENDBRANCH   2  12
TORSDOF 7
ENDMDL
MODEL 2
REMARK VINA RESULT:      -5.7      1.694      5.488
REMARK  Name = 
REMARK  11 active torsions:
REMARK  status: ('A' for Active; 'I' for Inactive)
REMARK    1  A    between atoms: C_1  and  C_2
REMARK    2  A    between atoms: C_2  and  C_3
REMARK    3  A    between atoms: C_3  and  C_4
REMARK    4  A    between atoms: C_4  and  CA_5
REMARK    5  A    between atoms: CA_5  and  C_6
REMARK    6  A    between atoms: CA_5  and  N_8
REMARK    7  A    between atoms: C_9  and  O_11
REMARK    8  A    between atoms: O_11  and  C_12
REMARK    9  A    between atoms: C_12  and  C_13
REMARK   10  A    between atoms: C_12  and  C_14
REMARK   11  A    between atoms: C_12  and  C_15
REMARK                            x       y       z     vdW  Elec       q    Type
REMARK                         _______ _______ _______ _____ _____    ______ ____
ROOT
ATOM      1  N   UNL     1       4.520   3.763  17.041  0.00  0.00    +0.000 N 
ATOM      2  C   UNL     1       4.467   3.506  18.377  0.00  0.00    +0.000 C 
ATOM      3  O   UNL     1       5.319   3.882  19.169  0.00  0.00    +0.000 OA
ATOM      4  H   UNL     1       3.790   3.367  16.467  0.00  0.00    +0.000 HD
ENDROOT
BRANCH   1   5
ATOM      5  CA  UNL     1       5.604   4.545  16.457  0.00  0.00    +0.000 C 
BRANCH   5   6
ATOM      6  C   UNL     1       6.136   3.814  15.228  0.00  0.00    +0.000 C 
ATOM      7  O   UNL     1       6.461   4.373  14.181  0.00  0.00    +0.000 OA
ENDBRANCH   5   6
BRANCH   5   8
ATOM      8  C   UNL     1       5.175   5.978  16.130  0.00  0.00    +0.000 C 
BRANCH   8   9
ATOM      9  C   UNL     1       5.650   6.961  17.202  0.00  0.00    +0.000 C 
BRANCH   9  11
ATOM     10  C   UNL     1       7.842   8.102  17.611  0.00  0.00    +0.000 C 
ATOM     11  C   UNL     1       7.123   6.763  17.552  0.00  0.00    +0.000 C 
ENDBRANCH   9  11
ENDBRANCH   8   9
ENDBRANCH   5   8
ENDBRANCH   1   5
BRANCH   2  12
ATOM     12  O   UNL     1       3.362   2.784  18.673  0.00  0.00    +0.000 OA
BRANCH  12  13
ATOM     13  C   UNL     1       2.236   3.433  19.328  0.00  0.00    +0.000 C 
ATOM     14  C   UNL     1       2.042   4.864  18.807  0.00  0.00    +0.000 C 
ATOM     15  C   UNL     1       0.996   2.608  18.946  0.00  0.00    +0.000 C 
ATOM     16  C   UNL     1       2.376   3.395  20.857  0.00  0.00    +0.000 C 
ENDBRANCH  12  13
ENDBRANCH   2  12
TORSDOF 7
ENDMDL
MODEL 3
REMARK VINA RESULT:      -5.7      1.883      5.450
REMARK  Name = 
REMARK  11 active torsions:
REMARK  status: ('A' for Active; 'I' for Inactive)
REMARK    1  A    between atoms: C_1  and  C_2
REMARK    2  A    between atoms: C_2  and  C_3
REMARK    3  A    between atoms: C_3  and  C_4
REMARK    4  A    between atoms: C_4  and  CA_5
REMARK    5  A    between atoms: CA_5  and  C_6
REMARK    6  A    between atoms: CA_5  and  N_8
REMARK    7  A    between atoms: C_9  and  O_11
REMARK    8  A    between atoms: O_11  and  C_12
REMARK    9  A    between atoms: C_12  and  C_13
REMARK   10  A    between atoms: C_12  and  C_14
REMARK   11  A    between atoms: C_12  and  C_15
REMARK                            x       y       z     vdW  Elec       q    Type
REMARK                         _______ _______ _______ _____ _____    ______ ____
ROOT
ATOM      1  N   UNL     1       4.934   4.853  18.620  0.00  0.00    +0.000 N 
ATOM      2  C   UNL     1       3.803   5.210  19.289  0.00  0.00    +0.000 C 
ATOM      3  O   UNL     1       3.403   6.362  19.365  0.00  0.00    +0.000 OA
ATOM      4  H   UNL     1       5.201   3.880  18.657  0.00  0.00    +0.000 HD
ENDROOT
BRANCH   1   5
ATOM      5  CA  UNL     1       5.744   5.836  17.910  0.00  0.00    +0.000 C 
BRANCH   5   6
ATOM      6  C   UNL     1       7.219   5.541  18.165  0.00  0.00    +0.000 C 
ATOM      7  O   UNL     1       7.673   4.413  18.351  0.00  0.00    +0.000 OA
ENDBRANCH   5   6
BRANCH   5   8
ATOM      8  C   UNL     1       5.420   5.885  16.415  0.00  0.00    +0.000 C 
BRANCH   8   9
ATOM      9  C   UNL     1       4.964   4.518  15.897  0.00  0.00    +0.000 C 
BRANCH   9  11
ATOM     10  C   UNL     1       6.973   4.876  14.444  0.00  0.00    +0.000 C 
ATOM     11  C   UNL     1       6.034   3.841  15.045  0.00  0.00    +0.000 C 
ENDBRANCH   9  11
ENDBRANCH   8   9
ENDBRANCH   5   8
ENDBRANCH   1   5
BRANCH   2  12
ATOM     12  O   UNL     1       3.221   4.121  19.844  0.00  0.00    +0.000 OA
BRANCH  12  13
ATOM     13  C   UNL     1       2.054   3.530  19.206  0.00  0.00    +0.000 C 
ATOM     14  C   UNL     1       2.234   2.018  19.014  0.00  0.00    +0.000 C 
ATOM     15  C   UNL     1       0.886   3.757  20.180  0.00  0.00    +0.000 C 
ATOM     16  C   UNL     1       1.714   4.239  17.887  0.00  0.00    +0.000 C 
ENDBRANCH  12  13
ENDBRANCH   2  12
TORSDOF 7
ENDMDL
MODEL 4
REMARK VINA RESULT:      -5.6      1.848      5.727
REMARK  Name = 
REMARK  11 active torsions:
REMARK  status: ('A' for Active; 'I' for Inactive)
REMARK    1  A    between atoms: C_1  and  C_2
REMARK    2  A    between atoms: C_2  and  C_3
REMARK    3  A    between atoms: C_3  and  C_4
REMARK    4  A    between atoms: C_4  and  CA_5
REMARK    5  A    between atoms: CA_5  and  C_6
REMARK    6  A    between atoms: CA_5  and  N_8
REMARK    7  A    between atoms: C_9  and  O_11
REMARK    8  A    between atoms: O_11  and  C_12
REMARK    9  A    between atoms: C_12  and  C_13
REMARK   10  A    between atoms: C_12  and  C_14
REMARK   11  A    between atoms: C_12  and  C_15
REMARK                            x       y       z     vdW  Elec       q    Type
REMARK                         _______ _______ _______ _____ _____    ______ ____
ROOT
ATOM      1  N   UNL     1       5.655   4.407  19.267  0.00  0.00    +0.000 N 
ATOM      2  C   UNL     1       4.334   4.276  18.966  0.00  0.00    +0.000 C 
ATOM      3  O   UNL     1       3.792   4.869  18.045  0.00  0.00    +0.000 OA
ATOM      4  H   UNL     1       5.993   3.908  20.077  0.00  0.00    +0.000 HD
ENDROOT
BRANCH   1   5
ATOM      5  CA  UNL     1       6.537   5.259  18.478  0.00  0.00    +0.000 C 
BRANCH   5   6
ATOM      6  C   UNL     1       7.638   5.805  19.382  0.00  0.00    +0.000 C 
ATOM      7  O   UNL     1       7.880   5.376  20.509  0.00  0.00    +0.000 OA
ENDBRANCH   5   6
BRANCH   5   8
ATOM      8  C   UNL     1       7.106   4.532  17.257  0.00  0.00    +0.000 C 
BRANCH   8   9
ATOM      9  C   UNL     1       6.994   5.389  15.994  0.00  0.00    +0.000 C 
BRANCH   9  11
ATOM     10  C   UNL     1       5.420   4.318  14.367  0.00  0.00    +0.000 C 
ATOM     11  C   UNL     1       6.880   4.539  14.731  0.00  0.00    +0.000 C 
ENDBRANCH   9  11
ENDBRANCH   8   9
ENDBRANCH   5   8
ENDBRANCH   1   5
BRANCH   2  12
ATOM     12  O   UNL     1       3.738   3.420  19.828  0.00  0.00    +0.000 OA
BRANCH  12  13
ATOM     13  C   UNL     1       2.361   3.657  20.236  0.00  0.00    +0.000 C 
ATOM     14  C   UNL     1       1.373   3.114  19.195  0.00  0.00    +0.000 C 
ATOM     15  C   UNL     1       2.169   2.865  21.541  0.00  0.00    +0.000 C 
ATOM     16  C   UNL     1       2.113   5.141  20.543  0.00  0.00    +0.000 C 
ENDBRANCH  12  13
ENDBRANCH   2  12
TORSDOF 7
ENDMDL
MODEL 5
REMARK VINA RESULT:      -5.5      1.815      5.450
REMARK  Name = 
REMARK  11 active torsions:
REMARK  status: ('A' for Active; 'I' for Inactive)
REMARK    1  A    between atoms: C_1  and  C_2
REMARK    2  A    between atoms: C_2  and  C_3
REMARK    3  A    between atoms: C_3  and  C_4
REMARK    4  A    between atoms: C_4  and  CA_5
REMARK    5  A    between atoms: CA_5  and  C_6
REMARK    6  A    between atoms: CA_5  and  N_8
REMARK    7  A    between atoms: C_9  and  O_11
REMARK    8  A    between atoms: O_11  and  C_12
REMARK    9  A    between atoms: C_12  and  C_13
REMARK   10  A    between atoms: C_12  and  C_14
REMARK   11  A    between atoms: C_12  and  C_15
REMARK                            x       y       z     vdW  Elec       q    Type
REMARK                         _______ _______ _______ _____ _____    ______ ____
ROOT
ATOM      1  N   UNL     1       5.245   4.822  18.967  0.00  0.00    +0.000 N 
ATOM      2  C   UNL     1       3.953   5.090  19.304  0.00  0.00    +0.000 C 
ATOM      3  O   UNL     1       3.464   6.209  19.255  0.00  0.00    +0.000 OA
ATOM      4  H   UNL     1       5.564   3.872  19.086  0.00  0.00    +0.000 HD
ENDROOT
BRANCH   1   5
ATOM      5  CA  UNL     1       6.142   5.869  18.489  0.00  0.00    +0.000 C 
BRANCH   5   6
ATOM      6  C   UNL     1       7.502   5.701  19.161  0.00  0.00    +0.000 C 
ATOM      7  O   UNL     1       7.653   5.386  20.340  0.00  0.00    +0.000 OA
ENDBRANCH   5   6
BRANCH   5   8
ATOM      8  C   UNL     1       6.255   5.885  16.963  0.00  0.00    +0.000 C 
BRANCH   8   9
ATOM      9  C   UNL     1       6.988   4.645  16.444  0.00  0.00    +0.000 C 
BRANCH   9  11
ATOM     10  C   UNL     1       5.496   4.498  14.437  0.00  0.00    +0.000 C 
ATOM     11  C   UNL     1       6.074   3.739  15.622  0.00  0.00    +0.000 C 
ENDBRANCH   9  11
ENDBRANCH   8   9
ENDBRANCH   5   8
ENDBRANCH   1   5
BRANCH   2  12
ATOM     12  O   UNL     1       3.325   3.957  19.694  0.00  0.00    +0.000 OA
BRANCH  12  13
ATOM     13  C   UNL     1       2.565   3.187  18.721  0.00  0.00    +0.000 C 
ATOM     14  C   UNL     1       3.433   2.099  18.074  0.00  0.00    +0.000 C 
ATOM     15  C   UNL     1       1.442   2.499  19.516  0.00  0.00    +0.000 C 
ATOM     16  C   UNL     1       1.911   4.097  17.671  0.00  0.00    +0.000 C 
ENDBRANCH  12  13
ENDBRANCH   2  12
TORSDOF 7
ENDMDL
MODEL 6
REMARK VINA RESULT:      -5.5      2.116      5.258
REMARK  Name = 
REMARK  11 active torsions:
REMARK  status: ('A' for Active; 'I' for Inactive)
REMARK    1  A    between atoms: C_1  and  C_2
REMARK    2  A    between atoms: C_2  and  C_3
REMARK    3  A    between atoms: C_3  and  C_4
REMARK    4  A    between atoms: C_4  and  CA_5
REMARK    5  A    between atoms: CA_5  and  C_6
REMARK    6  A    between atoms: CA_5  and  N_8
REMARK    7  A    between atoms: C_9  and  O_11
REMARK    8  A    between atoms: O_11  and  C_12
REMARK    9  A    between atoms: C_12  and  C_13
REMARK   10  A    between atoms: C_12  and  C_14
REMARK   11  A    between atoms: C_12  and  C_15
REMARK                            x       y       z     vdW  Elec       q    Type
REMARK                         _______ _______ _______ _____ _____    ______ ____
ROOT
ATOM      1  N   UNL     1       4.789   4.719  16.396  0.00  0.00    +0.000 N 
ATOM      2  C   UNL     1       3.915   4.035  17.185  0.00  0.00    +0.000 C 
ATOM      3  O   UNL     1       4.085   2.873  17.524  0.00  0.00    +0.000 OA
ATOM      4  H   UNL     1       4.532   5.660  16.135  0.00  0.00    +0.000 HD
ENDROOT
BRANCH   1   5
ATOM      5  CA  UNL     1       6.025   4.110  15.918  0.00  0.00    +0.000 C 
BRANCH   5   6
ATOM      6  C   UNL     1       5.958   3.981  14.399  0.00  0.00    +0.000 C 
ATOM      7  O   UNL     1       6.753   4.515  13.627  0.00  0.00    +0.000 OA
ENDBRANCH   5   6
BRANCH   5   8
ATOM      8  C   UNL     1       7.266   4.881  16.374  0.00  0.00    +0.000 C 
BRANCH   8   9
ATOM      9  C   UNL     1       7.498   4.726  17.879  0.00  0.00    +0.000 C 
BRANCH   9  11
ATOM     10  C   UNL     1       7.481   7.217  17.616  0.00  0.00    +0.000 C 
ATOM     11  C   UNL     1       7.798   6.062  18.554  0.00  0.00    +0.000 C 
ENDBRANCH   9  11
ENDBRANCH   8   9
ENDBRANCH   5   8
ENDBRANCH   1   5
BRANCH   2  12
ATOM     12  O   UNL     1       2.862   4.819  17.511  0.00  0.00    +0.000 OA
BRANCH  12  13
ATOM     13  C   UNL     1       2.879   5.553  18.768  0.00  0.00    +0.000 C 
ATOM     14  C   UNL     1       2.511   7.028  18.554  0.00  0.00    +0.000 C 
ATOM     15  C   UNL     1       1.792   4.908  19.644  0.00  0.00    +0.000 C 
ATOM     16  C   UNL     1       4.224   5.398  19.493  0.00  0.00    +0.000 C 
ENDBRANCH  12  13
ENDBRANCH   2  12
TORSDOF 7
ENDMDL
MODEL 7
REMARK VINA RESULT:      -5.5      2.094      5.627
REMARK  Name = 
REMARK  11 active torsions:
REMARK  status: ('A' for Active; 'I' for Inactive)
REMARK    1  A    between atoms: C_1  and  C_2
REMARK    2  A    between atoms: C_2  and  C_3
REMARK    3  A    between atoms: C_3  and  C_4
REMARK    4  A    between atoms: C_4  and  CA_5
REMARK    5  A    between atoms: CA_5  and  C_6
REMARK    6  A    between atoms: CA_5  and  N_8
REMARK    7  A    between atoms: C_9  and  O_11
REMARK    8  A    between atoms: O_11  and  C_12
REMARK    9  A    between atoms: C_12  and  C_13
REMARK   10  A    between atoms: C_12  and  C_14
REMARK   11  A    between atoms: C_12  and  C_15
REMARK                            x       y       z     vdW  Elec       q    Type
REMARK                         _______ _______ _______ _____ _____    ______ ____
ROOT
ATOM      1  N   UNL     1       4.989   4.594  18.331  0.00  0.00    +0.000 N 
ATOM      2  C   UNL     1       3.911   4.884  19.110  0.00  0.00    +0.000 C 
ATOM      3  O   UNL     1       3.553   6.024  19.364  0.00  0.00    +0.000 OA
ATOM      4  H   UNL     1       5.228   3.619  18.221  0.00  0.00    +0.000 HD
ENDROOT
BRANCH   1   5
ATOM      5  CA  UNL     1       5.788   5.644  17.710  0.00  0.00    +0.000 C 
BRANCH   5   6
ATOM      6  C   UNL     1       7.250   5.210  17.690  0.00  0.00    +0.000 C 
ATOM      7  O   UNL     1       7.743   4.412  18.487  0.00  0.00    +0.000 OA
ENDBRANCH   5   6
BRANCH   5   8
ATOM      8  C   UNL     1       5.280   6.011  16.314  0.00  0.00    +0.000 C 
BRANCH   8   9
ATOM      9  C   UNL     1       6.145   5.378  15.221  0.00  0.00    +0.000 C 
BRANCH   9  11
ATOM     10  C   UNL     1       6.209   3.768  13.303  0.00  0.00    +0.000 C 
ATOM     11  C   UNL     1       5.447   4.198  14.547  0.00  0.00    +0.000 C 
ENDBRANCH   9  11
ENDBRANCH   8   9
ENDBRANCH   5   8
ENDBRANCH   1   5
BRANCH   2  12
ATOM     12  O   UNL     1       3.329   3.744  19.549  0.00  0.00    +0.000 OA
BRANCH  12  13
ATOM     13  C   UNL     1       1.931   3.487  19.234  0.00  0.00    +0.000 C 
ATOM     14  C   UNL     1       1.003   4.080  20.303  0.00  0.00    +0.000 C 
ATOM     15  C   UNL     1       1.662   4.213  17.905  0.00  0.00    +0.000 C 
ATOM     16  C   UNL     1       1.671   1.990  19.015  0.00  0.00    +0.000 C 
ENDBRANCH  12  13
ENDBRANCH   2  12
TORSDOF 7
ENDMDL
MODEL 8
REMARK VINA RESULT:      -5.5      2.057      5.637
REMARK  Name = 
REMARK  11 active torsions:
REMARK  status: ('A' for Active; 'I' for Inactive)
REMARK    1  A    between atoms: C_1  and  C_2
REMARK    2  A    between atoms: C_2  and  C_3
REMARK    3  A    between atoms: C_3  and  C_4
REMARK    4  A    between atoms: C_4  and  CA_5
REMARK    5  A    between atoms: CA_5  and  C_6
REMARK    6  A    between atoms: CA_5  and  N_8
REMARK    7  A    between atoms: C_9  and  O_11
REMARK    8  A    between atoms: O_11  and  C_12
REMARK    9  A    between atoms: C_12  and  C_13
REMARK   10  A    between atoms: C_12  and  C_14
REMARK   11  A    between atoms: C_12  and  C_15
REMARK                            x       y       z     vdW  Elec       q    Type
REMARK                         _______ _______ _______ _____ _____    ______ ____
ROOT
ATOM      1  N   UNL     1       4.892   5.130  19.416  0.00  0.00    +0.000 N 
ATOM      2  C   UNL     1       3.552   5.363  19.342  0.00  0.00    +0.000 C 
ATOM      3  O   UNL     1       3.021   5.936  18.401  0.00  0.00    +0.000 OA
ATOM      4  H   UNL     1       5.236   4.690  20.257  0.00  0.00    +0.000 HD
ENDROOT
BRANCH   1   5
ATOM      5  CA  UNL     1       5.797   5.530  18.345  0.00  0.00    +0.000 C 
BRANCH   5   6
ATOM      6  C   UNL     1       7.207   5.669  18.913  0.00  0.00    +0.000 C 
ATOM      7  O   UNL     1       7.516   5.373  20.066  0.00  0.00    +0.000 OA
ENDBRANCH   5   6
BRANCH   5   8
ATOM      8  C   UNL     1       5.751   4.567  17.156  0.00  0.00    +0.000 C 
BRANCH   8   9
ATOM      9  C   UNL     1       5.789   5.321  15.825  0.00  0.00    +0.000 C 
BRANCH   9  11
ATOM     10  C   UNL     1       6.230   3.942  13.781  0.00  0.00    +0.000 C 
ATOM     11  C   UNL     1       6.862   4.776  14.885  0.00  0.00    +0.000 C 
ENDBRANCH   9  11
ENDBRANCH   8   9
ENDBRANCH   5   8
ENDBRANCH   1   5
BRANCH   2  12
ATOM     12  O   UNL     1       2.930   4.883  20.443  0.00  0.00    +0.000 OA
BRANCH  12  13
ATOM     13  C   UNL     1       2.300   3.571  20.394  0.00  0.00    +0.000 C 
ATOM     14  C   UNL     1       2.298   2.906  21.777  0.00  0.00    +0.000 C 
ATOM     15  C   UNL     1       0.841   3.823  19.978  0.00  0.00    +0.000 C 
ATOM     16  C   UNL     1       2.947   2.676  19.328  0.00  0.00    +0.000 C 
ENDBRANCH  12  13
ENDBRANCH   2  12
TORSDOF 7
ENDMDL
MODEL 9
REMARK VINA RESULT:      -5.5      1.121      1.310
REMARK  Name = 
REMARK  11 active torsions:
REMARK  status: ('A' for Active; 'I' for Inactive)
REMARK    1  A    between atoms: C_1  and  C_2
REMARK    2  A    between atoms: C_2  and  C_3
REMARK    3  A    between atoms: C_3  and  C_4
REMARK    4  A    between atoms: C_4  and  CA_5
REMARK    5  A    between atoms: CA_5  and  C_6
REMARK    6  A    between atoms: CA_5  and  N_8
REMARK    7  A    between atoms: C_9  and  O_11
REMARK    8  A    between atoms: O_11  and  C_12
REMARK    9  A    between atoms: C_12  and  C_13
REMARK   10  A    between atoms: C_12  and  C_14
REMARK   11  A    between atoms: C_12  and  C_15
REMARK                            x       y       z     vdW  Elec       q    Type
REMARK                         _______ _______ _______ _____ _____    ______ ____
ROOT
ATOM      1  N   UNL     1       3.868   4.550  18.405  0.00  0.00    +0.000 N 
ATOM      2  C   UNL     1       4.319   5.814  18.175  0.00  0.00    +0.000 C 
ATOM      3  O   UNL     1       3.608   6.716  17.756  0.00  0.00    +0.000 OA
ATOM      4  H   UNL     1       4.548   3.867  18.707  0.00  0.00    +0.000 HD
ENDROOT
BRANCH   1   5
ATOM      5  CA  UNL     1       2.472   4.186  18.190  0.00  0.00    +0.000 C 
BRANCH   5   6
ATOM      6  C   UNL     1       2.404   2.734  17.727  0.00  0.00    +0.000 C 
ATOM      7  O   UNL     1       3.339   1.939  17.812  0.00  0.00    +0.000 OA
ENDBRANCH   5   6
BRANCH   5   8
ATOM      8  C   UNL     1       1.610   4.433  19.430  0.00  0.00    +0.000 C 
BRANCH   8   9
ATOM      9  C   UNL     1       0.900   3.155  19.880  0.00  0.00    +0.000 C 
BRANCH   9  11
ATOM     10  C   UNL     1       2.740   2.692  21.515  0.00  0.00    +0.000 C 
ATOM     11  C   UNL     1       1.234   2.789  21.325  0.00  0.00    +0.000 C 
ENDBRANCH   9  11
ENDBRANCH   8   9
ENDBRANCH   5   8
ENDBRANCH   1   5
BRANCH   2  12
ATOM     12  O   UNL     1       5.637   5.903  18.467  0.00  0.00    +0.000 OA
BRANCH  12  13
ATOM     13  C   UNL     1       6.617   5.802  17.396  0.00  0.00    +0.000 C 
ATOM     14  C   UNL     1       5.931   5.710  16.025  0.00  0.00    +0.000 C 
ATOM     15  C   UNL     1       7.426   7.109  17.443  0.00  0.00    +0.000 C 
ATOM     16  C   UNL     1       7.588   4.636  17.629  0.00  0.00    +0.000 C 
ENDBRANCH  12  13
ENDBRANCH   2  12
TORSDOF 7
ENDMDL
