MODEL 1
REMARK VINA RESULT:      -8.7      0.000      0.000
REMARK  Name = 
REMARK  7 active torsions:
REMARK  status: ('A' for Active; 'I' for Inactive)
REMARK    1  A    between atoms: C_1  and  O_2
REMARK    2  A    between atoms: O_2  and  C_3
REMARK    3  A    between atoms: C_8  and  C_9
REMARK    4  A    between atoms: N_11  and  C_12
REMARK    5  A    between atoms: N_15  and  C_16
REMARK    6  A    between atoms: C_16  and  C_17
REMARK    7  A    between atoms: C_20  and  N_21
REMARK                            x       y       z     vdW  Elec       q    Type
REMARK                         _______ _______ _______ _____ _____    ______ ____
ROOT
ATOM      1  C   UNL     1       8.960  10.236  18.596  0.00  0.00    +0.000 C 
ATOM      2  O   UNL     1       9.229   9.727  19.681  0.00  0.00    +0.000 OA
ATOM      3  N   UNL     1       8.190   9.632  17.608  0.00  0.00    +0.000 N 
ATOM      4  H   UNL     1       8.222  10.055  16.688  0.00  0.00    +0.000 HD
ENDROOT
BRANCH   1  10
ATOM      5  C   UNL     1      10.187  16.523  17.409  0.00  0.00    +0.000 A 
ATOM      6  C   UNL     1       8.921  16.369  17.969  0.00  0.00    +0.000 A 
ATOM      7  C   UNL     1       8.465  15.100  18.330  0.00  0.00    +0.000 A 
ATOM      8  C   UNL     1       9.265  13.968  18.138  0.00  0.00    +0.000 A 
ATOM      9  C   UNL     1       8.793  12.692  18.474  0.00  0.00    +0.000 A 
ATOM     10  C   UNL     1       9.580  11.552  18.272  0.00  0.00    +0.000 A 
ATOM     11  C   UNL     1      10.860  11.681  17.727  0.00  0.00    +0.000 A 
ATOM     12  C   UNL     1      11.340  12.955  17.386  0.00  0.00    +0.000 A 
ATOM     13  C   UNL     1      10.555  14.103  17.580  0.00  0.00    +0.000 A 
ATOM     14  C   UNL     1      10.998  15.395  17.224  0.00  0.00    +0.000 A 
BRANCH   5  16
ATOM     15  C   UNL     1      12.026  18.023  17.524  0.00  0.00    +0.000 C 
ATOM     16  O   UNL     1      10.736  17.711  17.007  0.00  0.00    +0.000 OA
ENDBRANCH   5  16
ENDBRANCH   1  10
BRANCH   3  17
ATOM     17  C   UNL     1       7.623   8.338  17.726  0.00  0.00    +0.000 A 
ATOM     18  C   UNL     1       8.231   7.304  18.433  0.00  0.00    +0.000 A 
ATOM     19  C   UNL     1       7.717   6.015  18.370  0.00  0.00    +0.000 A 
ATOM     20  N   UNL     1       6.612   5.746  17.640  0.00  0.00    +0.000 N 
ATOM     21  C   UNL     1       5.934   6.755  17.044  0.00  0.00    +0.000 A 
ATOM     22  C   UNL     1       6.423   8.064  17.075  0.00  0.00    +0.000 A 
BRANCH  20  23
ATOM     23  C   UNL     1       6.211   4.328  17.416  0.00  0.00    +0.000 C 
BRANCH  23  24
ATOM     24  C   UNL     1       4.829   4.053  17.949  0.00  0.00    +0.000 A 
ATOM     25  C   UNL     1       4.557   4.186  19.321  0.00  0.00    +0.000 A 
ATOM     26  C   UNL     1       3.316   3.805  19.841  0.00  0.00    +0.000 A 
ATOM     27  C   UNL     1       2.333   3.298  18.985  0.00  0.00    +0.000 A 
ATOM     28  C   UNL     1       2.558   3.241  17.604  0.00  0.00    +0.000 A 
ATOM     29  C   UNL     1       3.802   3.619  17.092  0.00  0.00    +0.000 A 
BRANCH  27  30
ATOM     30  N   UNL     1       1.081   2.767  19.544  0.00  0.00    +0.000 N 
ATOM     31  O   UNL     1       0.997   2.683  20.776  0.00  0.00    +0.000 OA
ATOM     32  O   UNL     1       0.207   2.406  18.746  0.00  0.00    +0.000 OA
ENDBRANCH  27  30
ENDBRANCH  23  24
ENDBRANCH  20  23
ENDBRANCH   3  17
TORSDOF 6
ENDMDL
MODEL 2
REMARK VINA RESULT:      -8.6      7.190      9.547
REMARK  Name = 
REMARK  7 active torsions:
REMARK  status: ('A' for Active; 'I' for Inactive)
REMARK    1  A    between atoms: C_1  and  O_2
REMARK    2  A    between atoms: O_2  and  C_3
REMARK    3  A    between atoms: C_8  and  C_9
REMARK    4  A    between atoms: N_11  and  C_12
REMARK    5  A    between atoms: N_15  and  C_16
REMARK    6  A    between atoms: C_16  and  C_17
REMARK    7  A    between atoms: C_20  and  N_21
REMARK                            x       y       z     vdW  Elec       q    Type
REMARK                         _______ _______ _______ _____ _____    ______ ____
ROOT
ATOM      1  C   UNL     1       1.007   8.762  20.407  0.00  0.00    +0.000 C 
ATOM      2  O   UNL     1       1.330   9.121  19.277  0.00  0.00    +0.000 OA
ATOM      3  N   UNL     1       1.337   7.534  20.970  0.00  0.00    +0.000 N 
ATOM      4  H   UNL     1       0.834   7.273  21.811  0.00  0.00    +0.000 HD
ENDROOT
BRANCH   1  10
ATOM      5  C   UNL     1      -2.778  13.609  22.555  0.00  0.00    +0.000 A 
ATOM      6  C   UNL     1      -2.532  13.748  21.190  0.00  0.00    +0.000 A 
ATOM      7  C   UNL     1      -1.763  12.797  20.517  0.00  0.00    +0.000 A 
ATOM      8  C   UNL     1      -1.228  11.695  21.195  0.00  0.00    +0.000 A 
ATOM      9  C   UNL     1      -0.433  10.758  20.523  0.00  0.00    +0.000 A 
ATOM     10  C   UNL     1       0.119   9.660  21.196  0.00  0.00    +0.000 A 
ATOM     11  C   UNL     1      -0.126   9.490  22.560  0.00  0.00    +0.000 A 
ATOM     12  C   UNL     1      -0.921  10.424  23.241  0.00  0.00    +0.000 A 
ATOM     13  C   UNL     1      -1.473  11.531  22.576  0.00  0.00    +0.000 A 
ATOM     14  C   UNL     1      -2.254  12.503  23.238  0.00  0.00    +0.000 A 
BRANCH   5  16
ATOM     15  C   UNL     1      -3.432  14.298  24.732  0.00  0.00    +0.000 C 
ATOM     16  O   UNL     1      -3.504  14.480  23.321  0.00  0.00    +0.000 OA
ENDBRANCH   5  16
ENDBRANCH   1  10
BRANCH   3  17
ATOM     17  C   UNL     1       2.083   6.529  20.303  0.00  0.00    +0.000 A 
ATOM     18  C   UNL     1       2.060   5.190  20.679  0.00  0.00    +0.000 A 
ATOM     19  C   UNL     1       2.939   4.283  20.101  0.00  0.00    +0.000 A 
ATOM     20  N   UNL     1       3.817   4.681  19.154  0.00  0.00    +0.000 N 
ATOM     21  C   UNL     1       3.776   5.950  18.684  0.00  0.00    +0.000 A 
ATOM     22  C   UNL     1       2.912   6.894  19.246  0.00  0.00    +0.000 A 
BRANCH  20  23
ATOM     23  C   UNL     1       4.887   3.743  18.709  0.00  0.00    +0.000 C 
BRANCH  23  24
ATOM     24  C   UNL     1       5.487   4.169  17.395  0.00  0.00    +0.000 A 
ATOM     25  C   UNL     1       4.748   4.054  16.206  0.00  0.00    +0.000 A 
ATOM     26  C   UNL     1       5.342   4.322  14.969  0.00  0.00    +0.000 A 
ATOM     27  C   UNL     1       6.683   4.720  14.917  0.00  0.00    +0.000 A 
ATOM     28  C   UNL     1       7.407   4.924  16.097  0.00  0.00    +0.000 A 
ATOM     29  C   UNL     1       6.807   4.650  17.330  0.00  0.00    +0.000 A 
BRANCH  27  30
ATOM     30  N   UNL     1       7.350   4.868  13.616  0.00  0.00    +0.000 N 
ATOM     31  O   UNL     1       8.283   5.677  13.542  0.00  0.00    +0.000 OA
ATOM     32  O   UNL     1       6.912   4.200  12.670  0.00  0.00    +0.000 OA
ENDBRANCH  27  30
ENDBRANCH  23  24
ENDBRANCH  20  23
ENDBRANCH   3  17
TORSDOF 6
ENDMDL
MODEL 3
REMARK VINA RESULT:      -8.4      7.077      9.326
REMARK  Name = 
REMARK  7 active torsions:
REMARK  status: ('A' for Active; 'I' for Inactive)
REMARK    1  A    between atoms: C_1  and  O_2
REMARK    2  A    between atoms: O_2  and  C_3
REMARK    3  A    between atoms: C_8  and  C_9
REMARK    4  A    between atoms: N_11  and  C_12
REMARK    5  A    between atoms: N_15  and  C_16
REMARK    6  A    between atoms: C_16  and  C_17
REMARK    7  A    between atoms: C_20  and  N_21
REMARK                            x       y       z     vdW  Elec       q    Type
REMARK                         _______ _______ _______ _____ _____    ______ ____
ROOT
ATOM      1  C   UNL     1       1.884   8.478  18.940  0.00  0.00    +0.000 C 
ATOM      2  O   UNL     1       2.634   8.752  18.006  0.00  0.00    +0.000 OA
ATOM      3  N   UNL     1       1.779   7.222  19.527  0.00  0.00    +0.000 N 
ATOM      4  H   UNL     1       0.981   7.071  20.132  0.00  0.00    +0.000 HD
ENDROOT
BRANCH   1  10
ATOM      5  C   UNL     1      -2.192  12.235  22.361  0.00  0.00    +0.000 A 
ATOM      6  C   UNL     1      -1.575  11.301  23.190  0.00  0.00    +0.000 A 
ATOM      7  C   UNL     1      -0.637  10.410  22.666  0.00  0.00    +0.000 A 
ATOM      8  C   UNL     1      -0.302  10.439  21.307  0.00  0.00    +0.000 A 
ATOM      9  C   UNL     1       0.619   9.525  20.777  0.00  0.00    +0.000 A 
ATOM     10  C   UNL     1       0.949   9.536  19.416  0.00  0.00    +0.000 A 
ATOM     11  C   UNL     1       0.356  10.473  18.567  0.00  0.00    +0.000 A 
ATOM     12  C   UNL     1      -0.566  11.392  19.089  0.00  0.00    +0.000 A 
ATOM     13  C   UNL     1      -0.909  11.384  20.451  0.00  0.00    +0.000 A 
ATOM     14  C   UNL     1      -1.853  12.276  21.002  0.00  0.00    +0.000 A 
BRANCH   5  16
ATOM     15  C   UNL     1      -3.647  12.995  24.078  0.00  0.00    +0.000 C 
ATOM     16  O   UNL     1      -3.132  13.147  22.759  0.00  0.00    +0.000 OA
ENDBRANCH   5  16
ENDBRANCH   1  10
BRANCH   3  17
ATOM     17  C   UNL     1       2.523   6.088  19.111  0.00  0.00    +0.000 A 
ATOM     18  C   UNL     1       3.797   5.798  19.590  0.00  0.00    +0.000 A 
ATOM     19  C   UNL     1       4.544   4.774  19.021  0.00  0.00    +0.000 A 
ATOM     20  N   UNL     1       4.042   4.033  18.009  0.00  0.00    +0.000 N 
ATOM     21  C   UNL     1       2.761   4.215  17.609  0.00  0.00    +0.000 A 
ATOM     22  C   UNL     1       1.981   5.240  18.149  0.00  0.00    +0.000 A 
BRANCH  20  23
ATOM     23  C   UNL     1       4.937   3.091  17.279  0.00  0.00    +0.000 C 
BRANCH  23  24
ATOM     24  C   UNL     1       5.646   3.773  16.138  0.00  0.00    +0.000 A 
ATOM     25  C   UNL     1       5.173   3.631  14.822  0.00  0.00    +0.000 A 
ATOM     26  C   UNL     1       5.899   4.149  13.745  0.00  0.00    +0.000 A 
ATOM     27  C   UNL     1       7.101   4.826  13.982  0.00  0.00    +0.000 A 
ATOM     28  C   UNL     1       7.540   5.051  15.292  0.00  0.00    +0.000 A 
ATOM     29  C   UNL     1       6.811   4.526  16.363  0.00  0.00    +0.000 A 
BRANCH  27  30
ATOM     30  N   UNL     1       7.936   5.249  12.849  0.00  0.00    +0.000 N 
ATOM     31  O   UNL     1       8.880   6.013  13.089  0.00  0.00    +0.000 OA
ATOM     32  O   UNL     1       7.619   4.844  11.723  0.00  0.00    +0.000 OA
ENDBRANCH  27  30
ENDBRANCH  23  24
ENDBRANCH  20  23
ENDBRANCH   3  17
TORSDOF 6
ENDMDL
MODEL 4
REMARK VINA RESULT:      -8.4      1.627      2.439
REMARK  Name = 
REMARK  7 active torsions:
REMARK  status: ('A' for Active; 'I' for Inactive)
REMARK    1  A    between atoms: C_1  and  O_2
REMARK    2  A    between atoms: O_2  and  C_3
REMARK    3  A    between atoms: C_8  and  C_9
REMARK    4  A    between atoms: N_11  and  C_12
REMARK    5  A    between atoms: N_15  and  C_16
REMARK    6  A    between atoms: C_16  and  C_17
REMARK    7  A    between atoms: C_20  and  N_21
REMARK                            x       y       z     vdW  Elec       q    Type
REMARK                         _______ _______ _______ _____ _____    ______ ____
ROOT
ATOM      1  C   UNL     1       8.397   8.667  18.559  0.00  0.00    +0.000 C 
ATOM      2  O   UNL     1       8.754   7.664  19.173  0.00  0.00    +0.000 OA
ATOM      3  N   UNL     1       7.465   8.672  17.527  0.00  0.00    +0.000 N 
ATOM      4  H   UNL     1       7.419   9.513  16.963  0.00  0.00    +0.000 HD
ENDROOT
BRANCH   1  10
ATOM      5  C   UNL     1      11.616  14.327  18.347  0.00  0.00    +0.000 A 
ATOM      6  C   UNL     1      11.260  13.917  17.064  0.00  0.00    +0.000 A 
ATOM      7  C   UNL     1      10.535  12.739  16.880  0.00  0.00    +0.000 A 
ATOM      8  C   UNL     1      10.154  11.953  17.974  0.00  0.00    +0.000 A 
ATOM      9  C   UNL     1       9.451  10.756  17.785  0.00  0.00    +0.000 A 
ATOM     10  C   UNL     1       9.079   9.954  18.871  0.00  0.00    +0.000 A 
ATOM     11  C   UNL     1       9.410  10.350  20.170  0.00  0.00    +0.000 A 
ATOM     12  C   UNL     1      10.114  11.547  20.368  0.00  0.00    +0.000 A 
ATOM     13  C   UNL     1      10.497  12.354  19.284  0.00  0.00    +0.000 A 
ATOM     14  C   UNL     1      11.229  13.550  19.448  0.00  0.00    +0.000 A 
BRANCH   5  16
ATOM     15  C   UNL     1      11.585  16.646  18.859  0.00  0.00    +0.000 C 
ATOM     16  O   UNL     1      12.333  15.452  18.649  0.00  0.00    +0.000 OA
ENDBRANCH   5  16
ENDBRANCH   1  10
BRANCH   3  17
ATOM     17  C   UNL     1       6.812   7.510  17.043  0.00  0.00    +0.000 A 
ATOM     18  C   UNL     1       5.439   7.447  16.821  0.00  0.00    +0.000 A 
ATOM     19  C   UNL     1       4.833   6.236  16.512  0.00  0.00    +0.000 A 
ATOM     20  N   UNL     1       5.565   5.105  16.404  0.00  0.00    +0.000 N 
ATOM     21  C   UNL     1       6.915   5.162  16.495  0.00  0.00    +0.000 A 
ATOM     22  C   UNL     1       7.561   6.360  16.814  0.00  0.00    +0.000 A 
BRANCH  20  23
ATOM     23  C   UNL     1       4.869   3.792  16.287  0.00  0.00    +0.000 C 
BRANCH  23  24
ATOM     24  C   UNL     1       4.209   3.397  17.582  0.00  0.00    +0.000 A 
ATOM     25  C   UNL     1       3.009   2.666  17.573  0.00  0.00    +0.000 A 
ATOM     26  C   UNL     1       2.322   2.411  18.764  0.00  0.00    +0.000 A 
ATOM     27  C   UNL     1       2.842   2.877  19.977  0.00  0.00    +0.000 A 
ATOM     28  C   UNL     1       4.079   3.531  20.011  0.00  0.00    +0.000 A 
ATOM     29  C   UNL     1       4.758   3.786  18.816  0.00  0.00    +0.000 A 
BRANCH  27  30
ATOM     30  N   UNL     1       2.057   2.733  21.211  0.00  0.00    +0.000 N 
ATOM     31  O   UNL     1       2.659   2.377  22.232  0.00  0.00    +0.000 OA
ATOM     32  O   UNL     1       0.839   2.942  21.141  0.00  0.00    +0.000 OA
ENDBRANCH  27  30
ENDBRANCH  23  24
ENDBRANCH  20  23
ENDBRANCH   3  17
TORSDOF 6
ENDMDL
MODEL 5
REMARK VINA RESULT:      -8.3      8.349     11.399
REMARK  Name = 
REMARK  7 active torsions:
REMARK  status: ('A' for Active; 'I' for Inactive)
REMARK    1  A    between atoms: C_1  and  O_2
REMARK    2  A    between atoms: O_2  and  C_3
REMARK    3  A    between atoms: C_8  and  C_9
REMARK    4  A    between atoms: N_11  and  C_12
REMARK    5  A    between atoms: N_15  and  C_16
REMARK    6  A    between atoms: C_16  and  C_17
REMARK    7  A    between atoms: C_20  and  N_21
REMARK                            x       y       z     vdW  Elec       q    Type
REMARK                         _______ _______ _______ _____ _____    ______ ____
ROOT
ATOM      1  C   UNL     1       1.565   8.037  19.936  0.00  0.00    +0.000 C 
ATOM      2  O   UNL     1       1.214   7.837  21.097  0.00  0.00    +0.000 OA
ATOM      3  N   UNL     1       1.212   9.152  19.184  0.00  0.00    +0.000 N 
ATOM      4  H   UNL     1       1.380   9.095  18.186  0.00  0.00    +0.000 HD
ENDROOT
BRANCH   1  10
ATOM      5  C   UNL     1       5.359   4.549  15.951  0.00  0.00    +0.000 A 
ATOM      6  C   UNL     1       5.509   5.912  15.702  0.00  0.00    +0.000 A 
ATOM      7  C   UNL     1       4.806   6.845  16.465  0.00  0.00    +0.000 A 
ATOM      8  C   UNL     1       3.945   6.433  17.489  0.00  0.00    +0.000 A 
ATOM      9  C   UNL     1       3.219   7.370  18.235  0.00  0.00    +0.000 A 
ATOM     10  C   UNL     1       2.343   6.967  19.250  0.00  0.00    +0.000 A 
ATOM     11  C   UNL     1       2.187   5.607  19.531  0.00  0.00    +0.000 A 
ATOM     12  C   UNL     1       2.910   4.661  18.789  0.00  0.00    +0.000 A 
ATOM     13  C   UNL     1       3.785   5.057  17.764  0.00  0.00    +0.000 A 
ATOM     14  C   UNL     1       4.506   4.130  16.981  0.00  0.00    +0.000 A 
BRANCH   5  16
ATOM     15  C   UNL     1       6.176   3.755  13.867  0.00  0.00    +0.000 C 
ATOM     16  O   UNL     1       5.984   3.545  15.263  0.00  0.00    +0.000 OA
ENDBRANCH   5  16
ENDBRANCH   1  10
BRANCH   3  17
ATOM     17  C   UNL     1       0.387  10.202  19.662  0.00  0.00    +0.000 A 
ATOM     18  C   UNL     1      -0.814  10.559  19.055  0.00  0.00    +0.000 A 
ATOM     19  C   UNL     1      -1.492  11.701  19.461  0.00  0.00    +0.000 A 
ATOM     20  N   UNL     1      -1.009  12.473  20.460  0.00  0.00    +0.000 N 
ATOM     21  C   UNL     1       0.091  12.081  21.146  0.00  0.00    +0.000 A 
ATOM     22  C   UNL     1       0.806  10.943  20.762  0.00  0.00    +0.000 A 
BRANCH  20  23
ATOM     23  C   UNL     1      -1.636  13.798  20.729  0.00  0.00    +0.000 C 
BRANCH  23  24
ATOM     24  C   UNL     1      -2.870  13.665  21.583  0.00  0.00    +0.000 A 
ATOM     25  C   UNL     1      -2.759  13.587  22.982  0.00  0.00    +0.000 A 
ATOM     26  C   UNL     1      -3.884  13.330  23.771  0.00  0.00    +0.000 A 
ATOM     27  C   UNL     1      -5.133  13.163  23.163  0.00  0.00    +0.000 A 
ATOM     28  C   UNL     1      -5.274  13.325  21.780  0.00  0.00    +0.000 A 
ATOM     29  C   UNL     1      -4.144  13.577  20.997  0.00  0.00    +0.000 A 
BRANCH  27  30
ATOM     30  N   UNL     1      -6.291  12.757  23.973  0.00  0.00    +0.000 N 
ATOM     31  O   UNL     1      -7.207  13.578  24.111  0.00  0.00    +0.000 OA
ATOM     32  O   UNL     1      -6.258  11.634  24.494  0.00  0.00    +0.000 OA
ENDBRANCH  27  30
ENDBRANCH  23  24
ENDBRANCH  20  23
ENDBRANCH   3  17
TORSDOF 6
ENDMDL
MODEL 6
REMARK VINA RESULT:      -8.3      7.231      9.524
REMARK  Name = 
REMARK  7 active torsions:
REMARK  status: ('A' for Active; 'I' for Inactive)
REMARK    1  A    between atoms: C_1  and  O_2
REMARK    2  A    between atoms: O_2  and  C_3
REMARK    3  A    between atoms: C_8  and  C_9
REMARK    4  A    between atoms: N_11  and  C_12
REMARK    5  A    between atoms: N_15  and  C_16
REMARK    6  A    between atoms: C_16  and  C_17
REMARK    7  A    between atoms: C_20  and  N_21
REMARK                            x       y       z     vdW  Elec       q    Type
REMARK                         _______ _______ _______ _____ _____    ______ ____
ROOT
ATOM      1  C   UNL     1       1.413   8.550  20.123  0.00  0.00    +0.000 C 
ATOM      2  O   UNL     1       1.693   8.993  19.011  0.00  0.00    +0.000 OA
ATOM      3  N   UNL     1       1.822   7.312  20.606  0.00  0.00    +0.000 N 
ATOM      4  H   UNL     1       1.352   6.974  21.438  0.00  0.00    +0.000 HD
ENDROOT
BRANCH   1  10
ATOM      5  C   UNL     1      -2.697  12.971  22.571  0.00  0.00    +0.000 A 
ATOM      6  C   UNL     1      -2.557  13.142  21.195  0.00  0.00    +0.000 A 
ATOM      7  C   UNL     1      -1.742  12.279  20.462  0.00  0.00    +0.000 A 
ATOM      8  C   UNL     1      -1.053  11.234  21.090  0.00  0.00    +0.000 A 
ATOM      9  C   UNL     1      -0.213  10.388  20.357  0.00  0.00    +0.000 A 
ATOM     10  C   UNL     1       0.492   9.349  20.979  0.00  0.00    +0.000 A 
ATOM     11  C   UNL     1       0.357   9.147  22.354  0.00  0.00    +0.000 A 
ATOM     12  C   UNL     1      -0.483   9.990  23.097  0.00  0.00    +0.000 A 
ATOM     13  C   UNL     1      -1.188  11.039  22.482  0.00  0.00    +0.000 A 
ATOM     14  C   UNL     1      -2.019  11.921  23.205  0.00  0.00    +0.000 A 
BRANCH   5  16
ATOM     15  C   UNL     1      -2.835  14.938  23.897  0.00  0.00    +0.000 C 
ATOM     16  O   UNL     1      -3.457  13.759  23.393  0.00  0.00    +0.000 OA
ENDBRANCH   5  16
ENDBRANCH   1  10
BRANCH   3  17
ATOM     17  C   UNL     1       2.610   6.393  19.867  0.00  0.00    +0.000 A 
ATOM     18  C   UNL     1       3.272   6.735  18.691  0.00  0.00    +0.000 A 
ATOM     19  C   UNL     1       3.885   5.755  17.921  0.00  0.00    +0.000 A 
ATOM     20  N   UNL     1       3.865   4.460  18.308  0.00  0.00    +0.000 N 
ATOM     21  C   UNL     1       3.335   4.120  19.507  0.00  0.00    +0.000 A 
ATOM     22  C   UNL     1       2.701   5.075  20.306  0.00  0.00    +0.000 A 
BRANCH  20  23
ATOM     23  C   UNL     1       4.338   3.408  17.364  0.00  0.00    +0.000 C 
BRANCH  23  24
ATOM     24  C   UNL     1       5.193   3.990  16.268  0.00  0.00    +0.000 A 
ATOM     25  C   UNL     1       4.722   4.030  14.946  0.00  0.00    +0.000 A 
ATOM     26  C   UNL     1       5.558   4.445  13.904  0.00  0.00    +0.000 A 
ATOM     27  C   UNL     1       6.872   4.835  14.185  0.00  0.00    +0.000 A 
ATOM     28  C   UNL     1       7.328   4.884  15.507  0.00  0.00    +0.000 A 
ATOM     29  C   UNL     1       6.488   4.463  16.543  0.00  0.00    +0.000 A 
BRANCH  27  30
ATOM     30  N   UNL     1       7.795   5.138  13.082  0.00  0.00    +0.000 N 
ATOM     31  O   UNL     1       7.567   4.610  11.986  0.00  0.00    +0.000 OA
ATOM     32  O   UNL     1       8.761   5.871  13.330  0.00  0.00    +0.000 OA
ENDBRANCH  27  30
ENDBRANCH  23  24
ENDBRANCH  20  23
ENDBRANCH   3  17
TORSDOF 6
ENDMDL
MODEL 7
REMARK VINA RESULT:      -8.3      8.195     11.334
REMARK  Name = 
REMARK  7 active torsions:
REMARK  status: ('A' for Active; 'I' for Inactive)
REMARK    1  A    between atoms: C_1  and  O_2
REMARK    2  A    between atoms: O_2  and  C_3
REMARK    3  A    between atoms: C_8  and  C_9
REMARK    4  A    between atoms: N_11  and  C_12
REMARK    5  A    between atoms: N_15  and  C_16
REMARK    6  A    between atoms: C_16  and  C_17
REMARK    7  A    between atoms: C_20  and  N_21
REMARK                            x       y       z     vdW  Elec       q    Type
REMARK                         _______ _______ _______ _____ _____    ______ ____
ROOT
ATOM      1  C   UNL     1       1.746   7.659  19.824  0.00  0.00    +0.000 C 
ATOM      2  O   UNL     1       1.438   7.367  20.977  0.00  0.00    +0.000 OA
ATOM      3  N   UNL     1       1.353   8.822  19.171  0.00  0.00    +0.000 N 
ATOM      4  H   UNL     1       1.487   8.844  18.167  0.00  0.00    +0.000 HD
ENDROOT
BRANCH   1  10
ATOM      5  C   UNL     1       5.649   4.573  15.620  0.00  0.00    +0.000 A 
ATOM      6  C   UNL     1       5.902   5.943  15.607  0.00  0.00    +0.000 A 
ATOM      7  C   UNL     1       5.195   6.793  16.458  0.00  0.00    +0.000 A 
ATOM      8  C   UNL     1       4.225   6.289  17.333  0.00  0.00    +0.000 A 
ATOM      9  C   UNL     1       3.496   7.149  18.165  0.00  0.00    +0.000 A 
ATOM     10  C   UNL     1       2.513   6.656  19.033  0.00  0.00    +0.000 A 
ATOM     11  C   UNL     1       2.251   5.285  19.076  0.00  0.00    +0.000 A 
ATOM     12  C   UNL     1       2.976   4.417  18.246  0.00  0.00    +0.000 A 
ATOM     13  C   UNL     1       3.959   4.903  17.367  0.00  0.00    +0.000 A 
ATOM     14  C   UNL     1       4.687   4.060  16.500  0.00  0.00    +0.000 A 
BRANCH   5  16
ATOM     15  C   UNL     1       5.992   3.718  13.430  0.00  0.00    +0.000 C 
ATOM     16  O   UNL     1       6.269   3.646  14.826  0.00  0.00    +0.000 OA
ENDBRANCH   5  16
ENDBRANCH   1  10
BRANCH   3  17
ATOM     17  C   UNL     1       0.531   9.820  19.755  0.00  0.00    +0.000 A 
ATOM     18  C   UNL     1      -0.043  10.854  19.022  0.00  0.00    +0.000 A 
ATOM     19  C   UNL     1      -0.694  11.896  19.670  0.00  0.00    +0.000 A 
ATOM     20  N   UNL     1      -0.796  11.915  21.018  0.00  0.00    +0.000 N 
ATOM     21  C   UNL     1      -0.353  10.861  21.744  0.00  0.00    +0.000 A 
ATOM     22  C   UNL     1       0.315   9.799  21.129  0.00  0.00    +0.000 A 
BRANCH  20  23
ATOM     23  C   UNL     1      -1.305  13.141  21.695  0.00  0.00    +0.000 C 
BRANCH  23  24
ATOM     24  C   UNL     1      -2.693  12.936  22.244  0.00  0.00    +0.000 A 
ATOM     25  C   UNL     1      -3.796  12.870  21.377  0.00  0.00    +0.000 A 
ATOM     26  C   UNL     1      -5.098  12.814  21.885  0.00  0.00    +0.000 A 
ATOM     27  C   UNL     1      -5.302  12.811  23.269  0.00  0.00    +0.000 A 
ATOM     28  C   UNL     1      -4.210  12.787  24.145  0.00  0.00    +0.000 A 
ATOM     29  C   UNL     1      -2.912  12.849  23.630  0.00  0.00    +0.000 A 
BRANCH  27  30
ATOM     30  N   UNL     1      -6.668  12.892  23.806  0.00  0.00    +0.000 N 
ATOM     31  O   UNL     1      -7.123  14.019  24.040  0.00  0.00    +0.000 OA
ATOM     32  O   UNL     1      -7.260  11.827  24.024  0.00  0.00    +0.000 OA
ENDBRANCH  27  30
ENDBRANCH  23  24
ENDBRANCH  20  23
ENDBRANCH   3  17
TORSDOF 6
ENDMDL
MODEL 8
REMARK VINA RESULT:      -8.2      7.055      9.393
REMARK  Name = 
REMARK  7 active torsions:
REMARK  status: ('A' for Active; 'I' for Inactive)
REMARK    1  A    between atoms: C_1  and  O_2
REMARK    2  A    between atoms: O_2  and  C_3
REMARK    3  A    between atoms: C_8  and  C_9
REMARK    4  A    between atoms: N_11  and  C_12
REMARK    5  A    between atoms: N_15  and  C_16
REMARK    6  A    between atoms: C_16  and  C_17
REMARK    7  A    between atoms: C_20  and  N_21
REMARK                            x       y       z     vdW  Elec       q    Type
REMARK                         _______ _______ _______ _____ _____    ______ ____
ROOT
ATOM      1  C   UNL     1       1.430   9.297  18.671  0.00  0.00    +0.000 C 
ATOM      2  O   UNL     1       1.879   9.508  17.547  0.00  0.00    +0.000 OA
ATOM      3  N   UNL     1       1.742   8.190  19.453  0.00  0.00    +0.000 N 
ATOM      4  H   UNL     1       1.148   8.022  20.256  0.00  0.00    +0.000 HD
ENDROOT
BRANCH   1  10
ATOM      5  C   UNL     1      -2.750  12.672  22.357  0.00  0.00    +0.000 A 
ATOM      6  C   UNL     1      -1.901  11.907  23.154  0.00  0.00    +0.000 A 
ATOM      7  C   UNL     1      -0.904  11.126  22.568  0.00  0.00    +0.000 A 
ATOM      8  C   UNL     1      -0.740  11.096  21.178  0.00  0.00    +0.000 A 
ATOM      9  C   UNL     1       0.242  10.288  20.590  0.00  0.00    +0.000 A 
ATOM     10  C   UNL     1       0.404  10.240  19.199  0.00  0.00    +0.000 A 
ATOM     11  C   UNL     1      -0.424  11.009  18.379  0.00  0.00    +0.000 A 
ATOM     12  C   UNL     1      -1.410  11.821  18.959  0.00  0.00    +0.000 A 
ATOM     13  C   UNL     1      -1.584  11.870  20.352  0.00  0.00    +0.000 A 
ATOM     14  C   UNL     1      -2.585  12.655  20.965  0.00  0.00    +0.000 A 
BRANCH   5  16
ATOM     15  C   UNL     1      -3.797  14.804  22.332  0.00  0.00    +0.000 C 
ATOM     16  O   UNL     1      -3.767  13.464  22.816  0.00  0.00    +0.000 OA
ENDBRANCH   5  16
ENDBRANCH   1  10
BRANCH   3  17
ATOM     17  C   UNL     1       2.616   7.151  19.042  0.00  0.00    +0.000 A 
ATOM     18  C   UNL     1       3.307   7.173  17.834  0.00  0.00    +0.000 A 
ATOM     19  C   UNL     1       4.011   6.054  17.409  0.00  0.00    +0.000 A 
ATOM     20  N   UNL     1       4.053   4.935  18.165  0.00  0.00    +0.000 N 
ATOM     21  C   UNL     1       3.491   4.930  19.397  0.00  0.00    +0.000 A 
ATOM     22  C   UNL     1       2.766   6.033  19.857  0.00  0.00    +0.000 A 
BRANCH  20  23
ATOM     23  C   UNL     1       4.630   3.686  17.591  0.00  0.00    +0.000 C 
BRANCH  23  24
ATOM     24  C   UNL     1       5.539   3.979  16.426  0.00  0.00    +0.000 A 
ATOM     25  C   UNL     1       6.782   4.599  16.634  0.00  0.00    +0.000 A 
ATOM     26  C   UNL     1       7.571   4.994  15.549  0.00  0.00    +0.000 A 
ATOM     27  C   UNL     1       7.123   4.759  14.245  0.00  0.00    +0.000 A 
ATOM     28  C   UNL     1       5.928   4.064  14.022  0.00  0.00    +0.000 A 
ATOM     29  C   UNL     1       5.142   3.676  15.112  0.00  0.00    +0.000 A 
BRANCH  27  30
ATOM     30  N   UNL     1       7.880   5.294  13.105  0.00  0.00    +0.000 N 
ATOM     31  O   UNL     1       7.537   4.933  11.972  0.00  0.00    +0.000 OA
ATOM     32  O   UNL     1       8.834   6.043  13.354  0.00  0.00    +0.000 OA
ENDBRANCH  27  30
ENDBRANCH  23  24
ENDBRANCH  20  23
ENDBRANCH   3  17
TORSDOF 6
ENDMDL
MODEL 9
REMARK VINA RESULT:      -8.2      8.911     12.231
REMARK  Name = 
REMARK  7 active torsions:
REMARK  status: ('A' for Active; 'I' for Inactive)
REMARK    1  A    between atoms: C_1  and  O_2
REMARK    2  A    between atoms: O_2  and  C_3
REMARK    3  A    between atoms: C_8  and  C_9
REMARK    4  A    between atoms: N_11  and  C_12
REMARK    5  A    between atoms: N_15  and  C_16
REMARK    6  A    between atoms: C_16  and  C_17
REMARK    7  A    between atoms: C_20  and  N_21
REMARK                            x       y       z     vdW  Elec       q    Type
REMARK                         _______ _______ _______ _____ _____    ______ ____
ROOT
ATOM      1  C   UNL     1       1.297   9.691  19.103  0.00  0.00    +0.000 C 
ATOM      2  O   UNL     1       1.594  10.573  18.301  0.00  0.00    +0.000 OA
ATOM      3  N   UNL     1       0.502   9.879  20.228  0.00  0.00    +0.000 N 
ATOM      4  H   UNL     1       0.511   9.137  20.918  0.00  0.00    +0.000 HD
ENDROOT
BRANCH   1  10
ATOM      5  C   UNL     1       3.425   3.569  19.764  0.00  0.00    +0.000 A 
ATOM      6  C   UNL     1       2.542   3.894  20.792  0.00  0.00    +0.000 A 
ATOM      7  C   UNL     1       1.942   5.154  20.827  0.00  0.00    +0.000 A 
ATOM      8  C   UNL     1       2.214   6.106  19.839  0.00  0.00    +0.000 A 
ATOM      9  C   UNL     1       1.632   7.380  19.893  0.00  0.00    +0.000 A 
ATOM     10  C   UNL     1       1.910   8.345  18.916  0.00  0.00    +0.000 A 
ATOM     11  C   UNL     1       2.780   8.039  17.867  0.00  0.00    +0.000 A 
ATOM     12  C   UNL     1       3.366   6.766  17.805  0.00  0.00    +0.000 A 
ATOM     13  C   UNL     1       3.099   5.794  18.784  0.00  0.00    +0.000 A 
ATOM     14  C   UNL     1       3.694   4.514  18.765  0.00  0.00    +0.000 A 
BRANCH   5  16
ATOM     15  C   UNL     1       3.630   1.515  18.588  0.00  0.00    +0.000 C 
ATOM     16  O   UNL     1       4.080   2.375  19.632  0.00  0.00    +0.000 OA
ENDBRANCH   5  16
ENDBRANCH   1  10
BRANCH   3  17
ATOM     17  C   UNL     1      -0.063  11.126  20.599  0.00  0.00    +0.000 A 
ATOM     18  C   UNL     1       0.691  12.180  21.105  0.00  0.00    +0.000 A 
ATOM     19  C   UNL     1       0.064  13.312  21.612  0.00  0.00    +0.000 A 
ATOM     20  N   UNL     1      -1.284  13.416  21.605  0.00  0.00    +0.000 N 
ATOM     21  C   UNL     1      -2.033  12.459  21.008  0.00  0.00    +0.000 A 
ATOM     22  C   UNL     1      -1.440  11.302  20.496  0.00  0.00    +0.000 A 
BRANCH  20  23
ATOM     23  C   UNL     1      -1.934  14.535  22.345  0.00  0.00    +0.000 C 
BRANCH  23  24
ATOM     24  C   UNL     1      -3.279  14.132  22.890  0.00  0.00    +0.000 A 
ATOM     25  C   UNL     1      -3.367  13.280  24.003  0.00  0.00    +0.000 A 
ATOM     26  C   UNL     1      -4.607  12.796  24.432  0.00  0.00    +0.000 A 
ATOM     27  C   UNL     1      -5.771  13.174  23.753  0.00  0.00    +0.000 A 
ATOM     28  C   UNL     1      -5.708  14.090  22.697  0.00  0.00    +0.000 A 
ATOM     29  C   UNL     1      -4.464  14.566  22.271  0.00  0.00    +0.000 A 
BRANCH  27  30
ATOM     30  N   UNL     1      -7.057  12.560  24.112  0.00  0.00    +0.000 N 
ATOM     31  O   UNL     1      -7.213  11.362  23.841  0.00  0.00    +0.000 OA
ATOM     32  O   UNL     1      -7.914  13.289  24.627  0.00  0.00    +0.000 OA
ENDBRANCH  27  30
ENDBRANCH  23  24
ENDBRANCH  20  23
ENDBRANCH   3  17
TORSDOF 6
ENDMDL
