MODEL 1
REMARK VINA RESULT:      -7.1      0.000      0.000
REMARK  Name = 
REMARK  8 active torsions:
REMARK  status: ('A' for Active; 'I' for Inactive)
REMARK    1  A    between atoms: C_1  and  O_2
REMARK    2  A    between atoms: O_2  and  C_3
REMARK    3  A    between atoms: C_5  and  O_6
REMARK    4  A    between atoms: C_9  and  C_10
REMARK    5  A    between atoms: C_10  and  C_11
REMARK    6  A    between atoms: C_16  and  O_17
REMARK    7  A    between atoms: C_19  and  C_20
REMARK    8  A    between atoms: C_23  and  O_24
REMARK                            x       y       z     vdW  Elec       q    Type
REMARK                         _______ _______ _______ _____ _____    ______ ____
ROOT
ATOM      1  C   UNL     1      -1.617  11.991  22.460  0.00  0.00    +0.000 A 
ATOM      2  C   UNL     1      -2.283  11.848  23.678  0.00  0.00    +0.000 A 
ATOM      3  C   UNL     1      -3.567  12.367  23.849  0.00  0.00    +0.000 A 
ATOM      4  C   UNL     1      -4.214  13.022  22.795  0.00  0.00    +0.000 A 
ATOM      5  C   UNL     1      -3.574  13.118  21.551  0.00  0.00    +0.000 A 
ATOM      6  C   UNL     1      -2.255  12.642  21.379  0.00  0.00    +0.000 A 
ATOM      7  O   UNL     1      -4.181  13.672  20.448  0.00  0.00    +0.000 OA
ATOM      8  C   UNL     1      -5.621  13.685  20.485  0.00  0.00    +0.000 C 
ATOM      9  C   UNL     1      -6.094  14.376  21.750  0.00  0.00    +0.000 C 
ATOM     10  C   UNL     1      -5.547  13.662  22.953  0.00  0.00    +0.000 C 
ATOM     11  O   UNL     1      -6.174  13.671  24.007  0.00  0.00    +0.000 OA
ENDROOT
BRANCH   8  12
ATOM     12  C   UNL     1      -6.210  12.316  20.143  0.00  0.00    +0.000 A 
ATOM     13  C   UNL     1      -5.839  11.575  19.008  0.00  0.00    +0.000 A 
ATOM     14  C   UNL     1      -6.407  10.321  18.748  0.00  0.00    +0.000 A 
ATOM     15  C   UNL     1      -7.340   9.794  19.630  0.00  0.00    +0.000 A 
ATOM     16  C   UNL     1      -7.712  10.496  20.767  0.00  0.00    +0.000 A 
ATOM     17  C   UNL     1      -7.154  11.752  21.022  0.00  0.00    +0.000 A 
BRANCH  15  18
ATOM     18  O   UNL     1      -7.915   8.577  19.410  0.00  0.00    +0.000 OA
ATOM     19  H   UNL     1      -7.543   8.202  18.598  0.00  0.00    +0.000 HD
ENDBRANCH  15  18
ENDBRANCH   8  12
BRANCH   1  21
ATOM     20  C   UNL     1      -0.057  10.176  22.523  0.00  0.00    +0.000 C 
ATOM     21  O   UNL     1      -0.346  11.535  22.222  0.00  0.00    +0.000 OA
ENDBRANCH   1  21
BRANCH   3  22
ATOM     22  O   UNL     1      -4.177  12.220  25.062  0.00  0.00    +0.000 OA
ATOM     23  H   UNL     1      -3.521  12.205  25.778  0.00  0.00    +0.000 HD
ENDBRANCH   3  22
BRANCH   6  24
ATOM     24  C   UNL     1      -1.525  12.820  20.054  0.00  0.00    +0.000 C 
BRANCH  24  25
ATOM     25  C   UNL     1      -1.600  11.682  19.045  0.00  0.00    +0.000 A 
ATOM     26  C   UNL     1      -2.747  11.412  18.280  0.00  0.00    +0.000 A 
ATOM     27  C   UNL     1      -2.735  10.439  17.274  0.00  0.00    +0.000 A 
ATOM     28  C   UNL     1      -1.579   9.710  17.019  0.00  0.00    +0.000 A 
ATOM     29  C   UNL     1      -0.432   9.948  17.771  0.00  0.00    +0.000 A 
ATOM     30  C   UNL     1      -0.446  10.931  18.764  0.00  0.00    +0.000 A 
BRANCH  30  31
ATOM     31  O   UNL     1       0.699  11.191  19.469  0.00  0.00    +0.000 OA
ATOM     32  H   UNL     1       1.412  11.383  18.840  0.00  0.00    +0.000 HD
ENDBRANCH  30  31
ENDBRANCH  24  25
ENDBRANCH   6  24
TORSDOF 7
ENDMDL
MODEL 2
REMARK VINA RESULT:      -7.1      1.046      1.415
REMARK  Name = 
REMARK  8 active torsions:
REMARK  status: ('A' for Active; 'I' for Inactive)
REMARK    1  A    between atoms: C_1  and  O_2
REMARK    2  A    between atoms: O_2  and  C_3
REMARK    3  A    between atoms: C_5  and  O_6
REMARK    4  A    between atoms: C_9  and  C_10
REMARK    5  A    between atoms: C_10  and  C_11
REMARK    6  A    between atoms: C_16  and  O_17
REMARK    7  A    between atoms: C_19  and  C_20
REMARK    8  A    between atoms: C_23  and  O_24
REMARK                            x       y       z     vdW  Elec       q    Type
REMARK                         _______ _______ _______ _____ _____    ______ ____
ROOT
ATOM      1  C   UNL     1      -2.192  12.570  22.240  0.00  0.00    +0.000 A 
ATOM      2  C   UNL     1      -2.675  12.427  23.542  0.00  0.00    +0.000 A 
ATOM      3  C   UNL     1      -4.015  12.684  23.833  0.00  0.00    +0.000 A 
ATOM      4  C   UNL     1      -4.901  13.070  22.820  0.00  0.00    +0.000 A 
ATOM      5  C   UNL     1      -4.435  13.158  21.500  0.00  0.00    +0.000 A 
ATOM      6  C   UNL     1      -3.071  12.950  21.200  0.00  0.00    +0.000 A 
ATOM      7  O   UNL     1      -5.265  13.449  20.442  0.00  0.00    +0.000 OA
ATOM      8  C   UNL     1      -6.660  13.167  20.664  0.00  0.00    +0.000 C 
ATOM      9  C   UNL     1      -7.134  13.880  21.916  0.00  0.00    +0.000 C 
ATOM     10  C   UNL     1      -6.316  13.433  23.094  0.00  0.00    +0.000 C 
ATOM     11  O   UNL     1      -6.812  13.428  24.216  0.00  0.00    +0.000 OA
ENDROOT
BRANCH   8  12
ATOM     12  C   UNL     1      -6.968  11.676  20.518  0.00  0.00    +0.000 A 
ATOM     13  C   UNL     1      -7.652  10.928  21.490  0.00  0.00    +0.000 A 
ATOM     14  C   UNL     1      -7.915   9.565  21.299  0.00  0.00    +0.000 A 
ATOM     15  C   UNL     1      -7.506   8.945  20.126  0.00  0.00    +0.000 A 
ATOM     16  C   UNL     1      -6.844   9.664  19.142  0.00  0.00    +0.000 A 
ATOM     17  C   UNL     1      -6.572  11.021  19.336  0.00  0.00    +0.000 A 
BRANCH  15  18
ATOM     18  O   UNL     1      -7.742   7.621  19.904  0.00  0.00    +0.000 OA
ATOM     19  H   UNL     1      -7.026   7.108  20.306  0.00  0.00    +0.000 HD
ENDBRANCH  15  18
ENDBRANCH   8  12
BRANCH   1  21
ATOM     20  C   UNL     1       0.041  13.421  22.094  0.00  0.00    +0.000 C 
ATOM     21  O   UNL     1      -0.886  12.364  21.879  0.00  0.00    +0.000 OA
ENDBRANCH   1  21
BRANCH   3  22
ATOM     22  O   UNL     1      -4.443  12.549  25.123  0.00  0.00    +0.000 OA
ATOM     23  H   UNL     1      -5.184  13.151  25.305  0.00  0.00    +0.000 HD
ENDBRANCH   3  22
BRANCH   6  24
ATOM     24  C   UNL     1      -2.545  13.128  19.781  0.00  0.00    +0.000 C 
BRANCH  24  25
ATOM     25  C   UNL     1      -2.541  11.909  18.869  0.00  0.00    +0.000 A 
ATOM     26  C   UNL     1      -3.665  11.500  18.132  0.00  0.00    +0.000 A 
ATOM     27  C   UNL     1      -3.586  10.451  17.209  0.00  0.00    +0.000 A 
ATOM     28  C   UNL     1      -2.382   9.784  17.010  0.00  0.00    +0.000 A 
ATOM     29  C   UNL     1      -1.256  10.159  17.737  0.00  0.00    +0.000 A 
ATOM     30  C   UNL     1      -1.339  11.217  18.647  0.00  0.00    +0.000 A 
BRANCH  30  31
ATOM     31  O   UNL     1      -0.216  11.610  19.325  0.00  0.00    +0.000 OA
ATOM     32  H   UNL     1      -0.314  11.359  20.257  0.00  0.00    +0.000 HD
ENDBRANCH  30  31
ENDBRANCH  24  25
ENDBRANCH   6  24
TORSDOF 7
ENDMDL
MODEL 3
REMARK VINA RESULT:      -7.0      2.298      6.473
REMARK  Name = 
REMARK  8 active torsions:
REMARK  status: ('A' for Active; 'I' for Inactive)
REMARK    1  A    between atoms: C_1  and  O_2
REMARK    2  A    between atoms: O_2  and  C_3
REMARK    3  A    between atoms: C_5  and  O_6
REMARK    4  A    between atoms: C_9  and  C_10
REMARK    5  A    between atoms: C_10  and  C_11
REMARK    6  A    between atoms: C_16  and  O_17
REMARK    7  A    between atoms: C_19  and  C_20
REMARK    8  A    between atoms: C_23  and  O_24
REMARK                            x       y       z     vdW  Elec       q    Type
REMARK                         _______ _______ _______ _____ _____    ______ ____
ROOT
ATOM      1  C   UNL     1      -2.615  12.325  22.586  0.00  0.00    +0.000 A 
ATOM      2  C   UNL     1      -1.656  11.599  23.294  0.00  0.00    +0.000 A 
ATOM      3  C   UNL     1      -0.672  10.877  22.617  0.00  0.00    +0.000 A 
ATOM      4  C   UNL     1      -0.619  10.887  21.219  0.00  0.00    +0.000 A 
ATOM      5  C   UNL     1      -1.543  11.662  20.503  0.00  0.00    +0.000 A 
ATOM      6  C   UNL     1      -2.575  12.356  21.173  0.00  0.00    +0.000 A 
ATOM      7  O   UNL     1      -1.500  11.787  19.134  0.00  0.00    +0.000 OA
ATOM      8  C   UNL     1      -0.218  11.517  18.537  0.00  0.00    +0.000 C 
ATOM      9  C   UNL     1       0.263  10.140  18.955  0.00  0.00    +0.000 C 
ATOM     10  C   UNL     1       0.359  10.071  20.452  0.00  0.00    +0.000 C 
ATOM     11  O   UNL     1       1.183   9.329  20.977  0.00  0.00    +0.000 OA
ENDROOT
BRANCH   8  12
ATOM     12  C   UNL     1       0.741  12.698  18.691  0.00  0.00    +0.000 A 
ATOM     13  C   UNL     1       2.136  12.584  18.572  0.00  0.00    +0.000 A 
ATOM     14  C   UNL     1       2.967  13.703  18.716  0.00  0.00    +0.000 A 
ATOM     15  C   UNL     1       2.405  14.947  18.966  0.00  0.00    +0.000 A 
ATOM     16  C   UNL     1       1.030  15.092  19.072  0.00  0.00    +0.000 A 
ATOM     17  C   UNL     1       0.201  13.974  18.938  0.00  0.00    +0.000 A 
BRANCH  15  18
ATOM     18  O   UNL     1       3.180  16.059  19.112  0.00  0.00    +0.000 OA
ATOM     19  H   UNL     1       2.708  16.694  19.671  0.00  0.00    +0.000 HD
ENDBRANCH  15  18
ENDBRANCH   8  12
BRANCH   1  21
ATOM     20  C   UNL     1      -4.174  12.536  24.391  0.00  0.00    +0.000 C 
ATOM     21  O   UNL     1      -3.629  13.034  23.175  0.00  0.00    +0.000 OA
ENDBRANCH   1  21
BRANCH   3  22
ATOM     22  O   UNL     1       0.238  10.166  23.347  0.00  0.00    +0.000 OA
ATOM     23  H   UNL     1      -0.106   9.977  24.236  0.00  0.00    +0.000 HD
ENDBRANCH   3  22
BRANCH   6  24
ATOM     24  C   UNL     1      -3.632  13.130  20.394  0.00  0.00    +0.000 C 
BRANCH  24  25
ATOM     25  C   UNL     1      -4.837  12.356  19.877  0.00  0.00    +0.000 A 
ATOM     26  C   UNL     1      -5.982  12.115  20.655  0.00  0.00    +0.000 A 
ATOM     27  C   UNL     1      -7.119  11.511  20.105  0.00  0.00    +0.000 A 
ATOM     28  C   UNL     1      -7.131  11.129  18.767  0.00  0.00    +0.000 A 
ATOM     29  C   UNL     1      -6.004  11.344  17.978  0.00  0.00    +0.000 A 
ATOM     30  C   UNL     1      -4.878  11.960  18.530  0.00  0.00    +0.000 A 
BRANCH  30  31
ATOM     31  O   UNL     1      -3.791  12.210  17.736  0.00  0.00    +0.000 OA
ATOM     32  H   UNL     1      -3.165  12.760  18.233  0.00  0.00    +0.000 HD
ENDBRANCH  30  31
ENDBRANCH  24  25
ENDBRANCH   6  24
TORSDOF 7
ENDMDL
MODEL 4
REMARK VINA RESULT:      -7.0      2.275      6.443
REMARK  Name = 
REMARK  8 active torsions:
REMARK  status: ('A' for Active; 'I' for Inactive)
REMARK    1  A    between atoms: C_1  and  O_2
REMARK    2  A    between atoms: O_2  and  C_3
REMARK    3  A    between atoms: C_5  and  O_6
REMARK    4  A    between atoms: C_9  and  C_10
REMARK    5  A    between atoms: C_10  and  C_11
REMARK    6  A    between atoms: C_16  and  O_17
REMARK    7  A    between atoms: C_19  and  C_20
REMARK    8  A    between atoms: C_23  and  O_24
REMARK                            x       y       z     vdW  Elec       q    Type
REMARK                         _______ _______ _______ _____ _____    ______ ____
ROOT
ATOM      1  C   UNL     1      -2.762  12.362  22.620  0.00  0.00    +0.000 A 
ATOM      2  C   UNL     1      -1.749  11.644  23.254  0.00  0.00    +0.000 A 
ATOM      3  C   UNL     1      -0.768  10.991  22.506  0.00  0.00    +0.000 A 
ATOM      4  C   UNL     1      -0.774  11.064  21.109  0.00  0.00    +0.000 A 
ATOM      5  C   UNL     1      -1.756  11.834  20.467  0.00  0.00    +0.000 A 
ATOM      6  C   UNL     1      -2.784  12.457  21.209  0.00  0.00    +0.000 A 
ATOM      7  O   UNL     1      -1.775  12.020  19.104  0.00  0.00    +0.000 OA
ATOM      8  C   UNL     1      -0.511  11.827  18.444  0.00  0.00    +0.000 C 
ATOM      9  C   UNL     1       0.038  10.452  18.779  0.00  0.00    +0.000 C 
ATOM     10  C   UNL     1       0.200  10.322  20.266  0.00  0.00    +0.000 C 
ATOM     11  O   UNL     1       1.072   9.590  20.724  0.00  0.00    +0.000 OA
ENDROOT
BRANCH   8  12
ATOM     12  C   UNL     1       0.410  13.036  18.613  0.00  0.00    +0.000 A 
ATOM     13  C   UNL     1       1.812  12.953  18.578  0.00  0.00    +0.000 A 
ATOM     14  C   UNL     1       2.606  14.098  18.731  0.00  0.00    +0.000 A 
ATOM     15  C   UNL     1       2.001  15.335  18.905  0.00  0.00    +0.000 A 
ATOM     16  C   UNL     1       0.619  15.448  18.927  0.00  0.00    +0.000 A 
ATOM     17  C   UNL     1      -0.174  14.306  18.785  0.00  0.00    +0.000 A 
BRANCH  15  18
ATOM     18  O   UNL     1       2.740  16.470  19.058  0.00  0.00    +0.000 OA
ATOM     19  H   UNL     1       2.996  16.792  18.181  0.00  0.00    +0.000 HD
ENDBRANCH  15  18
ENDBRANCH   8  12
BRANCH   1  21
ATOM     20  C   UNL     1      -4.115  12.553  24.586  0.00  0.00    +0.000 C 
ATOM     21  O   UNL     1      -3.777  13.005  23.281  0.00  0.00    +0.000 OA
ENDBRANCH   1  21
BRANCH   3  22
ATOM     22  O   UNL     1       0.198  10.284  23.165  0.00  0.00    +0.000 OA
ATOM     23  H   UNL     1      -0.060   9.352  23.257  0.00  0.00    +0.000 HD
ENDBRANCH   3  22
BRANCH   6  24
ATOM     24  C   UNL     1      -3.901  13.223  20.510  0.00  0.00    +0.000 C 
BRANCH  24  25
ATOM     25  C   UNL     1      -4.981  12.412  19.807  0.00  0.00    +0.000 A 
ATOM     26  C   UNL     1      -4.891  12.025  18.459  0.00  0.00    +0.000 A 
ATOM     27  C   UNL     1      -5.842  11.174  17.883  0.00  0.00    +0.000 A 
ATOM     28  C   UNL     1      -6.906  10.700  18.642  0.00  0.00    +0.000 A 
ATOM     29  C   UNL     1      -7.027  11.078  19.976  0.00  0.00    +0.000 A 
ATOM     30  C   UNL     1      -6.066  11.917  20.548  0.00  0.00    +0.000 A 
BRANCH  30  31
ATOM     31  O   UNL     1      -6.166  12.248  21.873  0.00  0.00    +0.000 OA
ATOM     32  H   UNL     1      -5.546  11.697  22.377  0.00  0.00    +0.000 HD
ENDBRANCH  30  31
ENDBRANCH  24  25
ENDBRANCH   6  24
TORSDOF 7
ENDMDL
MODEL 5
REMARK VINA RESULT:      -6.9      2.421      3.641
REMARK  Name = 
REMARK  8 active torsions:
REMARK  status: ('A' for Active; 'I' for Inactive)
REMARK    1  A    between atoms: C_1  and  O_2
REMARK    2  A    between atoms: O_2  and  C_3
REMARK    3  A    between atoms: C_5  and  O_6
REMARK    4  A    between atoms: C_9  and  C_10
REMARK    5  A    between atoms: C_10  and  C_11
REMARK    6  A    between atoms: C_16  and  O_17
REMARK    7  A    between atoms: C_19  and  C_20
REMARK    8  A    between atoms: C_23  and  O_24
REMARK                            x       y       z     vdW  Elec       q    Type
REMARK                         _______ _______ _______ _____ _____    ______ ____
ROOT
ATOM      1  C   UNL     1       0.376  10.934  20.173  0.00  0.00    +0.000 A 
ATOM      2  C   UNL     1       0.097  10.268  21.366  0.00  0.00    +0.000 A 
ATOM      3  C   UNL     1      -0.904  10.733  22.220  0.00  0.00    +0.000 A 
ATOM      4  C   UNL     1      -1.657  11.863  21.883  0.00  0.00    +0.000 A 
ATOM      5  C   UNL     1      -1.421  12.503  20.657  0.00  0.00    +0.000 A 
ATOM      6  C   UNL     1      -0.378  12.074  19.808  0.00  0.00    +0.000 A 
ATOM      7  O   UNL     1      -2.177  13.567  20.221  0.00  0.00    +0.000 OA
ATOM      8  C   UNL     1      -3.487  13.667  20.810  0.00  0.00    +0.000 C 
ATOM      9  C   UNL     1      -3.369  13.690  22.322  0.00  0.00    +0.000 C 
ATOM     10  C   UNL     1      -2.678  12.443  22.795  0.00  0.00    +0.000 C 
ATOM     11  O   UNL     1      -2.934  11.986  23.904  0.00  0.00    +0.000 OA
ENDROOT
BRANCH   8  12
ATOM     12  C   UNL     1      -4.472  12.685  20.174  0.00  0.00    +0.000 A 
ATOM     13  C   UNL     1      -4.242  12.043  18.946  0.00  0.00    +0.000 A 
ATOM     14  C   UNL     1      -5.178  11.146  18.415  0.00  0.00    +0.000 A 
ATOM     15  C   UNL     1      -6.344  10.874  19.117  0.00  0.00    +0.000 A 
ATOM     16  C   UNL     1      -6.589  11.481  20.340  0.00  0.00    +0.000 A 
ATOM     17  C   UNL     1      -5.661  12.384  20.865  0.00  0.00    +0.000 A 
BRANCH  15  18
ATOM     18  O   UNL     1      -7.278  10.007  18.632  0.00  0.00    +0.000 OA
ATOM     19  H   UNL     1      -7.870   9.755  19.356  0.00  0.00    +0.000 HD
ENDBRANCH  15  18
ENDBRANCH   8  12
BRANCH   1  21
ATOM     20  C   UNL     1       1.297   9.251  18.741  0.00  0.00    +0.000 C 
ATOM     21  O   UNL     1       1.361  10.558  19.296  0.00  0.00    +0.000 OA
ENDBRANCH   1  21
BRANCH   3  22
ATOM     22  O   UNL     1      -1.136  10.061  23.387  0.00  0.00    +0.000 OA
ATOM     23  H   UNL     1      -1.455  10.667  24.076  0.00  0.00    +0.000 HD
ENDBRANCH   3  22
BRANCH   6  24
ATOM     24  C   UNL     1      -0.062  12.818  18.516  0.00  0.00    +0.000 C 
BRANCH  24  25
ATOM     25  C   UNL     1       1.010  13.898  18.566  0.00  0.00    +0.000 A 
ATOM     26  C   UNL     1       0.823  15.132  19.211  0.00  0.00    +0.000 A 
ATOM     27  C   UNL     1       1.874  16.047  19.345  0.00  0.00    +0.000 A 
ATOM     28  C   UNL     1       3.131  15.750  18.829  0.00  0.00    +0.000 A 
ATOM     29  C   UNL     1       3.340  14.540  18.173  0.00  0.00    +0.000 A 
ATOM     30  C   UNL     1       2.290  13.625  18.055  0.00  0.00    +0.000 A 
BRANCH  30  31
ATOM     31  O   UNL     1       2.515  12.418  17.449  0.00  0.00    +0.000 OA
ATOM     32  H   UNL     1       3.432  12.398  17.131  0.00  0.00    +0.000 HD
ENDBRANCH  30  31
ENDBRANCH  24  25
ENDBRANCH   6  24
TORSDOF 7
ENDMDL
MODEL 6
REMARK VINA RESULT:      -6.8      2.507      6.176
REMARK  Name = 
REMARK  8 active torsions:
REMARK  status: ('A' for Active; 'I' for Inactive)
REMARK    1  A    between atoms: C_1  and  O_2
REMARK    2  A    between atoms: O_2  and  C_3
REMARK    3  A    between atoms: C_5  and  O_6
REMARK    4  A    between atoms: C_9  and  C_10
REMARK    5  A    between atoms: C_10  and  C_11
REMARK    6  A    between atoms: C_16  and  O_17
REMARK    7  A    between atoms: C_19  and  C_20
REMARK    8  A    between atoms: C_23  and  O_24
REMARK                            x       y       z     vdW  Elec       q    Type
REMARK                         _______ _______ _______ _____ _____    ______ ____
ROOT
ATOM      1  C   UNL     1       1.058  14.594  20.249  0.00  0.00    +0.000 A 
ATOM      2  C   UNL     1       1.831  14.439  19.097  0.00  0.00    +0.000 A 
ATOM      3  C   UNL     1       1.976  13.184  18.504  0.00  0.00    +0.000 A 
ATOM      4  C   UNL     1       1.331  12.065  19.044  0.00  0.00    +0.000 A 
ATOM      5  C   UNL     1       0.506  12.225  20.167  0.00  0.00    +0.000 A 
ATOM      6  C   UNL     1       0.391  13.479  20.806  0.00  0.00    +0.000 A 
ATOM      7  O   UNL     1      -0.225  11.188  20.700  0.00  0.00    +0.000 OA
ATOM      8  C   UNL     1      -0.495  10.102  19.795  0.00  0.00    +0.000 C 
ATOM      9  C   UNL     1       0.806   9.584  19.213  0.00  0.00    +0.000 C 
ATOM     10  C   UNL     1       1.519  10.695  18.497  0.00  0.00    +0.000 C 
ATOM     11  O   UNL     1       2.249  10.440  17.545  0.00  0.00    +0.000 OA
ENDROOT
BRANCH   8  12
ATOM     12  C   UNL     1      -1.638  10.435  18.834  0.00  0.00    +0.000 A 
ATOM     13  C   UNL     1      -2.607  11.418  19.094  0.00  0.00    +0.000 A 
ATOM     14  C   UNL     1      -3.628  11.686  18.173  0.00  0.00    +0.000 A 
ATOM     15  C   UNL     1      -3.677  10.981  16.978  0.00  0.00    +0.000 A 
ATOM     16  C   UNL     1      -2.724  10.016  16.688  0.00  0.00    +0.000 A 
ATOM     17  C   UNL     1      -1.711   9.741  17.611  0.00  0.00    +0.000 A 
BRANCH  15  18
ATOM     18  O   UNL     1      -4.655  11.213  16.058  0.00  0.00    +0.000 OA
ATOM     19  H   UNL     1      -4.303  11.019  15.176  0.00  0.00    +0.000 HD
ENDBRANCH  15  18
ENDBRANCH   8  12
BRANCH   1  21
ATOM     20  C   UNL     1       0.972  16.985  20.145  0.00  0.00    +0.000 C 
ATOM     21  O   UNL     1       0.891  15.786  20.906  0.00  0.00    +0.000 OA
ENDBRANCH   1  21
BRANCH   3  22
ATOM     22  O   UNL     1       2.755  13.072  17.388  0.00  0.00    +0.000 OA
ATOM     23  H   UNL     1       2.517  13.749  16.733  0.00  0.00    +0.000 HD
ENDBRANCH   3  22
BRANCH   6  24
ATOM     24  C   UNL     1      -0.437  13.638  22.076  0.00  0.00    +0.000 C 
BRANCH  24  25
ATOM     25  C   UNL     1      -1.949  13.733  21.927  0.00  0.00    +0.000 A 
ATOM     26  C   UNL     1      -2.582  14.739  21.178  0.00  0.00    +0.000 A 
ATOM     27  C   UNL     1      -3.965  14.719  20.960  0.00  0.00    +0.000 A 
ATOM     28  C   UNL     1      -4.743  13.697  21.494  0.00  0.00    +0.000 A 
ATOM     29  C   UNL     1      -4.143  12.696  22.251  0.00  0.00    +0.000 A 
ATOM     30  C   UNL     1      -2.760  12.714  22.453  0.00  0.00    +0.000 A 
BRANCH  30  31
ATOM     31  O   UNL     1      -2.170  11.700  23.161  0.00  0.00    +0.000 OA
ATOM     32  H   UNL     1      -2.088  10.926  22.581  0.00  0.00    +0.000 HD
ENDBRANCH  30  31
ENDBRANCH  24  25
ENDBRANCH   6  24
TORSDOF 7
ENDMDL
MODEL 7
REMARK VINA RESULT:      -6.8      1.037      1.169
REMARK  Name = 
REMARK  8 active torsions:
REMARK  status: ('A' for Active; 'I' for Inactive)
REMARK    1  A    between atoms: C_1  and  O_2
REMARK    2  A    between atoms: O_2  and  C_3
REMARK    3  A    between atoms: C_5  and  O_6
REMARK    4  A    between atoms: C_9  and  C_10
REMARK    5  A    between atoms: C_10  and  C_11
REMARK    6  A    between atoms: C_16  and  O_17
REMARK    7  A    between atoms: C_19  and  C_20
REMARK    8  A    between atoms: C_23  and  O_24
REMARK                            x       y       z     vdW  Elec       q    Type
REMARK                         _______ _______ _______ _____ _____    ______ ____
ROOT
ATOM      1  C   UNL     1      -1.473  11.742  22.930  0.00  0.00    +0.000 A 
ATOM      2  C   UNL     1      -2.362  11.758  24.006  0.00  0.00    +0.000 A 
ATOM      3  C   UNL     1      -3.559  12.471  23.926  0.00  0.00    +0.000 A 
ATOM      4  C   UNL     1      -3.896  13.165  22.758  0.00  0.00    +0.000 A 
ATOM      5  C   UNL     1      -3.034  13.105  21.652  0.00  0.00    +0.000 A 
ATOM      6  C   UNL     1      -1.797  12.429  21.737  0.00  0.00    +0.000 A 
ATOM      7  O   UNL     1      -3.338  13.691  20.445  0.00  0.00    +0.000 OA
ATOM      8  C   UNL     1      -4.741  13.921  20.214  0.00  0.00    +0.000 C 
ATOM      9  C   UNL     1      -5.321  14.735  21.356  0.00  0.00    +0.000 C 
ATOM     10  C   UNL     1      -5.119  14.004  22.653  0.00  0.00    +0.000 C 
ATOM     11  O   UNL     1      -5.917  14.157  23.571  0.00  0.00    +0.000 OA
ENDROOT
BRANCH   8  12
ATOM     12  C   UNL     1      -5.464  12.641  19.794  0.00  0.00    +0.000 A 
ATOM     13  C   UNL     1      -5.001  11.786  18.780  0.00  0.00    +0.000 A 
ATOM     14  C   UNL     1      -5.702  10.621  18.443  0.00  0.00    +0.000 A 
ATOM     15  C   UNL     1      -6.865  10.297  19.127  0.00  0.00    +0.000 A 
ATOM     16  C   UNL     1      -7.336  11.113  20.144  0.00  0.00    +0.000 A 
ATOM     17  C   UNL     1      -6.643  12.281  20.475  0.00  0.00    +0.000 A 
BRANCH  15  18
ATOM     18  O   UNL     1      -7.574   9.172  18.826  0.00  0.00    +0.000 OA
ATOM     19  H   UNL     1      -8.345   9.127  19.412  0.00  0.00    +0.000 HD
ENDBRANCH  15  18
ENDBRANCH   8  12
BRANCH   1  21
ATOM     20  C   UNL     1      -0.273   9.678  23.104  0.00  0.00    +0.000 C 
ATOM     21  O   UNL     1      -0.267  11.090  22.941  0.00  0.00    +0.000 OA
ENDBRANCH   1  21
BRANCH   3  22
ATOM     22  O   UNL     1      -4.394  12.475  25.006  0.00  0.00    +0.000 OA
ATOM     23  H   UNL     1      -5.298  12.712  24.742  0.00  0.00    +0.000 HD
ENDBRANCH   3  22
BRANCH   6  24
ATOM     24  C   UNL     1      -0.820  12.433  20.567  0.00  0.00    +0.000 C 
BRANCH  24  25
ATOM     25  C   UNL     1      -1.200  11.639  19.325  0.00  0.00    +0.000 A 
ATOM     26  C   UNL     1      -1.512  10.270  19.359  0.00  0.00    +0.000 A 
ATOM     27  C   UNL     1      -1.980   9.604  18.220  0.00  0.00    +0.000 A 
ATOM     28  C   UNL     1      -2.137  10.292  17.022  0.00  0.00    +0.000 A 
ATOM     29  C   UNL     1      -1.822  11.647  16.957  0.00  0.00    +0.000 A 
ATOM     30  C   UNL     1      -1.369  12.308  18.102  0.00  0.00    +0.000 A 
BRANCH  30  31
ATOM     31  O   UNL     1      -1.105  13.651  18.042  0.00  0.00    +0.000 OA
ATOM     32  H   UNL     1      -1.069  13.999  18.948  0.00  0.00    +0.000 HD
ENDBRANCH  30  31
ENDBRANCH  24  25
ENDBRANCH   6  24
TORSDOF 7
ENDMDL
MODEL 8
REMARK VINA RESULT:      -6.7      1.049      1.475
REMARK  Name = 
REMARK  8 active torsions:
REMARK  status: ('A' for Active; 'I' for Inactive)
REMARK    1  A    between atoms: C_1  and  O_2
REMARK    2  A    between atoms: O_2  and  C_3
REMARK    3  A    between atoms: C_5  and  O_6
REMARK    4  A    between atoms: C_9  and  C_10
REMARK    5  A    between atoms: C_10  and  C_11
REMARK    6  A    between atoms: C_16  and  O_17
REMARK    7  A    between atoms: C_19  and  C_20
REMARK    8  A    between atoms: C_23  and  O_24
REMARK                            x       y       z     vdW  Elec       q    Type
REMARK                         _______ _______ _______ _____ _____    ______ ____
ROOT
ATOM      1  C   UNL     1      -1.182  11.519  22.337  0.00  0.00    +0.000 A 
ATOM      2  C   UNL     1      -1.882  11.575  23.542  0.00  0.00    +0.000 A 
ATOM      3  C   UNL     1      -3.065  12.309  23.641  0.00  0.00    +0.000 A 
ATOM      4  C   UNL     1      -3.579  12.983  22.527  0.00  0.00    +0.000 A 
ATOM      5  C   UNL     1      -2.911  12.881  21.297  0.00  0.00    +0.000 A 
ATOM      6  C   UNL     1      -1.686  12.184  21.196  0.00  0.00    +0.000 A 
ATOM      7  O   UNL     1      -3.400  13.446  20.142  0.00  0.00    +0.000 OA
ATOM      8  C   UNL     1      -4.818  13.696  20.138  0.00  0.00    +0.000 C 
ATOM      9  C   UNL     1      -5.192  14.546  21.338  0.00  0.00    +0.000 C 
ATOM     10  C   UNL     1      -4.790  13.842  22.602  0.00  0.00    +0.000 C 
ATOM     11  O   UNL     1      -5.424  14.031  23.634  0.00  0.00    +0.000 OA
ENDROOT
BRANCH   8  12
ATOM     12  C   UNL     1      -5.620  12.421  19.874  0.00  0.00    +0.000 A 
ATOM     13  C   UNL     1      -6.573  11.907  20.768  0.00  0.00    +0.000 A 
ATOM     14  C   UNL     1      -7.285  10.738  20.470  0.00  0.00    +0.000 A 
ATOM     15  C   UNL     1      -7.057  10.083  19.268  0.00  0.00    +0.000 A 
ATOM     16  C   UNL     1      -6.133  10.577  18.359  0.00  0.00    +0.000 A 
ATOM     17  C   UNL     1      -5.416  11.738  18.660  0.00  0.00    +0.000 A 
BRANCH  15  18
ATOM     18  O   UNL     1      -7.729   8.942  18.943  0.00  0.00    +0.000 OA
ATOM     19  H   UNL     1      -8.448   9.170  18.335  0.00  0.00    +0.000 HD
ENDBRANCH  15  18
ENDBRANCH   8  12
BRANCH   1  21
ATOM     20  C   UNL     1       0.221   9.677  22.947  0.00  0.00    +0.000 C 
ATOM     21  O   UNL     1       0.000  10.845  22.167  0.00  0.00    +0.000 OA
ENDBRANCH   1  21
BRANCH   3  22
ATOM     22  O   UNL     1      -3.712  12.353  24.843  0.00  0.00    +0.000 OA
ATOM     23  H   UNL     1      -4.436  13.000  24.822  0.00  0.00    +0.000 HD
ENDBRANCH   3  22
BRANCH   6  24
ATOM     24  C   UNL     1      -0.915  12.144  19.882  0.00  0.00    +0.000 C 
BRANCH  24  25
ATOM     25  C   UNL     1      -1.511  11.338  18.736  0.00  0.00    +0.000 A 
ATOM     26  C   UNL     1      -2.108  10.079  18.916  0.00  0.00    +0.000 A 
ATOM     27  C   UNL     1      -2.757   9.426  17.861  0.00  0.00    +0.000 A 
ATOM     28  C   UNL     1      -2.814  10.016  16.603  0.00  0.00    +0.000 A 
ATOM     29  C   UNL     1      -2.219  11.257  16.394  0.00  0.00    +0.000 A 
ATOM     30  C   UNL     1      -1.585  11.909  17.455  0.00  0.00    +0.000 A 
BRANCH  30  31
ATOM     31  O   UNL     1      -1.041  13.149  17.253  0.00  0.00    +0.000 OA
ATOM     32  H   UNL     1      -1.743  13.813  17.346  0.00  0.00    +0.000 HD
ENDBRANCH  30  31
ENDBRANCH  24  25
ENDBRANCH   6  24
TORSDOF 7
ENDMDL
MODEL 9
REMARK VINA RESULT:      -6.7      2.408      3.687
REMARK  Name = 
REMARK  8 active torsions:
REMARK  status: ('A' for Active; 'I' for Inactive)
REMARK    1  A    between atoms: C_1  and  O_2
REMARK    2  A    between atoms: O_2  and  C_3
REMARK    3  A    between atoms: C_5  and  O_6
REMARK    4  A    between atoms: C_9  and  C_10
REMARK    5  A    between atoms: C_10  and  C_11
REMARK    6  A    between atoms: C_16  and  O_17
REMARK    7  A    between atoms: C_19  and  C_20
REMARK    8  A    between atoms: C_23  and  O_24
REMARK                            x       y       z     vdW  Elec       q    Type
REMARK                         _______ _______ _______ _____ _____    ______ ____
ROOT
ATOM      1  C   UNL     1       0.185  11.204  20.226  0.00  0.00    +0.000 A 
ATOM      2  C   UNL     1      -0.046  10.502  21.410  0.00  0.00    +0.000 A 
ATOM      3  C   UNL     1      -1.067  10.892  22.278  0.00  0.00    +0.000 A 
ATOM      4  C   UNL     1      -1.887  11.982  21.965  0.00  0.00    +0.000 A 
ATOM      5  C   UNL     1      -1.698  12.656  20.749  0.00  0.00    +0.000 A 
ATOM      6  C   UNL     1      -0.638  12.303  19.886  0.00  0.00    +0.000 A 
ATOM      7  O   UNL     1      -2.518  13.681  20.337  0.00  0.00    +0.000 OA
ATOM      8  C   UNL     1      -3.828  13.694  20.936  0.00  0.00    +0.000 C 
ATOM      9  C   UNL     1      -3.700  13.698  22.448  0.00  0.00    +0.000 C 
ATOM     10  C   UNL     1      -2.933  12.486  22.894  0.00  0.00    +0.000 C 
ATOM     11  O   UNL     1      -3.153  11.995  23.997  0.00  0.00    +0.000 OA
ENDROOT
BRANCH   8  12
ATOM     12  C   UNL     1      -4.758  12.667  20.290  0.00  0.00    +0.000 A 
ATOM     13  C   UNL     1      -4.506  12.070  19.043  0.00  0.00    +0.000 A 
ATOM     14  C   UNL     1      -5.391  11.128  18.502  0.00  0.00    +0.000 A 
ATOM     15  C   UNL     1      -6.527  10.766  19.213  0.00  0.00    +0.000 A 
ATOM     16  C   UNL     1      -6.792  11.327  20.453  0.00  0.00    +0.000 A 
ATOM     17  C   UNL     1      -5.915  12.274  20.989  0.00  0.00    +0.000 A 
BRANCH  15  18
ATOM     18  O   UNL     1      -7.411   9.854  18.719  0.00  0.00    +0.000 OA
ATOM     19  H   UNL     1      -7.556  10.041  17.779  0.00  0.00    +0.000 HD
ENDBRANCH  15  18
ENDBRANCH   8  12
BRANCH   1  21
ATOM     20  C   UNL     1       1.109   9.661  18.646  0.00  0.00    +0.000 C 
ATOM     21  O   UNL     1       1.183  10.902  19.337  0.00  0.00    +0.000 OA
ENDBRANCH   1  21
BRANCH   3  22
ATOM     22  O   UNL     1      -1.249  10.188  23.434  0.00  0.00    +0.000 OA
ATOM     23  H   UNL     1      -1.175  10.771  24.208  0.00  0.00    +0.000 HD
ENDBRANCH   3  22
BRANCH   6  24
ATOM     24  C   UNL     1      -0.376  13.088  18.606  0.00  0.00    +0.000 C 
BRANCH  24  25
ATOM     25  C   UNL     1       0.643  14.217  18.664  0.00  0.00    +0.000 A 
ATOM     26  C   UNL     1       2.011  14.027  18.404  0.00  0.00    +0.000 A 
ATOM     27  C   UNL     1       2.895  15.110  18.342  0.00  0.00    +0.000 A 
ATOM     28  C   UNL     1       2.431  16.405  18.547  0.00  0.00    +0.000 A 
ATOM     29  C   UNL     1       1.083  16.620  18.820  0.00  0.00    +0.000 A 
ATOM     30  C   UNL     1       0.204  15.535  18.866  0.00  0.00    +0.000 A 
BRANCH  30  31
ATOM     31  O   UNL     1      -1.129  15.759  19.090  0.00  0.00    +0.000 OA
ATOM     32  H   UNL     1      -1.308  15.637  20.036  0.00  0.00    +0.000 HD
ENDBRANCH  30  31
ENDBRANCH  24  25
ENDBRANCH   6  24
TORSDOF 7
ENDMDL
