MODEL 1
REMARK VINA RESULT:      -6.8      0.000      0.000
REMARK  Name = 
REMARK  3 active torsions:
REMARK  status: ('A' for Active; 'I' for Inactive)
REMARK    1  A    between atoms: C_2  and  C_11
REMARK    2  A    between atoms: N_3  and  C_4
REMARK    3  A    between atoms: C_4  and  C_5
REMARK                            x       y       z     vdW  Elec       q    Type
REMARK                         _______ _______ _______ _____ _____    ______ ____
ROOT
ATOM      1  N   UNL     1       5.930   3.113  15.845  0.00  0.00    +0.000 N 
ATOM      2  C   UNL     1       5.388   4.079  16.666  0.00  0.00    +0.000 C 
ATOM      3  N   UNL     1       4.097   4.008  16.796  0.00  0.00    +0.000 NA
ATOM      4  H   UNL     1       5.234   2.393  15.658  0.00  0.00    +0.000 HD
ATOM      5  H   UNL     1       6.797   2.700  16.173  0.00  0.00    +0.000 HD
ENDROOT
BRANCH   2   6
ATOM      6  C   UNL     1       6.308   5.085  17.307  0.00  0.00    +0.000 A 
ATOM      7  C   UNL     1       6.616   6.267  16.650  0.00  0.00    +0.000 A 
ATOM      8  N   UNL     1       7.447   7.204  17.179  0.00  0.00    +0.000 NA
ATOM      9  C   UNL     1       7.956   6.904  18.396  0.00  0.00    +0.000 A 
ATOM     10  C   UNL     1       7.658   5.722  19.051  0.00  0.00    +0.000 A 
ATOM     11  N   UNL     1       6.840   4.788  18.517  0.00  0.00    +0.000 NA
ENDBRANCH   2   6
BRANCH   3  12
ATOM     12  C   UNL     1       3.399   4.989  17.639  0.00  0.00    +0.000 C 
BRANCH  12  13
ATOM     13  C   UNL     1       2.602   4.354  18.761  0.00  0.00    +0.000 A 
ATOM     14  C   UNL     1       1.520   3.524  18.481  0.00  0.00    +0.000 A 
ATOM     15  C   UNL     1       0.796   2.981  19.542  0.00  0.00    +0.000 A 
ATOM     16  C   UNL     1       1.174   3.279  20.847  0.00  0.00    +0.000 A 
ATOM     17  C   UNL     1       2.258   4.117  21.039  0.00  0.00    +0.000 A 
ATOM     18  N   UNL     1       2.971   4.663  20.032  0.00  0.00    +0.000 NA
ENDBRANCH  12  13
ENDBRANCH   3  12
TORSDOF 3
ENDMDL
MODEL 2
REMARK VINA RESULT:      -6.8      1.685      5.632
REMARK  Name = 
REMARK  3 active torsions:
REMARK  status: ('A' for Active; 'I' for Inactive)
REMARK    1  A    between atoms: C_2  and  C_11
REMARK    2  A    between atoms: N_3  and  C_4
REMARK    3  A    between atoms: C_4  and  C_5
REMARK                            x       y       z     vdW  Elec       q    Type
REMARK                         _______ _______ _______ _____ _____    ______ ____
ROOT
ATOM      1  N   UNL     1       4.026   0.945  18.006  0.00  0.00    +0.000 N 
ATOM      2  C   UNL     1       3.767   2.263  18.319  0.00  0.00    +0.000 C 
ATOM      3  N   UNL     1       4.324   3.123  17.521  0.00  0.00    +0.000 NA
ATOM      4  H   UNL     1       4.442   0.890  17.078  0.00  0.00    +0.000 HD
ATOM      5  H   UNL     1       3.236   0.314  18.086  0.00  0.00    +0.000 HD
ENDROOT
BRANCH   2   6
ATOM      6  C   UNL     1       2.896   2.566  19.511  0.00  0.00    +0.000 A 
ATOM      7  C   UNL     1       3.407   2.454  20.795  0.00  0.00    +0.000 A 
ATOM      8  N   UNL     1       2.662   2.707  21.905  0.00  0.00    +0.000 NA
ATOM      9  C   UNL     1       1.382   3.078  21.669  0.00  0.00    +0.000 A 
ATOM     10  C   UNL     1       0.867   3.183  20.390  0.00  0.00    +0.000 A 
ATOM     11  N   UNL     1       1.606   2.920  19.289  0.00  0.00    +0.000 NA
ENDBRANCH   2   6
BRANCH   3  12
ATOM     12  C   UNL     1       4.129   4.561  17.755  0.00  0.00    +0.000 C 
BRANCH  12  13
ATOM     13  C   UNL     1       5.424   5.304  18.017  0.00  0.00    +0.000 A 
ATOM     14  C   UNL     1       5.846   6.318  17.160  0.00  0.00    +0.000 A 
ATOM     15  C   UNL     1       7.056   6.958  17.421  0.00  0.00    +0.000 A 
ATOM     16  C   UNL     1       7.806   6.573  18.527  0.00  0.00    +0.000 A 
ATOM     17  C   UNL     1       7.319   5.553  19.325  0.00  0.00    +0.000 A 
ATOM     18  N   UNL     1       6.156   4.909  19.092  0.00  0.00    +0.000 NA
ENDBRANCH  12  13
ENDBRANCH   3  12
TORSDOF 3
ENDMDL
MODEL 3
REMARK VINA RESULT:      -6.7      1.438      2.644
REMARK  Name = 
REMARK  3 active torsions:
REMARK  status: ('A' for Active; 'I' for Inactive)
REMARK    1  A    between atoms: C_2  and  C_11
REMARK    2  A    between atoms: N_3  and  C_4
REMARK    3  A    between atoms: C_4  and  C_5
REMARK                            x       y       z     vdW  Elec       q    Type
REMARK                         _______ _______ _______ _____ _____    ______ ____
ROOT
ATOM      1  N   UNL     1       7.185   5.135  19.689  0.00  0.00    +0.000 N 
ATOM      2  C   UNL     1       6.117   5.248  18.823  0.00  0.00    +0.000 C 
ATOM      3  N   UNL     1       4.992   5.555  19.397  0.00  0.00    +0.000 NA
ATOM      4  H   UNL     1       6.930   5.518  20.597  0.00  0.00    +0.000 HD
ATOM      5  H   UNL     1       8.057   5.536  19.360  0.00  0.00    +0.000 HD
ENDROOT
BRANCH   2   6
ATOM      6  C   UNL     1       6.349   5.014  17.353  0.00  0.00    +0.000 A 
ATOM      7  C   UNL     1       7.142   5.888  16.624  0.00  0.00    +0.000 A 
ATOM      8  N   UNL     1       7.377   5.728  15.294  0.00  0.00    +0.000 NA
ATOM      9  C   UNL     1       6.781   4.653  14.727  0.00  0.00    +0.000 A 
ATOM     10  C   UNL     1       5.983   3.784  15.450  0.00  0.00    +0.000 A 
ATOM     11  N   UNL     1       5.743   3.952  16.769  0.00  0.00    +0.000 NA
ENDBRANCH   2   6
BRANCH   3  12
ATOM     12  C   UNL     1       3.778   5.696  18.581  0.00  0.00    +0.000 C 
BRANCH  12  13
ATOM     13  C   UNL     1       2.687   4.714  18.959  0.00  0.00    +0.000 A 
ATOM     14  C   UNL     1       2.007   4.838  20.167  0.00  0.00    +0.000 A 
ATOM     15  C   UNL     1       1.030   3.898  20.489  0.00  0.00    +0.000 A 
ATOM     16  C   UNL     1       0.758   2.865  19.597  0.00  0.00    +0.000 A 
ATOM     17  C   UNL     1       1.483   2.809  18.421  0.00  0.00    +0.000 A 
ATOM     18  N   UNL     1       2.440   3.700  18.087  0.00  0.00    +0.000 NA
ENDBRANCH  12  13
ENDBRANCH   3  12
TORSDOF 3
ENDMDL
MODEL 4
REMARK VINA RESULT:      -6.6      1.331      2.425
REMARK  Name = 
REMARK  3 active torsions:
REMARK  status: ('A' for Active; 'I' for Inactive)
REMARK    1  A    between atoms: C_2  and  C_11
REMARK    2  A    between atoms: N_3  and  C_4
REMARK    3  A    between atoms: C_4  and  C_5
REMARK                            x       y       z     vdW  Elec       q    Type
REMARK                         _______ _______ _______ _____ _____    ______ ____
ROOT
ATOM      1  N   UNL     1       7.245   5.229  19.680  0.00  0.00    +0.000 N 
ATOM      2  C   UNL     1       6.160   5.299  18.832  0.00  0.00    +0.000 C 
ATOM      3  N   UNL     1       5.038   5.590  19.419  0.00  0.00    +0.000 NA
ATOM      4  H   UNL     1       6.997   5.625  20.585  0.00  0.00    +0.000 HD
ATOM      5  H   UNL     1       8.101   5.643  19.327  0.00  0.00    +0.000 HD
ENDROOT
BRANCH   2   6
ATOM      6  C   UNL     1       6.371   5.040  17.363  0.00  0.00    +0.000 A 
ATOM      7  C   UNL     1       7.152   5.902  16.607  0.00  0.00    +0.000 A 
ATOM      8  N   UNL     1       7.368   5.719  15.277  0.00  0.00    +0.000 NA
ATOM      9  C   UNL     1       6.766   4.634  14.737  0.00  0.00    +0.000 A 
ATOM     10  C   UNL     1       5.980   3.777  15.486  0.00  0.00    +0.000 A 
ATOM     11  N   UNL     1       5.758   3.967  16.806  0.00  0.00    +0.000 NA
ENDBRANCH   2   6
BRANCH   3  12
ATOM     12  C   UNL     1       3.806   5.686  18.624  0.00  0.00    +0.000 C 
BRANCH  12  13
ATOM     13  C   UNL     1       2.736   4.705  19.059  0.00  0.00    +0.000 A 
ATOM     14  C   UNL     1       2.085   3.904  18.124  0.00  0.00    +0.000 A 
ATOM     15  C   UNL     1       1.087   3.035  18.562  0.00  0.00    +0.000 A 
ATOM     16  C   UNL     1       0.770   2.988  19.916  0.00  0.00    +0.000 A 
ATOM     17  C   UNL     1       1.460   3.822  20.778  0.00  0.00    +0.000 A 
ATOM     18  N   UNL     1       2.423   4.679  20.382  0.00  0.00    +0.000 NA
ENDBRANCH  12  13
ENDBRANCH   3  12
TORSDOF 3
ENDMDL
MODEL 5
REMARK VINA RESULT:      -6.6      2.780      6.120
REMARK  Name = 
REMARK  3 active torsions:
REMARK  status: ('A' for Active; 'I' for Inactive)
REMARK    1  A    between atoms: C_2  and  C_11
REMARK    2  A    between atoms: N_3  and  C_4
REMARK    3  A    between atoms: C_4  and  C_5
REMARK                            x       y       z     vdW  Elec       q    Type
REMARK                         _______ _______ _______ _____ _____    ______ ____
ROOT
ATOM      1  N   UNL     1       3.881   6.796  17.680  0.00  0.00    +0.000 N 
ATOM      2  C   UNL     1       4.730   5.741  17.420  0.00  0.00    +0.000 C 
ATOM      3  N   UNL     1       5.750   6.045  16.674  0.00  0.00    +0.000 NA
ATOM      4  H   UNL     1       4.327   7.669  17.405  0.00  0.00    +0.000 HD
ATOM      5  H   UNL     1       3.534   6.852  18.631  0.00  0.00    +0.000 HD
ENDROOT
BRANCH   2   6
ATOM      6  C   UNL     1       4.406   4.390  18.004  0.00  0.00    +0.000 A 
ATOM      7  C   UNL     1       4.955   4.004  19.218  0.00  0.00    +0.000 A 
ATOM      8  N   UNL     1       4.703   2.794  19.784  0.00  0.00    +0.000 NA
ATOM      9  C   UNL     1       3.876   1.987  19.080  0.00  0.00    +0.000 A 
ATOM     10  C   UNL     1       3.333   2.366  17.865  0.00  0.00    +0.000 A 
ATOM     11  N   UNL     1       3.594   3.565  17.299  0.00  0.00    +0.000 NA
ENDBRANCH   2   6
BRANCH   3  12
ATOM     12  C   UNL     1       6.724   5.003  16.320  0.00  0.00    +0.000 C 
BRANCH  12  13
ATOM     13  C   UNL     1       6.817   4.754  14.827  0.00  0.00    +0.000 A 
ATOM     14  C   UNL     1       5.958   3.854  14.203  0.00  0.00    +0.000 A 
ATOM     15  C   UNL     1       6.094   3.633  12.834  0.00  0.00    +0.000 A 
ATOM     16  C   UNL     1       7.078   4.317  12.128  0.00  0.00    +0.000 A 
ATOM     17  C   UNL     1       7.895   5.190  12.824  0.00  0.00    +0.000 A 
ATOM     18  N   UNL     1       7.792   5.416  14.150  0.00  0.00    +0.000 NA
ENDBRANCH  12  13
ENDBRANCH   3  12
TORSDOF 3
ENDMDL
MODEL 6
REMARK VINA RESULT:      -6.5      0.680      1.211
REMARK  Name = 
REMARK  3 active torsions:
REMARK  status: ('A' for Active; 'I' for Inactive)
REMARK    1  A    between atoms: C_2  and  C_11
REMARK    2  A    between atoms: N_3  and  C_4
REMARK    3  A    between atoms: C_4  and  C_5
REMARK                            x       y       z     vdW  Elec       q    Type
REMARK                         _______ _______ _______ _____ _____    ______ ____
ROOT
ATOM      1  N   UNL     1       5.946   3.299  15.780  0.00  0.00    +0.000 N 
ATOM      2  C   UNL     1       5.422   4.241  16.640  0.00  0.00    +0.000 C 
ATOM      3  N   UNL     1       4.129   4.197  16.760  0.00  0.00    +0.000 NA
ATOM      4  H   UNL     1       5.234   2.607  15.557  0.00  0.00    +0.000 HD
ATOM      5  H   UNL     1       6.801   2.850  16.094  0.00  0.00    +0.000 HD
ENDROOT
BRANCH   2   6
ATOM      6  C   UNL     1       6.363   5.194  17.331  0.00  0.00    +0.000 A 
ATOM      7  C   UNL     1       6.947   4.844  18.540  0.00  0.00    +0.000 A 
ATOM      8  N   UNL     1       7.795   5.669  19.209  0.00  0.00    +0.000 NA
ATOM      9  C   UNL     1       8.033   6.861  18.613  0.00  0.00    +0.000 A 
ATOM     10  C   UNL     1       7.445   7.216  17.412  0.00  0.00    +0.000 A 
ATOM     11  N   UNL     1       6.594   6.398  16.755  0.00  0.00    +0.000 NA
ENDBRANCH   2   6
BRANCH   3  12
ATOM     12  C   UNL     1       3.450   5.156  17.642  0.00  0.00    +0.000 C 
BRANCH  12  13
ATOM     13  C   UNL     1       2.636   4.490  18.734  0.00  0.00    +0.000 A 
ATOM     14  C   UNL     1       1.688   3.520  18.421  0.00  0.00    +0.000 A 
ATOM     15  C   UNL     1       0.941   2.953  19.452  0.00  0.00    +0.000 A 
ATOM     16  C   UNL     1       1.163   3.366  20.761  0.00  0.00    +0.000 A 
ATOM     17  C   UNL     1       2.119   4.340  20.987  0.00  0.00    +0.000 A 
ATOM     18  N   UNL     1       2.850   4.913  20.008  0.00  0.00    +0.000 NA
ENDBRANCH  12  13
ENDBRANCH   3  12
TORSDOF 3
ENDMDL
MODEL 7
REMARK VINA RESULT:      -6.5      2.043      5.719
REMARK  Name = 
REMARK  3 active torsions:
REMARK  status: ('A' for Active; 'I' for Inactive)
REMARK    1  A    between atoms: C_2  and  C_11
REMARK    2  A    between atoms: N_3  and  C_4
REMARK    3  A    between atoms: C_4  and  C_5
REMARK                            x       y       z     vdW  Elec       q    Type
REMARK                         _______ _______ _______ _____ _____    ______ ____
ROOT
ATOM      1  N   UNL     1       5.186   1.594  20.340  0.00  0.00    +0.000 N 
ATOM      2  C   UNL     1       4.611   2.732  19.814  0.00  0.00    +0.000 C 
ATOM      3  N   UNL     1       5.457   3.676  19.527  0.00  0.00    +0.000 NA
ATOM      4  H   UNL     1       6.195   1.631  20.212  0.00  0.00    +0.000 HD
ATOM      5  H   UNL     1       4.809   0.717  19.995  0.00  0.00    +0.000 HD
ENDROOT
BRANCH   2   6
ATOM      6  C   UNL     1       3.117   2.770  19.629  0.00  0.00    +0.000 A 
ATOM      7  C   UNL     1       2.550   2.356  18.433  0.00  0.00    +0.000 A 
ATOM      8  N   UNL     1       1.209   2.378  18.211  0.00  0.00    +0.000 NA
ATOM      9  C   UNL     1       0.460   2.833  19.242  0.00  0.00    +0.000 A 
ATOM     10  C   UNL     1       1.022   3.255  20.434  0.00  0.00    +0.000 A 
ATOM     11  N   UNL     1       2.356   3.242  20.647  0.00  0.00    +0.000 NA
ENDBRANCH   2   6
BRANCH   3  12
ATOM     12  C   UNL     1       4.967   4.943  18.967  0.00  0.00    +0.000 C 
BRANCH  12  13
ATOM     13  C   UNL     1       5.231   5.082  17.481  0.00  0.00    +0.000 A 
ATOM     14  C   UNL     1       5.024   6.297  16.834  0.00  0.00    +0.000 A 
ATOM     15  C   UNL     1       5.252   6.376  15.461  0.00  0.00    +0.000 A 
ATOM     16  C   UNL     1       5.683   5.244  14.776  0.00  0.00    +0.000 A 
ATOM     17  C   UNL     1       5.859   4.074  15.493  0.00  0.00    +0.000 A 
ATOM     18  N   UNL     1       5.637   3.966  16.819  0.00  0.00    +0.000 NA
ENDBRANCH  12  13
ENDBRANCH   3  12
TORSDOF 3
ENDMDL
MODEL 8
REMARK VINA RESULT:      -6.5      0.736      1.204
REMARK  Name = 
REMARK  3 active torsions:
REMARK  status: ('A' for Active; 'I' for Inactive)
REMARK    1  A    between atoms: C_2  and  C_11
REMARK    2  A    between atoms: N_3  and  C_4
REMARK    3  A    between atoms: C_4  and  C_5
REMARK                            x       y       z     vdW  Elec       q    Type
REMARK                         _______ _______ _______ _____ _____    ______ ____
ROOT
ATOM      1  N   UNL     1       5.714   3.054  15.805  0.00  0.00    +0.000 N 
ATOM      2  C   UNL     1       5.200   4.028  16.634  0.00  0.00    +0.000 C 
ATOM      3  N   UNL     1       3.914   3.962  16.806  0.00  0.00    +0.000 NA
ATOM      4  H   UNL     1       5.011   2.334  15.646  0.00  0.00    +0.000 HD
ATOM      5  H   UNL     1       6.590   2.642  16.109  0.00  0.00    +0.000 HD
ENDROOT
BRANCH   2   6
ATOM      6  C   UNL     1       6.142   5.037  17.237  0.00  0.00    +0.000 A 
ATOM      7  C   UNL     1       6.449   6.203  16.551  0.00  0.00    +0.000 A 
ATOM      8  N   UNL     1       7.300   7.142  17.045  0.00  0.00    +0.000 NA
ATOM      9  C   UNL     1       7.828   6.861  18.259  0.00  0.00    +0.000 A 
ATOM     10  C   UNL     1       7.530   5.696  18.943  0.00  0.00    +0.000 A 
ATOM     11  N   UNL     1       6.693   4.760  18.444  0.00  0.00    +0.000 NA
ENDBRANCH   2   6
BRANCH   3  12
ATOM     12  C   UNL     1       3.244   4.951  17.662  0.00  0.00    +0.000 C 
BRANCH  12  13
ATOM     13  C   UNL     1       2.423   4.324  18.771  0.00  0.00    +0.000 A 
ATOM     14  C   UNL     1       2.536   4.777  20.082  0.00  0.00    +0.000 A 
ATOM     15  C   UNL     1       1.784   4.155  21.077  0.00  0.00    +0.000 A 
ATOM     16  C   UNL     1       0.940   3.104  20.735  0.00  0.00    +0.000 A 
ATOM     17  C   UNL     1       0.890   2.709  19.410  0.00  0.00    +0.000 A 
ATOM     18  N   UNL     1       1.613   3.287  18.428  0.00  0.00    +0.000 NA
ENDBRANCH  12  13
ENDBRANCH   3  12
TORSDOF 3
ENDMDL
MODEL 9
REMARK VINA RESULT:      -6.4      1.666      5.556
REMARK  Name = 
REMARK  3 active torsions:
REMARK  status: ('A' for Active; 'I' for Inactive)
REMARK    1  A    between atoms: C_2  and  C_11
REMARK    2  A    between atoms: N_3  and  C_4
REMARK    3  A    between atoms: C_4  and  C_5
REMARK                            x       y       z     vdW  Elec       q    Type
REMARK                         _______ _______ _______ _____ _____    ______ ____
ROOT
ATOM      1  N   UNL     1       4.138   0.808  18.025  0.00  0.00    +0.000 N 
ATOM      2  C   UNL     1       3.819   2.135  18.225  0.00  0.00    +0.000 C 
ATOM      3  N   UNL     1       4.390   2.955  17.396  0.00  0.00    +0.000 NA
ATOM      4  H   UNL     1       4.605   0.702  17.126  0.00  0.00    +0.000 HD
ATOM      5  H   UNL     1       3.365   0.157  18.110  0.00  0.00    +0.000 HD
ENDROOT
BRANCH   2   6
ATOM      6  C   UNL     1       2.875   2.491  19.344  0.00  0.00    +0.000 A 
ATOM      7  C   UNL     1       1.540   2.755  19.074  0.00  0.00    +0.000 A 
ATOM      8  N   UNL     1       0.648   3.090  20.044  0.00  0.00    +0.000 NA
ATOM      9  C   UNL     1       1.153   3.147  21.299  0.00  0.00    +0.000 A 
ATOM     10  C   UNL     1       2.486   2.892  21.571  0.00  0.00    +0.000 A 
ATOM     11  N   UNL     1       3.372   2.571  20.603  0.00  0.00    +0.000 NA
ENDBRANCH   2   6
BRANCH   3  12
ATOM     12  C   UNL     1       4.136   4.398  17.513  0.00  0.00    +0.000 C 
BRANCH  12  13
ATOM     13  C   UNL     1       5.391   5.206  17.778  0.00  0.00    +0.000 A 
ATOM     14  C   UNL     1       5.618   6.405  17.108  0.00  0.00    +0.000 A 
ATOM     15  C   UNL     1       6.797   7.104  17.360  0.00  0.00    +0.000 A 
ATOM     16  C   UNL     1       7.711   6.590  18.274  0.00  0.00    +0.000 A 
ATOM     17  C   UNL     1       7.412   5.390  18.894  0.00  0.00    +0.000 A 
ATOM     18  N   UNL     1       6.284   4.687  18.662  0.00  0.00    +0.000 NA
ENDBRANCH  12  13
ENDBRANCH   3  12
TORSDOF 3
ENDMDL
