MODEL 1
REMARK VINA RESULT:      -8.2      0.000      0.000
REMARK  Name = 
REMARK  5 active torsions:
REMARK  status: ('A' for Active; 'I' for Inactive)
REMARK    1  A    between atoms: C_2  and  C_12
REMARK    2  A    between atoms: N_3  and  C_4
REMARK    3  A    between atoms: C_4  and  C_5
REMARK    4  A    between atoms: C_5  and  N_6
REMARK    5  A    between atoms: C_15  and  C_16
REMARK                            x       y       z     vdW  Elec       q    Type
REMARK                         _______ _______ _______ _____ _____    ______ ____
ROOT
ATOM      1  C   UNL     1       2.999   6.854  18.620  0.00  0.00    +0.000 A 
ATOM      2  C   UNL     1       2.318   6.956  19.833  0.00  0.00    +0.000 A 
ATOM      3  C   UNL     1       1.508   8.067  20.094  0.00  0.00    +0.000 A 
ATOM      4  C   UNL     1       1.356   9.111  19.160  0.00  0.00    +0.000 A 
ATOM      5  C   UNL     1       2.056   8.987  17.947  0.00  0.00    +0.000 A 
ATOM      6  C   UNL     1       2.857   7.869  17.668  0.00  0.00    +0.000 A 
ENDROOT
BRANCH   4   7
ATOM      7  C   UNL     1       0.469  10.266  19.445  0.00  0.00    +0.000 A 
ATOM      8  C   UNL     1       0.738  11.138  20.519  0.00  0.00    +0.000 A 
ATOM      9  C   UNL     1      -0.129  12.187  20.847  0.00  0.00    +0.000 A 
ATOM     10  C   UNL     1      -1.277  12.399  20.091  0.00  0.00    +0.000 A 
ATOM     11 CL   UNL     1      -2.354  13.672  20.509  0.00  0.00    +0.000 Cl
ATOM     12  C   UNL     1      -1.558  11.582  19.005  0.00  0.00    +0.000 A 
ATOM     13  C   UNL     1      -0.694  10.531  18.696  0.00  0.00    +0.000 A 
ATOM     14  F   UNL     1      -1.030   9.751  17.657  0.00  0.00    +0.000 F 
ENDBRANCH   4   7
BRANCH   1  16
ATOM     15  O   UNL     1       4.946   5.558  18.910  0.00  0.00    +0.000 OA
ATOM     16  C   UNL     1       3.846   5.653  18.381  0.00  0.00    +0.000 C 
ATOM     17  N   UNL     1       3.328   4.721  17.513  0.00  0.00    +0.000 N 
ATOM     18  H   UNL     1       2.407   4.857  17.125  0.00  0.00    +0.000 HD
BRANCH  17  19
ATOM     19  C   UNL     1       4.008   3.468  17.225  0.00  0.00    +0.000 C 
BRANCH  19  20
ATOM     20  C   UNL     1       3.281   2.294  17.885  0.00  0.00    +0.000 C 
BRANCH  20  21
ATOM     21  N   UNL     1       2.732   2.595  19.191  0.00  0.00    +0.000 N 
ATOM     22  C   UNL     1       1.315   2.638  19.446  0.00  0.00    +0.000 C 
ATOM     23  C   UNL     1       1.250   3.221  20.843  0.00  0.00    +0.000 C 
ATOM     24  C   UNL     1       2.507   2.683  21.518  0.00  0.00    +0.000 C 
ATOM     25  C   UNL     1       3.467   2.516  20.365  0.00  0.00    +0.000 C 
ATOM     26  O   UNL     1       4.664   2.300  20.458  0.00  0.00    +0.000 OA
ENDBRANCH  20  21
ENDBRANCH  19  20
ENDBRANCH  17  19
ENDBRANCH   1  16
TORSDOF 5
ENDMDL
MODEL 2
REMARK VINA RESULT:      -8.1      0.966      1.244
REMARK  Name = 
REMARK  5 active torsions:
REMARK  status: ('A' for Active; 'I' for Inactive)
REMARK    1  A    between atoms: C_2  and  C_12
REMARK    2  A    between atoms: N_3  and  C_4
REMARK    3  A    between atoms: C_4  and  C_5
REMARK    4  A    between atoms: C_5  and  N_6
REMARK    5  A    between atoms: C_15  and  C_16
REMARK                            x       y       z     vdW  Elec       q    Type
REMARK                         _______ _______ _______ _____ _____    ______ ____
ROOT
ATOM      1  C   UNL     1       3.173   6.724  18.424  0.00  0.00    +0.000 A 
ATOM      2  C   UNL     1       2.498   6.760  19.644  0.00  0.00    +0.000 A 
ATOM      3  C   UNL     1       1.649   7.830  19.947  0.00  0.00    +0.000 A 
ATOM      4  C   UNL     1       1.451   8.898  19.048  0.00  0.00    +0.000 A 
ATOM      5  C   UNL     1       2.145   8.840  17.828  0.00  0.00    +0.000 A 
ATOM      6  C   UNL     1       2.986   7.763  17.507  0.00  0.00    +0.000 A 
ENDROOT
BRANCH   4   7
ATOM      7  C   UNL     1       0.523  10.009  19.377  0.00  0.00    +0.000 A 
ATOM      8  C   UNL     1       0.701  10.780  20.544  0.00  0.00    +0.000 A 
ATOM      9  C   UNL     1      -0.208  11.781  20.906  0.00  0.00    +0.000 A 
ATOM     10  C   UNL     1      -1.306  12.047  20.096  0.00  0.00    +0.000 A 
ATOM     11 CL   UNL     1      -2.435  13.260  20.554  0.00  0.00    +0.000 Cl
ATOM     12  C   UNL     1      -1.497  11.331  18.922  0.00  0.00    +0.000 A 
ATOM     13  C   UNL     1      -0.592  10.326  18.577  0.00  0.00    +0.000 A 
ATOM     14  F   UNL     1      -0.842   9.642  17.450  0.00  0.00    +0.000 F 
ENDBRANCH   4   7
BRANCH   1  16
ATOM     15  O   UNL     1       5.275   5.669  18.272  0.00  0.00    +0.000 OA
ATOM     16  C   UNL     1       4.062   5.564  18.140  0.00  0.00    +0.000 C 
ATOM     17  N   UNL     1       3.435   4.427  17.689  0.00  0.00    +0.000 N 
ATOM     18  H   UNL     1       2.429   4.406  17.618  0.00  0.00    +0.000 HD
BRANCH  17  19
ATOM     19  C   UNL     1       4.159   3.193  17.426  0.00  0.00    +0.000 C 
BRANCH  19  20
ATOM     20  C   UNL     1       3.526   2.023  18.183  0.00  0.00    +0.000 C 
BRANCH  20  21
ATOM     21  N   UNL     1       2.769   2.413  19.353  0.00  0.00    +0.000 N 
ATOM     22  C   UNL     1       3.396   2.767  20.601  0.00  0.00    +0.000 C 
ATOM     23  C   UNL     1       2.218   2.848  21.551  0.00  0.00    +0.000 C 
ATOM     24  C   UNL     1       1.079   3.353  20.671  0.00  0.00    +0.000 C 
ATOM     25  C   UNL     1       1.444   2.825  19.305  0.00  0.00    +0.000 C 
ATOM     26  O   UNL     1       0.718   2.814  18.325  0.00  0.00    +0.000 OA
ENDBRANCH  20  21
ENDBRANCH  19  20
ENDBRANCH  17  19
ENDBRANCH   1  16
TORSDOF 5
ENDMDL
MODEL 3
REMARK VINA RESULT:      -8.1      1.805      2.114
REMARK  Name = 
REMARK  5 active torsions:
REMARK  status: ('A' for Active; 'I' for Inactive)
REMARK    1  A    between atoms: C_2  and  C_12
REMARK    2  A    between atoms: N_3  and  C_4
REMARK    3  A    between atoms: C_4  and  C_5
REMARK    4  A    between atoms: C_5  and  N_6
REMARK    5  A    between atoms: C_15  and  C_16
REMARK                            x       y       z     vdW  Elec       q    Type
REMARK                         _______ _______ _______ _____ _____    ______ ____
ROOT
ATOM      1  C   UNL     1       2.587   6.731  18.585  0.00  0.00    +0.000 A 
ATOM      2  C   UNL     1       2.302   6.564  19.941  0.00  0.00    +0.000 A 
ATOM      3  C   UNL     1       1.660   7.581  20.656  0.00  0.00    +0.000 A 
ATOM      4  C   UNL     1       1.290   8.797  20.046  0.00  0.00    +0.000 A 
ATOM      5  C   UNL     1       1.592   8.943  18.681  0.00  0.00    +0.000 A 
ATOM      6  C   UNL     1       2.220   7.922  17.951  0.00  0.00    +0.000 A 
ENDROOT
BRANCH   4   7
ATOM      7  C   UNL     1       0.584   9.851  20.816  0.00  0.00    +0.000 A 
ATOM      8  C   UNL     1       0.837  11.217  20.573  0.00  0.00    +0.000 A 
ATOM      9  C   UNL     1       0.236  12.222  21.341  0.00  0.00    +0.000 A 
ATOM     10  C   UNL     1      -0.650  11.881  22.357  0.00  0.00    +0.000 A 
ATOM     11 CL   UNL     1      -1.369  13.114  23.315  0.00  0.00    +0.000 Cl
ATOM     12  C   UNL     1      -0.950  10.548  22.603  0.00  0.00    +0.000 A 
ATOM     13  C   UNL     1      -0.335   9.555  21.841  0.00  0.00    +0.000 A 
ATOM     14  F   UNL     1      -0.634   8.282  22.143  0.00  0.00    +0.000 F 
ENDBRANCH   4   7
BRANCH   1  16
ATOM     15  O   UNL     1       4.415   5.758  17.459  0.00  0.00    +0.000 OA
ATOM     16  C   UNL     1       3.266   5.622  17.862  0.00  0.00    +0.000 C 
ATOM     17  N   UNL     1       2.508   4.494  17.651  0.00  0.00    +0.000 N 
ATOM     18  H   UNL     1       1.572   4.445  18.024  0.00  0.00    +0.000 HD
BRANCH  17  19
ATOM     19  C   UNL     1       3.047   3.304  17.012  0.00  0.00    +0.000 C 
BRANCH  19  20
ATOM     20  C   UNL     1       2.981   2.105  17.961  0.00  0.00    +0.000 C 
BRANCH  20  21
ATOM     21  N   UNL     1       2.482   2.421  19.283  0.00  0.00    +0.000 N 
ATOM     22  C   UNL     1       3.336   2.890  20.343  0.00  0.00    +0.000 C 
ATOM     23  C   UNL     1       2.423   2.836  21.551  0.00  0.00    +0.000 C 
ATOM     24  C   UNL     1       1.047   3.158  20.977  0.00  0.00    +0.000 C 
ATOM     25  C   UNL     1       1.141   2.648  19.560  0.00  0.00    +0.000 C 
ATOM     26  O   UNL     1       0.209   2.512  18.786  0.00  0.00    +0.000 OA
ENDBRANCH  20  21
ENDBRANCH  19  20
ENDBRANCH  17  19
ENDBRANCH   1  16
TORSDOF 5
ENDMDL
MODEL 4
REMARK VINA RESULT:      -8.1      1.638      1.919
REMARK  Name = 
REMARK  5 active torsions:
REMARK  status: ('A' for Active; 'I' for Inactive)
REMARK    1  A    between atoms: C_2  and  C_12
REMARK    2  A    between atoms: N_3  and  C_4
REMARK    3  A    between atoms: C_4  and  C_5
REMARK    4  A    between atoms: C_5  and  N_6
REMARK    5  A    between atoms: C_15  and  C_16
REMARK                            x       y       z     vdW  Elec       q    Type
REMARK                         _______ _______ _______ _____ _____    ______ ____
ROOT
ATOM      1  C   UNL     1       2.595   6.830  18.766  0.00  0.00    +0.000 A 
ATOM      2  C   UNL     1       2.180   6.549  20.069  0.00  0.00    +0.000 A 
ATOM      3  C   UNL     1       1.442   7.493  20.791  0.00  0.00    +0.000 A 
ATOM      4  C   UNL     1       1.100   8.746  20.242  0.00  0.00    +0.000 A 
ATOM      5  C   UNL     1       1.533   9.007  18.931  0.00  0.00    +0.000 A 
ATOM      6  C   UNL     1       2.259   8.060  18.191  0.00  0.00    +0.000 A 
ENDROOT
BRANCH   4   7
ATOM      7  C   UNL     1       0.291   9.721  21.015  0.00  0.00    +0.000 A 
ATOM      8  C   UNL     1       0.051   9.533  22.392  0.00  0.00    +0.000 A 
ATOM      9  C   UNL     1      -0.772  10.403  23.118  0.00  0.00    +0.000 A 
ATOM     10  C   UNL     1      -1.357  11.494  22.484  0.00  0.00    +0.000 A 
ATOM     11 CL   UNL     1      -2.386  12.548  23.370  0.00  0.00    +0.000 Cl
ATOM     12  C   UNL     1      -1.116  11.731  21.138  0.00  0.00    +0.000 A 
ATOM     13  C   UNL     1      -0.306  10.850  20.421  0.00  0.00    +0.000 A 
ATOM     14  F   UNL     1      -0.134  11.106  19.115  0.00  0.00    +0.000 F 
ENDBRANCH   4   7
BRANCH   1  16
ATOM     15  O   UNL     1       4.520   6.028  17.669  0.00  0.00    +0.000 OA
ATOM     16  C   UNL     1       3.373   5.796  18.032  0.00  0.00    +0.000 C 
ATOM     17  N   UNL     1       2.706   4.624  17.765  0.00  0.00    +0.000 N 
ATOM     18  H   UNL     1       1.766   4.495  18.106  0.00  0.00    +0.000 HD
BRANCH  17  19
ATOM     19  C   UNL     1       3.349   3.496  17.108  0.00  0.00    +0.000 C 
BRANCH  19  20
ATOM     20  C   UNL     1       3.090   2.202  17.882  0.00  0.00    +0.000 C 
BRANCH  20  21
ATOM     21  N   UNL     1       2.599   2.403  19.229  0.00  0.00    +0.000 N 
ATOM     22  C   UNL     1       3.450   2.828  20.310  0.00  0.00    +0.000 C 
ATOM     23  C   UNL     1       2.557   2.653  21.522  0.00  0.00    +0.000 C 
ATOM     24  C   UNL     1       1.162   2.962  20.989  0.00  0.00    +0.000 C 
ATOM     25  C   UNL     1       1.255   2.557  19.537  0.00  0.00    +0.000 C 
ATOM     26  O   UNL     1       0.317   2.441  18.767  0.00  0.00    +0.000 OA
ENDBRANCH  20  21
ENDBRANCH  19  20
ENDBRANCH  17  19
ENDBRANCH   1  16
TORSDOF 5
ENDMDL
MODEL 5
REMARK VINA RESULT:      -8.0      1.460      1.722
REMARK  Name = 
REMARK  5 active torsions:
REMARK  status: ('A' for Active; 'I' for Inactive)
REMARK    1  A    between atoms: C_2  and  C_12
REMARK    2  A    between atoms: N_3  and  C_4
REMARK    3  A    between atoms: C_4  and  C_5
REMARK    4  A    between atoms: C_5  and  N_6
REMARK    5  A    between atoms: C_15  and  C_16
REMARK                            x       y       z     vdW  Elec       q    Type
REMARK                         _______ _______ _______ _____ _____    ______ ____
ROOT
ATOM      1  C   UNL     1       2.500   6.773  18.800  0.00  0.00    +0.000 A 
ATOM      2  C   UNL     1       2.163   6.537  20.133  0.00  0.00    +0.000 A 
ATOM      3  C   UNL     1       1.535   7.535  20.887  0.00  0.00    +0.000 A 
ATOM      4  C   UNL     1       1.231   8.798  20.339  0.00  0.00    +0.000 A 
ATOM      5  C   UNL     1       1.585   9.012  18.996  0.00  0.00    +0.000 A 
ATOM      6  C   UNL     1       2.199   8.012  18.226  0.00  0.00    +0.000 A 
ENDROOT
BRANCH   4   7
ATOM      7  C   UNL     1       0.539   9.833  21.148  0.00  0.00    +0.000 A 
ATOM      8  C   UNL     1      -0.226   9.477  22.278  0.00  0.00    +0.000 A 
ATOM      9  C   UNL     1      -0.946  10.432  23.005  0.00  0.00    +0.000 A 
ATOM     10  C   UNL     1      -0.899  11.770  22.630  0.00  0.00    +0.000 A 
ATOM     11 CL   UNL     1      -1.802  12.939  23.509  0.00  0.00    +0.000 Cl
ATOM     12  C   UNL     1      -0.129  12.163  21.544  0.00  0.00    +0.000 A 
ATOM     13  C   UNL     1       0.573  11.201  20.817  0.00  0.00    +0.000 A 
ATOM     14  F   UNL     1       1.274  11.631  19.756  0.00  0.00    +0.000 F 
ENDBRANCH   4   7
BRANCH   1  16
ATOM     15  O   UNL     1       4.348   5.763  17.741  0.00  0.00    +0.000 OA
ATOM     16  C   UNL     1       3.162   5.682  18.033  0.00  0.00    +0.000 C 
ATOM     17  N   UNL     1       2.348   4.640  17.655  0.00  0.00    +0.000 N 
ATOM     18  H   UNL     1       1.381   4.631  17.942  0.00  0.00    +0.000 HD
BRANCH  17  19
ATOM     19  C   UNL     1       2.858   3.472  16.953  0.00  0.00    +0.000 C 
BRANCH  19  20
ATOM     20  C   UNL     1       2.906   2.260  17.886  0.00  0.00    +0.000 C 
BRANCH  20  21
ATOM     21  N   UNL     1       2.530   2.549  19.254  0.00  0.00    +0.000 N 
ATOM     22  C   UNL     1       1.175   2.436  19.726  0.00  0.00    +0.000 C 
ATOM     23  C   UNL     1       1.252   3.065  21.103  0.00  0.00    +0.000 C 
ATOM     24  C   UNL     1       2.654   2.707  21.586  0.00  0.00    +0.000 C 
ATOM     25  C   UNL     1       3.440   2.606  20.301  0.00  0.00    +0.000 C 
ATOM     26  O   UNL     1       4.654   2.536  20.210  0.00  0.00    +0.000 OA
ENDBRANCH  20  21
ENDBRANCH  19  20
ENDBRANCH  17  19
ENDBRANCH   1  16
TORSDOF 5
ENDMDL
MODEL 6
REMARK VINA RESULT:      -8.0      1.600      1.855
REMARK  Name = 
REMARK  5 active torsions:
REMARK  status: ('A' for Active; 'I' for Inactive)
REMARK    1  A    between atoms: C_2  and  C_12
REMARK    2  A    between atoms: N_3  and  C_4
REMARK    3  A    between atoms: C_4  and  C_5
REMARK    4  A    between atoms: C_5  and  N_6
REMARK    5  A    between atoms: C_15  and  C_16
REMARK                            x       y       z     vdW  Elec       q    Type
REMARK                         _______ _______ _______ _____ _____    ______ ____
ROOT
ATOM      1  C   UNL     1       2.598   7.107  18.720  0.00  0.00    +0.000 A 
ATOM      2  C   UNL     1       2.198   6.861  20.034  0.00  0.00    +0.000 A 
ATOM      3  C   UNL     1       1.396   7.788  20.710  0.00  0.00    +0.000 A 
ATOM      4  C   UNL     1       0.975   8.988  20.102  0.00  0.00    +0.000 A 
ATOM      5  C   UNL     1       1.395   9.214  18.780  0.00  0.00    +0.000 A 
ATOM      6  C   UNL     1       2.185   8.283  18.087  0.00  0.00    +0.000 A 
ENDROOT
BRANCH   4   7
ATOM      7  C   UNL     1       0.100   9.943  20.826  0.00  0.00    +0.000 A 
ATOM      8  C   UNL     1      -0.658  10.905  20.127  0.00  0.00    +0.000 A 
ATOM      9  C   UNL     1      -1.428  11.861  20.799  0.00  0.00    +0.000 A 
ATOM     10  C   UNL     1      -1.473  11.863  22.189  0.00  0.00    +0.000 A 
ATOM     11 CL   UNL     1      -2.400  13.052  23.014  0.00  0.00    +0.000 Cl
ATOM     12  C   UNL     1      -0.768  10.910  22.911  0.00  0.00    +0.000 A 
ATOM     13  C   UNL     1       0.008   9.970  22.231  0.00  0.00    +0.000 A 
ATOM     14  F   UNL     1       0.697   9.094  22.979  0.00  0.00    +0.000 F 
ENDBRANCH   4   7
BRANCH   1  16
ATOM     15  O   UNL     1       4.616   6.341  17.773  0.00  0.00    +0.000 OA
ATOM     16  C   UNL     1       3.446   6.092  18.036  0.00  0.00    +0.000 C 
ATOM     17  N   UNL     1       2.816   4.918  17.698  0.00  0.00    +0.000 N 
ATOM     18  H   UNL     1       1.852   4.774  17.959  0.00  0.00    +0.000 HD
BRANCH  17  19
ATOM     19  C   UNL     1       3.523   3.808  17.079  0.00  0.00    +0.000 C 
BRANCH  19  20
ATOM     20  C   UNL     1       3.232   2.501  17.822  0.00  0.00    +0.000 C 
BRANCH  20  21
ATOM     21  N   UNL     1       2.727   2.682  19.167  0.00  0.00    +0.000 N 
ATOM     22  C   UNL     1       1.325   2.608  19.485  0.00  0.00    +0.000 C 
ATOM     23  C   UNL     1       1.286   3.100  20.918  0.00  0.00    +0.000 C 
ATOM     24  C   UNL     1       2.609   2.615  21.503  0.00  0.00    +0.000 C 
ATOM     25  C   UNL     1       3.522   2.588  20.301  0.00  0.00    +0.000 C 
ATOM     26  O   UNL     1       4.733   2.454  20.327  0.00  0.00    +0.000 OA
ENDBRANCH  20  21
ENDBRANCH  19  20
ENDBRANCH  17  19
ENDBRANCH   1  16
TORSDOF 5
ENDMDL
MODEL 7
REMARK VINA RESULT:      -8.0      2.365      3.901
REMARK  Name = 
REMARK  5 active torsions:
REMARK  status: ('A' for Active; 'I' for Inactive)
REMARK    1  A    between atoms: C_2  and  C_12
REMARK    2  A    between atoms: N_3  and  C_4
REMARK    3  A    between atoms: C_4  and  C_5
REMARK    4  A    between atoms: C_5  and  N_6
REMARK    5  A    between atoms: C_15  and  C_16
REMARK                            x       y       z     vdW  Elec       q    Type
REMARK                         _______ _______ _______ _____ _____    ______ ____
ROOT
ATOM      1  C   UNL     1       3.074   5.522  19.079  0.00  0.00    +0.000 A 
ATOM      2  C   UNL     1       3.079   6.800  18.519  0.00  0.00    +0.000 A 
ATOM      3  C   UNL     1       2.349   7.833  19.116  0.00  0.00    +0.000 A 
ATOM      4  C   UNL     1       1.589   7.625  20.285  0.00  0.00    +0.000 A 
ATOM      5  C   UNL     1       1.596   6.329  20.827  0.00  0.00    +0.000 A 
ATOM      6  C   UNL     1       2.339   5.289  20.246  0.00  0.00    +0.000 A 
ENDROOT
BRANCH   4   7
ATOM      7  C   UNL     1       0.845   8.742  20.919  0.00  0.00    +0.000 A 
ATOM      8  C   UNL     1       0.795   8.874  22.322  0.00  0.00    +0.000 A 
ATOM      9  C   UNL     1       0.036   9.877  22.937  0.00  0.00    +0.000 A 
ATOM     10  C   UNL     1      -0.673  10.785  22.159  0.00  0.00    +0.000 A 
ATOM     11 CL   UNL     1      -1.624  12.002  22.915  0.00  0.00    +0.000 Cl
ATOM     12  C   UNL     1      -0.620  10.708  20.774  0.00  0.00    +0.000 A 
ATOM     13  C   UNL     1       0.128   9.696  20.172  0.00  0.00    +0.000 A 
ATOM     14  F   UNL     1       0.117   9.646  18.830  0.00  0.00    +0.000 F 
ENDBRANCH   4   7
BRANCH   1  16
ATOM     15  O   UNL     1       4.280   3.497  19.060  0.00  0.00    +0.000 OA
ATOM     16  C   UNL     1       3.869   4.453  18.414  0.00  0.00    +0.000 C 
ATOM     17  N   UNL     1       4.131   4.647  17.078  0.00  0.00    +0.000 N 
ATOM     18  H   UNL     1       3.747   5.452  16.606  0.00  0.00    +0.000 HD
BRANCH  17  19
ATOM     19  C   UNL     1       4.843   3.665  16.276  0.00  0.00    +0.000 C 
BRANCH  19  20
ATOM     20  C   UNL     1       6.274   4.132  15.997  0.00  0.00    +0.000 C 
BRANCH  20  21
ATOM     21  N   UNL     1       6.814   5.024  17.001  0.00  0.00    +0.000 N 
ATOM     22  C   UNL     1       7.809   4.608  17.954  0.00  0.00    +0.000 C 
ATOM     23  C   UNL     1       7.859   5.781  18.913  0.00  0.00    +0.000 C 
ATOM     24  C   UNL     1       7.577   6.987  18.022  0.00  0.00    +0.000 C 
ATOM     25  C   UNL     1       6.713   6.407  16.928  0.00  0.00    +0.000 C 
ATOM     26  O   UNL     1       6.084   7.044  16.101  0.00  0.00    +0.000 OA
ENDBRANCH  20  21
ENDBRANCH  19  20
ENDBRANCH  17  19
ENDBRANCH   1  16
TORSDOF 5
ENDMDL
MODEL 8
REMARK VINA RESULT:      -7.9      1.018      1.602
REMARK  Name = 
REMARK  5 active torsions:
REMARK  status: ('A' for Active; 'I' for Inactive)
REMARK    1  A    between atoms: C_2  and  C_12
REMARK    2  A    between atoms: N_3  and  C_4
REMARK    3  A    between atoms: C_4  and  C_5
REMARK    4  A    between atoms: C_5  and  N_6
REMARK    5  A    between atoms: C_15  and  C_16
REMARK                            x       y       z     vdW  Elec       q    Type
REMARK                         _______ _______ _______ _____ _____    ______ ____
ROOT
ATOM      1  C   UNL     1       2.758   6.991  18.742  0.00  0.00    +0.000 A 
ATOM      2  C   UNL     1       2.506   7.977  17.787  0.00  0.00    +0.000 A 
ATOM      3  C   UNL     1       1.714   9.083  18.110  0.00  0.00    +0.000 A 
ATOM      4  C   UNL     1       1.143   9.239  19.390  0.00  0.00    +0.000 A 
ATOM      5  C   UNL     1       1.407   8.231  20.332  0.00  0.00    +0.000 A 
ATOM      6  C   UNL     1       2.215   7.125  20.024  0.00  0.00    +0.000 A 
ENDROOT
BRANCH   4   7
ATOM      7  C   UNL     1       0.329  10.435  19.721  0.00  0.00    +0.000 A 
ATOM      8  C   UNL     1       0.758  11.354  20.701  0.00  0.00    +0.000 A 
ATOM      9  C   UNL     1      -0.033  12.446  21.078  0.00  0.00    +0.000 A 
ATOM     10  C   UNL     1      -1.265  12.653  20.466  0.00  0.00    +0.000 A 
ATOM     11 CL   UNL     1      -2.246  13.980  20.947  0.00  0.00    +0.000 Cl
ATOM     12  C   UNL     1      -1.705  11.789  19.473  0.00  0.00    +0.000 A 
ATOM     13  C   UNL     1      -0.915  10.697  19.115  0.00  0.00    +0.000 A 
ATOM     14  F   UNL     1      -1.403   9.874  18.174  0.00  0.00    +0.000 F 
ENDBRANCH   4   7
BRANCH   1  16
ATOM     15  O   UNL     1       4.808   5.833  18.620  0.00  0.00    +0.000 OA
ATOM     16  C   UNL     1       3.611   5.833  18.357  0.00  0.00    +0.000 C 
ATOM     17  N   UNL     1       2.977   4.827  17.668  0.00  0.00    +0.000 N 
ATOM     18  H   UNL     1       1.984   4.886  17.498  0.00  0.00    +0.000 HD
BRANCH  17  19
ATOM     19  C   UNL     1       3.660   3.604  17.275  0.00  0.00    +0.000 C 
BRANCH  19  20
ATOM     20  C   UNL     1       2.917   2.376  17.806  0.00  0.00    +0.000 C 
BRANCH  20  21
ATOM     21  N   UNL     1       2.522   2.475  19.195  0.00  0.00    +0.000 N 
ATOM     22  C   UNL     1       3.449   2.819  20.242  0.00  0.00    +0.000 C 
ATOM     23  C   UNL     1       2.642   2.552  21.498  0.00  0.00    +0.000 C 
ATOM     24  C   UNL     1       1.214   2.899  21.089  0.00  0.00    +0.000 C 
ATOM     25  C   UNL     1       1.204   2.605  19.608  0.00  0.00    +0.000 C 
ATOM     26  O   UNL     1       0.214   2.545  18.899  0.00  0.00    +0.000 OA
ENDBRANCH  20  21
ENDBRANCH  19  20
ENDBRANCH  17  19
ENDBRANCH   1  16
TORSDOF 5
ENDMDL
MODEL 9
REMARK VINA RESULT:      -7.9      1.844      3.311
REMARK  Name = 
REMARK  5 active torsions:
REMARK  status: ('A' for Active; 'I' for Inactive)
REMARK    1  A    between atoms: C_2  and  C_12
REMARK    2  A    between atoms: N_3  and  C_4
REMARK    3  A    between atoms: C_4  and  C_5
REMARK    4  A    between atoms: C_5  and  N_6
REMARK    5  A    between atoms: C_15  and  C_16
REMARK                            x       y       z     vdW  Elec       q    Type
REMARK                         _______ _______ _______ _____ _____    ______ ____
ROOT
ATOM      1  C   UNL     1       2.572   6.943  19.032  0.00  0.00    +0.000 A 
ATOM      2  C   UNL     1       2.006   7.224  20.277  0.00  0.00    +0.000 A 
ATOM      3  C   UNL     1       1.299   8.415  20.475  0.00  0.00    +0.000 A 
ATOM      4  C   UNL     1       1.139   9.363  19.444  0.00  0.00    +0.000 A 
ATOM      5  C   UNL     1       1.722   9.059  18.202  0.00  0.00    +0.000 A 
ATOM      6  C   UNL     1       2.418   7.859  17.987  0.00  0.00    +0.000 A 
ENDROOT
BRANCH   4   7
ATOM      7  C   UNL     1       0.360  10.607  19.667  0.00  0.00    +0.000 A 
ATOM      8  C   UNL     1       0.857  11.634  20.496  0.00  0.00    +0.000 A 
ATOM      9  C   UNL     1       0.103  12.779  20.776  0.00  0.00    +0.000 A 
ATOM     10  C   UNL     1      -1.160  12.932  20.214  0.00  0.00    +0.000 A 
ATOM     11 CL   UNL     1      -2.096  14.327  20.577  0.00  0.00    +0.000 Cl
ATOM     12  C   UNL     1      -1.668  11.959  19.365  0.00  0.00    +0.000 A 
ATOM     13  C   UNL     1      -0.913  10.815  19.104  0.00  0.00    +0.000 A 
ATOM     14  F   UNL     1      -1.466   9.889  18.304  0.00  0.00    +0.000 F 
ENDBRANCH   4   7
BRANCH   1  16
ATOM     15  O   UNL     1       3.887   5.151  19.817  0.00  0.00    +0.000 OA
ATOM     16  C   UNL     1       3.311   5.662  18.864  0.00  0.00    +0.000 C 
ATOM     17  N   UNL     1       3.331   5.147  17.589  0.00  0.00    +0.000 N 
ATOM     18  H   UNL     1       2.821   5.613  16.854  0.00  0.00    +0.000 HD
BRANCH  17  19
ATOM     19  C   UNL     1       3.960   3.873  17.275  0.00  0.00    +0.000 C 
BRANCH  19  20
ATOM     20  C   UNL     1       5.280   4.092  16.534  0.00  0.00    +0.000 C 
BRANCH  20  21
ATOM     21  N   UNL     1       6.144   5.084  17.139  0.00  0.00    +0.000 N 
ATOM     22  C   UNL     1       7.267   4.732  17.970  0.00  0.00    +0.000 C 
ATOM     23  C   UNL     1       7.683   6.071  18.546  0.00  0.00    +0.000 C 
ATOM     24  C   UNL     1       7.366   7.059  17.428  0.00  0.00    +0.000 C 
ATOM     25  C   UNL     1       6.209   6.403  16.712  0.00  0.00    +0.000 C 
ATOM     26  O   UNL     1       5.498   6.929  15.873  0.00  0.00    +0.000 OA
ENDBRANCH  20  21
ENDBRANCH  19  20
ENDBRANCH  17  19
ENDBRANCH   1  16
TORSDOF 5
ENDMDL
