MODEL 1
REMARK VINA RESULT:      -8.2      0.000      0.000
REMARK  Name = 
REMARK  8 active torsions:
REMARK  status: ('A' for Active; 'I' for Inactive)
REMARK    1  A    between atoms: C_1  and  C_2
REMARK    2  A    between atoms: C_2  and  O_3
REMARK    3  A    between atoms: O_3  and  C_4
REMARK    4  A    between atoms: C_7  and  C_8
REMARK    5  A    between atoms: C_10  and  C_11
REMARK    6  A    between atoms: N_13  and  C_14
REMARK    7  A    between atoms: C_14  and  C_15
REMARK    8  A    between atoms: C_24  and  C_25
REMARK                            x       y       z     vdW  Elec       q    Type
REMARK                         _______ _______ _______ _____ _____    ______ ____
ROOT
ATOM      1  C   UNL     1       3.417   6.316  18.522  0.00  0.00    +0.000 A 
ATOM      2  C   UNL     1       2.607   7.481  18.435  0.00  0.00    +0.000 A 
ATOM      3  C   UNL     1       2.028   7.646  19.675  0.00  0.00    +0.000 A 
ATOM      4  N   UNL     1       2.497   6.596  20.416  0.00  0.00    +0.000 N 
ATOM      5  N   UNL     1       3.371   5.811  19.766  0.00  0.00    +0.000 NA
ATOM      6  H   UNL     1       2.260   6.377  21.377  0.00  0.00    +0.000 HD
ENDROOT
BRANCH   1  10
ATOM      7  C   UNL     1       5.953   4.798  15.397  0.00  0.00    +0.000 A 
ATOM      8  C   UNL     1       6.140   6.065  15.936  0.00  0.00    +0.000 A 
ATOM      9  C   UNL     1       5.301   6.521  16.955  0.00  0.00    +0.000 A 
ATOM     10  C   UNL     1       4.243   5.736  17.455  0.00  0.00    +0.000 A 
ATOM     11  C   UNL     1       4.028   4.463  16.887  0.00  0.00    +0.000 A 
ATOM     12  C   UNL     1       2.922   3.524  17.292  0.00  0.00    +0.000 C 
ATOM     13  C   UNL     1       4.907   4.008  15.879  0.00  0.00    +0.000 A 
BRANCH   7  14
ATOM     14  O   UNL     1       6.715   4.230  14.413  0.00  0.00    +0.000 OA
BRANCH  14  16
ATOM     15  C   UNL     1       6.919   3.717  12.084  0.00  0.00    +0.000 C 
ATOM     16  C   UNL     1       6.007   3.691  13.296  0.00  0.00    +0.000 C 
ENDBRANCH  14  16
ENDBRANCH   7  14
ENDBRANCH   1  10
BRANCH   3  17
ATOM     17  C   UNL     1       1.116   8.613  20.219  0.00  0.00    +0.000 C 
ATOM     18  O   UNL     1       0.662   8.509  21.353  0.00  0.00    +0.000 OA
ATOM     19  N   UNL     1       0.799   9.652  19.377  0.00  0.00    +0.000 N 
ATOM     20  H   UNL     1       1.203   9.695  18.456  0.00  0.00    +0.000 HD
BRANCH  19  21
ATOM     21  C   UNL     1      -0.171  10.656  19.734  0.00  0.00    +0.000 C 
BRANCH  21  22
ATOM     22  C   UNL     1      -1.274  10.783  18.712  0.00  0.00    +0.000 A 
ATOM     23  C   UNL     1      -1.265   9.993  17.551  0.00  0.00    +0.000 A 
ATOM     24  C   UNL     1      -2.362   9.994  16.688  0.00  0.00    +0.000 A 
ATOM     25  C   UNL     1      -3.463  10.790  16.978  0.00  0.00    +0.000 A 
ATOM     26  F   UNL     1      -4.536  10.747  16.177  0.00  0.00    +0.000 F 
ATOM     27  C   UNL     1      -3.474  11.616  18.094  0.00  0.00    +0.000 A 
ATOM     28  C   UNL     1      -2.377  11.619  18.958  0.00  0.00    +0.000 A 
ENDBRANCH  21  22
ENDBRANCH  19  21
ENDBRANCH   3  17
TORSDOF 6
ENDMDL
MODEL 2
REMARK VINA RESULT:      -8.1      0.616      1.131
REMARK  Name = 
REMARK  8 active torsions:
REMARK  status: ('A' for Active; 'I' for Inactive)
REMARK    1  A    between atoms: C_1  and  C_2
REMARK    2  A    between atoms: C_2  and  O_3
REMARK    3  A    between atoms: O_3  and  C_4
REMARK    4  A    between atoms: C_7  and  C_8
REMARK    5  A    between atoms: C_10  and  C_11
REMARK    6  A    between atoms: N_13  and  C_14
REMARK    7  A    between atoms: C_14  and  C_15
REMARK    8  A    between atoms: C_24  and  C_25
REMARK                            x       y       z     vdW  Elec       q    Type
REMARK                         _______ _______ _______ _____ _____    ______ ____
ROOT
ATOM      1  C   UNL     1       3.129   6.459  18.601  0.00  0.00    +0.000 A 
ATOM      2  C   UNL     1       2.491   7.710  18.382  0.00  0.00    +0.000 A 
ATOM      3  C   UNL     1       1.911   8.067  19.581  0.00  0.00    +0.000 A 
ATOM      4  N   UNL     1       2.213   7.036  20.428  0.00  0.00    +0.000 N 
ATOM      5  N   UNL     1       2.985   6.083  19.883  0.00  0.00    +0.000 NA
ATOM      6  H   UNL     1       1.926   6.943  21.396  0.00  0.00    +0.000 HD
ENDROOT
BRANCH   1  10
ATOM      7  C   UNL     1       5.469   4.344  15.677  0.00  0.00    +0.000 A 
ATOM      8  C   UNL     1       5.631   5.707  15.892  0.00  0.00    +0.000 A 
ATOM      9  C   UNL     1       4.858   6.359  16.856  0.00  0.00    +0.000 A 
ATOM     10  C   UNL     1       3.891   5.676  17.620  0.00  0.00    +0.000 A 
ATOM     11  C   UNL     1       3.700   4.299  17.381  0.00  0.00    +0.000 A 
ATOM     12  C   UNL     1       2.686   3.443  18.094  0.00  0.00    +0.000 C 
ATOM     13  C   UNL     1       4.513   3.652  16.424  0.00  0.00    +0.000 A 
BRANCH   7  14
ATOM     14  O   UNL     1       6.174   3.589  14.779  0.00  0.00    +0.000 OA
BRANCH  14  16
ATOM     15  C   UNL     1       6.150   3.442  12.391  0.00  0.00    +0.000 C 
ATOM     16  C   UNL     1       6.602   4.253  13.590  0.00  0.00    +0.000 C 
ENDBRANCH  14  16
ENDBRANCH   7  14
ENDBRANCH   1  10
BRANCH   3  17
ATOM     17  C   UNL     1       1.130   9.196  20.003  0.00  0.00    +0.000 C 
ATOM     18  O   UNL     1       0.974   9.468  21.188  0.00  0.00    +0.000 OA
ATOM     19  N   UNL     1       0.580   9.937  18.985  0.00  0.00    +0.000 N 
ATOM     20  H   UNL     1       0.742   9.675  18.027  0.00  0.00    +0.000 HD
BRANCH  19  21
ATOM     21  C   UNL     1      -0.305  11.045  19.238  0.00  0.00    +0.000 C 
BRANCH  21  22
ATOM     22  C   UNL     1      -1.613  10.922  18.496  0.00  0.00    +0.000 A 
ATOM     23  C   UNL     1      -2.735  11.661  18.903  0.00  0.00    +0.000 A 
ATOM     24  C   UNL     1      -3.895  11.671  18.124  0.00  0.00    +0.000 A 
ATOM     25  C   UNL     1      -3.936  10.936  16.946  0.00  0.00    +0.000 A 
ATOM     26  F   UNL     1      -5.029  10.991  16.173  0.00  0.00    +0.000 F 
ATOM     27  C   UNL     1      -2.855  10.159  16.549  0.00  0.00    +0.000 A 
ATOM     28  C   UNL     1      -1.695  10.146  17.327  0.00  0.00    +0.000 A 
ENDBRANCH  21  22
ENDBRANCH  19  21
ENDBRANCH   3  17
TORSDOF 6
ENDMDL
MODEL 3
REMARK VINA RESULT:      -7.8      2.529      3.135
REMARK  Name = 
REMARK  8 active torsions:
REMARK  status: ('A' for Active; 'I' for Inactive)
REMARK    1  A    between atoms: C_1  and  C_2
REMARK    2  A    between atoms: C_2  and  O_3
REMARK    3  A    between atoms: O_3  and  C_4
REMARK    4  A    between atoms: C_7  and  C_8
REMARK    5  A    between atoms: C_10  and  C_11
REMARK    6  A    between atoms: N_13  and  C_14
REMARK    7  A    between atoms: C_14  and  C_15
REMARK    8  A    between atoms: C_24  and  C_25
REMARK                            x       y       z     vdW  Elec       q    Type
REMARK                         _______ _______ _______ _____ _____    ______ ____
ROOT
ATOM      1  C   UNL     1       2.694   7.244  18.408  0.00  0.00    +0.000 A 
ATOM      2  C   UNL     1       2.054   8.403  17.891  0.00  0.00    +0.000 A 
ATOM      3  C   UNL     1       1.403   8.995  18.952  0.00  0.00    +0.000 A 
ATOM      4  N   UNL     1       1.669   8.177  20.016  0.00  0.00    +0.000 N 
ATOM      5  N   UNL     1       2.482   7.148  19.730  0.00  0.00    +0.000 NA
ATOM      6  H   UNL     1       1.328   8.285  20.965  0.00  0.00    +0.000 HD
ENDROOT
BRANCH   1  10
ATOM      7  C   UNL     1       5.245   4.605  16.165  0.00  0.00    +0.000 A 
ATOM      8  C   UNL     1       5.505   5.966  16.255  0.00  0.00    +0.000 A 
ATOM      9  C   UNL     1       4.658   6.792  16.999  0.00  0.00    +0.000 A 
ATOM     10  C   UNL     1       3.520   6.287  17.660  0.00  0.00    +0.000 A 
ATOM     11  C   UNL     1       3.234   4.911  17.543  0.00  0.00    +0.000 A 
ATOM     12  C   UNL     1       2.041   4.233  18.164  0.00  0.00    +0.000 C 
ATOM     13  C   UNL     1       4.120   4.089  16.812  0.00  0.00    +0.000 A 
BRANCH   7  14
ATOM     14  O   UNL     1       6.005   3.691  15.487  0.00  0.00    +0.000 OA
BRANCH  14  16
ATOM     15  C   UNL     1       5.957   3.636  13.095  0.00  0.00    +0.000 C 
ATOM     16  C   UNL     1       6.676   4.167  14.320  0.00  0.00    +0.000 C 
ENDBRANCH  14  16
ENDBRANCH   7  14
ENDBRANCH   1  10
BRANCH   3  17
ATOM     17  C   UNL     1       0.586  10.168  19.081  0.00  0.00    +0.000 C 
ATOM     18  O   UNL     1      -0.370  10.376  18.342  0.00  0.00    +0.000 OA
ATOM     19  N   UNL     1       0.957  11.029  20.086  0.00  0.00    +0.000 N 
ATOM     20  H   UNL     1       1.748  10.811  20.669  0.00  0.00    +0.000 HD
BRANCH  19  21
ATOM     21  C   UNL     1       0.300  12.295  20.290  0.00  0.00    +0.000 C 
BRANCH  21  22
ATOM     22  C   UNL     1      -0.883  12.190  21.220  0.00  0.00    +0.000 A 
ATOM     23  C   UNL     1      -0.811  11.398  22.377  0.00  0.00    +0.000 A 
ATOM     24  C   UNL     1      -1.843  11.427  23.318  0.00  0.00    +0.000 A 
ATOM     25  C   UNL     1      -2.950  12.237  23.098  0.00  0.00    +0.000 A 
ATOM     26  F   UNL     1      -3.912  12.305  24.028  0.00  0.00    +0.000 F 
ATOM     27  C   UNL     1      -3.065  12.991  21.937  0.00  0.00    +0.000 A 
ATOM     28  C   UNL     1      -2.035  12.963  20.994  0.00  0.00    +0.000 A 
ENDBRANCH  21  22
ENDBRANCH  19  21
ENDBRANCH   3  17
TORSDOF 6
ENDMDL
MODEL 4
REMARK VINA RESULT:      -7.8      1.541      2.170
REMARK  Name = 
REMARK  8 active torsions:
REMARK  status: ('A' for Active; 'I' for Inactive)
REMARK    1  A    between atoms: C_1  and  C_2
REMARK    2  A    between atoms: C_2  and  O_3
REMARK    3  A    between atoms: O_3  and  C_4
REMARK    4  A    between atoms: C_7  and  C_8
REMARK    5  A    between atoms: C_10  and  C_11
REMARK    6  A    between atoms: N_13  and  C_14
REMARK    7  A    between atoms: C_14  and  C_15
REMARK    8  A    between atoms: C_24  and  C_25
REMARK                            x       y       z     vdW  Elec       q    Type
REMARK                         _______ _______ _______ _____ _____    ______ ____
ROOT
ATOM      1  C   UNL     1       2.515   7.552  18.486  0.00  0.00    +0.000 A 
ATOM      2  C   UNL     1       2.078   8.782  17.924  0.00  0.00    +0.000 A 
ATOM      3  C   UNL     1       1.386   9.440  18.919  0.00  0.00    +0.000 A 
ATOM      4  N   UNL     1       1.432   8.589  19.989  0.00  0.00    +0.000 N 
ATOM      5  N   UNL     1       2.145   7.473  19.775  0.00  0.00    +0.000 NA
ATOM      6  H   UNL     1       1.002   8.732  20.896  0.00  0.00    +0.000 HD
ENDROOT
BRANCH   1  10
ATOM      7  C   UNL     1       4.961   4.648  16.464  0.00  0.00    +0.000 A 
ATOM      8  C   UNL     1       5.294   5.996  16.479  0.00  0.00    +0.000 A 
ATOM      9  C   UNL     1       4.479   6.910  17.152  0.00  0.00    +0.000 A 
ATOM     10  C   UNL     1       3.302   6.508  17.816  0.00  0.00    +0.000 A 
ATOM     11  C   UNL     1       2.943   5.145  17.775  0.00  0.00    +0.000 A 
ATOM     12  C   UNL     1       1.702   4.571  18.407  0.00  0.00    +0.000 C 
ATOM     13  C   UNL     1       3.796   4.233  17.114  0.00  0.00    +0.000 A 
BRANCH   7  14
ATOM     14  O   UNL     1       5.682   3.655  15.859  0.00  0.00    +0.000 OA
BRANCH  14  16
ATOM     15  C   UNL     1       5.947   3.769  13.484  0.00  0.00    +0.000 C 
ATOM     16  C   UNL     1       6.582   4.064  14.829  0.00  0.00    +0.000 C 
ENDBRANCH  14  16
ENDBRANCH   7  14
ENDBRANCH   1  10
BRANCH   3  17
ATOM     17  C   UNL     1       0.703  10.701  18.978  0.00  0.00    +0.000 C 
ATOM     18  O   UNL     1       1.252  11.751  18.664  0.00  0.00    +0.000 OA
ATOM     19  N   UNL     1      -0.600  10.638  19.411  0.00  0.00    +0.000 N 
ATOM     20  H   UNL     1      -1.008   9.750  19.653  0.00  0.00    +0.000 HD
BRANCH  19  21
ATOM     21  C   UNL     1      -1.396  11.821  19.616  0.00  0.00    +0.000 C 
BRANCH  21  22
ATOM     22  C   UNL     1      -2.738  11.742  18.929  0.00  0.00    +0.000 A 
ATOM     23  C   UNL     1      -3.895  12.211  19.571  0.00  0.00    +0.000 A 
ATOM     24  C   UNL     1      -5.105  12.286  18.879  0.00  0.00    +0.000 A 
ATOM     25  C   UNL     1      -5.161  11.885  17.550  0.00  0.00    +0.000 A 
ATOM     26  F   UNL     1      -6.310  12.010  16.872  0.00  0.00    +0.000 F 
ATOM     27  C   UNL     1      -4.040  11.372  16.909  0.00  0.00    +0.000 A 
ATOM     28  C   UNL     1      -2.829  11.294  17.601  0.00  0.00    +0.000 A 
ENDBRANCH  21  22
ENDBRANCH  19  21
ENDBRANCH   3  17
TORSDOF 6
ENDMDL
MODEL 5
REMARK VINA RESULT:      -7.7      3.843      9.724
REMARK  Name = 
REMARK  8 active torsions:
REMARK  status: ('A' for Active; 'I' for Inactive)
REMARK    1  A    between atoms: C_1  and  C_2
REMARK    2  A    between atoms: C_2  and  O_3
REMARK    3  A    between atoms: O_3  and  C_4
REMARK    4  A    between atoms: C_7  and  C_8
REMARK    5  A    between atoms: C_10  and  C_11
REMARK    6  A    between atoms: N_13  and  C_14
REMARK    7  A    between atoms: C_14  and  C_15
REMARK    8  A    between atoms: C_24  and  C_25
REMARK                            x       y       z     vdW  Elec       q    Type
REMARK                         _______ _______ _______ _____ _____    ______ ____
ROOT
ATOM      1  C   UNL     1      -1.273  11.124  18.244  0.00  0.00    +0.000 A 
ATOM      2  C   UNL     1      -0.704   9.828  18.119  0.00  0.00    +0.000 A 
ATOM      3  C   UNL     1       0.655   9.979  18.297  0.00  0.00    +0.000 A 
ATOM      4  N   UNL     1       0.826  11.321  18.502  0.00  0.00    +0.000 N 
ATOM      5  N   UNL     1      -0.317  12.025  18.526  0.00  0.00    +0.000 NA
ATOM      6  H   UNL     1       1.705  11.806  18.643  0.00  0.00    +0.000 HD
ENDROOT
BRANCH   1  10
ATOM      7  C   UNL     1      -5.431  12.219  18.150  0.00  0.00    +0.000 A 
ATOM      8  C   UNL     1      -4.665  12.368  19.299  0.00  0.00    +0.000 A 
ATOM      9  C   UNL     1      -3.315  12.008  19.290  0.00  0.00    +0.000 A 
ATOM     10  C   UNL     1      -2.695  11.476  18.142  0.00  0.00    +0.000 A 
ATOM     11  C   UNL     1      -3.478  11.291  16.984  0.00  0.00    +0.000 A 
ATOM     12  C   UNL     1      -2.966  10.705  15.694  0.00  0.00    +0.000 C 
ATOM     13  C   UNL     1      -4.833  11.689  17.004  0.00  0.00    +0.000 A 
BRANCH   7  14
ATOM     14  O   UNL     1      -6.753  12.550  18.024  0.00  0.00    +0.000 OA
BRANCH  14  16
ATOM     15  C   UNL     1      -7.404  14.296  16.523  0.00  0.00    +0.000 C 
ATOM     16  C   UNL     1      -7.054  13.944  17.956  0.00  0.00    +0.000 C 
ENDBRANCH  14  16
ENDBRANCH   7  14
ENDBRANCH   1  10
BRANCH   3  17
ATOM     17  C   UNL     1       1.761   9.065  18.281  0.00  0.00    +0.000 C 
ATOM     18  O   UNL     1       2.562   9.032  17.353  0.00  0.00    +0.000 OA
ATOM     19  N   UNL     1       1.850   8.239  19.377  0.00  0.00    +0.000 N 
ATOM     20  H   UNL     1       1.170   8.308  20.116  0.00  0.00    +0.000 HD
BRANCH  19  21
ATOM     21  C   UNL     1       2.847   7.203  19.474  0.00  0.00    +0.000 C 
BRANCH  21  22
ATOM     22  C   UNL     1       2.265   5.823  19.290  0.00  0.00    +0.000 A 
ATOM     23  C   UNL     1       1.760   5.111  20.390  0.00  0.00    +0.000 A 
ATOM     24  C   UNL     1       1.080   3.907  20.199  0.00  0.00    +0.000 A 
ATOM     25  C   UNL     1       0.912   3.409  18.913  0.00  0.00    +0.000 A 
ATOM     26  F   UNL     1       0.210   2.283  18.728  0.00  0.00    +0.000 F 
ATOM     27  C   UNL     1       1.445   4.072  17.815  0.00  0.00    +0.000 A 
ATOM     28  C   UNL     1       2.128   5.276  18.003  0.00  0.00    +0.000 A 
ENDBRANCH  21  22
ENDBRANCH  19  21
ENDBRANCH   3  17
TORSDOF 6
ENDMDL
MODEL 6
REMARK VINA RESULT:      -7.7      2.618      3.346
REMARK  Name = 
REMARK  8 active torsions:
REMARK  status: ('A' for Active; 'I' for Inactive)
REMARK    1  A    between atoms: C_1  and  C_2
REMARK    2  A    between atoms: C_2  and  O_3
REMARK    3  A    between atoms: O_3  and  C_4
REMARK    4  A    between atoms: C_7  and  C_8
REMARK    5  A    between atoms: C_10  and  C_11
REMARK    6  A    between atoms: N_13  and  C_14
REMARK    7  A    between atoms: C_14  and  C_15
REMARK    8  A    between atoms: C_24  and  C_25
REMARK                            x       y       z     vdW  Elec       q    Type
REMARK                         _______ _______ _______ _____ _____    ______ ____
ROOT
ATOM      1  C   UNL     1       2.566   7.600  18.423  0.00  0.00    +0.000 A 
ATOM      2  C   UNL     1       2.161   8.824  17.826  0.00  0.00    +0.000 A 
ATOM      3  C   UNL     1       1.424   9.496  18.778  0.00  0.00    +0.000 A 
ATOM      4  N   UNL     1       1.417   8.659  19.860  0.00  0.00    +0.000 N 
ATOM      5  N   UNL     1       2.136   7.538  19.694  0.00  0.00    +0.000 NA
ATOM      6  H   UNL     1       0.945   8.814  20.744  0.00  0.00    +0.000 HD
ENDROOT
BRANCH   1  10
ATOM      7  C   UNL     1       5.102   4.662  16.567  0.00  0.00    +0.000 A 
ATOM      8  C   UNL     1       5.469   5.999  16.639  0.00  0.00    +0.000 A 
ATOM      9  C   UNL     1       4.623   6.924  17.257  0.00  0.00    +0.000 A 
ATOM     10  C   UNL     1       3.381   6.546  17.804  0.00  0.00    +0.000 A 
ATOM     11  C   UNL     1       2.989   5.195  17.702  0.00  0.00    +0.000 A 
ATOM     12  C   UNL     1       1.681   4.646  18.210  0.00  0.00    +0.000 C 
ATOM     13  C   UNL     1       3.872   4.270  17.102  0.00  0.00    +0.000 A 
BRANCH   7  14
ATOM     14  O   UNL     1       5.846   3.659  16.008  0.00  0.00    +0.000 OA
BRANCH  14  16
ATOM     15  C   UNL     1       5.640   3.877  13.634  0.00  0.00    +0.000 C 
ATOM     16  C   UNL     1       6.572   3.993  14.824  0.00  0.00    +0.000 C 
ENDBRANCH  14  16
ENDBRANCH   7  14
ENDBRANCH   1  10
BRANCH   3  17
ATOM     17  C   UNL     1       0.743  10.760  18.790  0.00  0.00    +0.000 C 
ATOM     18  O   UNL     1       1.329  11.814  18.572  0.00  0.00    +0.000 OA
ATOM     19  N   UNL     1      -0.603  10.693  19.060  0.00  0.00    +0.000 N 
ATOM     20  H   UNL     1      -1.040   9.802  19.228  0.00  0.00    +0.000 HD
BRANCH  19  21
ATOM     21  C   UNL     1      -1.414  11.876  19.201  0.00  0.00    +0.000 C 
BRANCH  21  22
ATOM     22  C   UNL     1      -1.901  12.079  20.614  0.00  0.00    +0.000 A 
ATOM     23  C   UNL     1      -3.137  12.698  20.860  0.00  0.00    +0.000 A 
ATOM     24  C   UNL     1      -3.660  12.742  22.154  0.00  0.00    +0.000 A 
ATOM     25  C   UNL     1      -2.945  12.178  23.203  0.00  0.00    +0.000 A 
ATOM     26  F   UNL     1      -3.474  12.172  24.433  0.00  0.00    +0.000 F 
ATOM     27  C   UNL     1      -1.698  11.604  22.990  0.00  0.00    +0.000 A 
ATOM     28  C   UNL     1      -1.172  11.560  21.697  0.00  0.00    +0.000 A 
ENDBRANCH  21  22
ENDBRANCH  19  21
ENDBRANCH   3  17
TORSDOF 6
ENDMDL
MODEL 7
REMARK VINA RESULT:      -7.7      0.483      1.409
REMARK  Name = 
REMARK  8 active torsions:
REMARK  status: ('A' for Active; 'I' for Inactive)
REMARK    1  A    between atoms: C_1  and  C_2
REMARK    2  A    between atoms: C_2  and  O_3
REMARK    3  A    between atoms: O_3  and  C_4
REMARK    4  A    between atoms: C_7  and  C_8
REMARK    5  A    between atoms: C_10  and  C_11
REMARK    6  A    between atoms: N_13  and  C_14
REMARK    7  A    between atoms: C_14  and  C_15
REMARK    8  A    between atoms: C_24  and  C_25
REMARK                            x       y       z     vdW  Elec       q    Type
REMARK                         _______ _______ _______ _____ _____    ______ ____
ROOT
ATOM      1  C   UNL     1       3.306   6.188  18.701  0.00  0.00    +0.000 A 
ATOM      2  C   UNL     1       2.577   7.401  18.567  0.00  0.00    +0.000 A 
ATOM      3  C   UNL     1       1.998   7.646  19.794  0.00  0.00    +0.000 A 
ATOM      4  N   UNL     1       2.389   6.591  20.574  0.00  0.00    +0.000 N 
ATOM      5  N   UNL     1       3.215   5.729  19.960  0.00  0.00    +0.000 NA
ATOM      6  H   UNL     1       2.129   6.421  21.539  0.00  0.00    +0.000 HD
ENDROOT
BRANCH   1  10
ATOM      7  C   UNL     1       5.502   4.061  15.676  0.00  0.00    +0.000 A 
ATOM      8  C   UNL     1       4.398   3.499  16.305  0.00  0.00    +0.000 A 
ATOM      9  C   UNL     1       3.705   4.223  17.278  0.00  0.00    +0.000 A 
ATOM     10  C   UNL     1       4.101   5.520  17.663  0.00  0.00    +0.000 A 
ATOM     11  C   UNL     1       5.241   6.080  17.051  0.00  0.00    +0.000 A 
ATOM     12  C   UNL     1       5.804   7.438  17.379  0.00  0.00    +0.000 C 
ATOM     13  C   UNL     1       5.910   5.344  16.048  0.00  0.00    +0.000 A 
BRANCH   7  14
ATOM     14  O   UNL     1       6.251   3.465  14.699  0.00  0.00    +0.000 OA
BRANCH  14  16
ATOM     15  C   UNL     1       6.218   3.411  12.307  0.00  0.00    +0.000 C 
ATOM     16  C   UNL     1       6.514   4.250  13.535  0.00  0.00    +0.000 C 
ENDBRANCH  14  16
ENDBRANCH   7  14
ENDBRANCH   1  10
BRANCH   3  17
ATOM     17  C   UNL     1       1.148   8.688  20.296  0.00  0.00    +0.000 C 
ATOM     18  O   UNL     1       0.804   8.735  21.472  0.00  0.00    +0.000 OA
ATOM     19  N   UNL     1       0.757   9.620  19.364  0.00  0.00    +0.000 N 
ATOM     20  H   UNL     1       1.071   9.541  18.410  0.00  0.00    +0.000 HD
BRANCH  19  21
ATOM     21  C   UNL     1      -0.169  10.677  19.681  0.00  0.00    +0.000 C 
BRANCH  21  22
ATOM     22  C   UNL     1      -1.278  10.799  18.665  0.00  0.00    +0.000 A 
ATOM     23  C   UNL     1      -1.290   9.984  17.523  0.00  0.00    +0.000 A 
ATOM     24  C   UNL     1      -2.393   9.983  16.667  0.00  0.00    +0.000 A 
ATOM     25  C   UNL     1      -3.480  10.803  16.948  0.00  0.00    +0.000 A 
ATOM     26  F   UNL     1      -4.560  10.759  16.156  0.00  0.00    +0.000 F 
ATOM     27  C   UNL     1      -3.469  11.653  18.046  0.00  0.00    +0.000 A 
ATOM     28  C   UNL     1      -2.365  11.658  18.902  0.00  0.00    +0.000 A 
ENDBRANCH  21  22
ENDBRANCH  19  21
ENDBRANCH   3  17
TORSDOF 6
ENDMDL
MODEL 8
REMARK VINA RESULT:      -7.6      3.185      3.764
REMARK  Name = 
REMARK  8 active torsions:
REMARK  status: ('A' for Active; 'I' for Inactive)
REMARK    1  A    between atoms: C_1  and  C_2
REMARK    2  A    between atoms: C_2  and  O_3
REMARK    3  A    between atoms: O_3  and  C_4
REMARK    4  A    between atoms: C_7  and  C_8
REMARK    5  A    between atoms: C_10  and  C_11
REMARK    6  A    between atoms: N_13  and  C_14
REMARK    7  A    between atoms: C_14  and  C_15
REMARK    8  A    between atoms: C_24  and  C_25
REMARK                            x       y       z     vdW  Elec       q    Type
REMARK                         _______ _______ _______ _____ _____    ______ ____
ROOT
ATOM      1  C   UNL     1       2.789   6.957  18.644  0.00  0.00    +0.000 A 
ATOM      2  C   UNL     1       2.156   8.169  18.255  0.00  0.00    +0.000 A 
ATOM      3  C   UNL     1       1.540   8.665  19.384  0.00  0.00    +0.000 A 
ATOM      4  N   UNL     1       1.818   7.746  20.359  0.00  0.00    +0.000 N 
ATOM      5  N   UNL     1       2.607   6.738  19.956  0.00  0.00    +0.000 NA
ATOM      6  H   UNL     1       1.502   7.769  21.322  0.00  0.00    +0.000 HD
ENDROOT
BRANCH   1  10
ATOM      7  C   UNL     1       5.248   4.508  16.103  0.00  0.00    +0.000 A 
ATOM      8  C   UNL     1       5.550   5.842  16.340  0.00  0.00    +0.000 A 
ATOM      9  C   UNL     1       4.732   6.605  17.178  0.00  0.00    +0.000 A 
ATOM     10  C   UNL     1       3.582   6.065  17.788  0.00  0.00    +0.000 A 
ATOM     11  C   UNL     1       3.253   4.720  17.522  0.00  0.00    +0.000 A 
ATOM     12  C   UNL     1       2.043   4.013  18.074  0.00  0.00    +0.000 C 
ATOM     13  C   UNL     1       4.110   3.957  16.697  0.00  0.00    +0.000 A 
BRANCH   7  14
ATOM     14  O   UNL     1       5.975   3.652  15.321  0.00  0.00    +0.000 OA
BRANCH  14  16
ATOM     15  C   UNL     1       6.017   3.619  12.929  0.00  0.00    +0.000 C 
ATOM     16  C   UNL     1       6.617   4.226  14.182  0.00  0.00    +0.000 C 
ENDBRANCH  14  16
ENDBRANCH   7  14
ENDBRANCH   1  10
BRANCH   3  17
ATOM     17  C   UNL     1       0.744   9.832  19.644  0.00  0.00    +0.000 C 
ATOM     18  O   UNL     1      -0.139   9.839  20.494  0.00  0.00    +0.000 OA
ATOM     19  N   UNL     1       1.049  10.928  18.872  0.00  0.00    +0.000 N 
ATOM     20  H   UNL     1       1.787  10.874  18.189  0.00  0.00    +0.000 HD
BRANCH  19  21
ATOM     21  C   UNL     1       0.286  12.148  18.942  0.00  0.00    +0.000 C 
BRANCH  21  22
ATOM     22  C   UNL     1       1.120  13.370  18.645  0.00  0.00    +0.000 A 
ATOM     23  C   UNL     1       0.607  14.656  18.878  0.00  0.00    +0.000 A 
ATOM     24  C   UNL     1       1.431  15.777  18.757  0.00  0.00    +0.000 A 
ATOM     25  C   UNL     1       2.762  15.615  18.395  0.00  0.00    +0.000 A 
ATOM     26  F   UNL     1       3.564  16.686  18.334  0.00  0.00    +0.000 F 
ATOM     27  C   UNL     1       3.278  14.356  18.112  0.00  0.00    +0.000 A 
ATOM     28  C   UNL     1       2.456  13.234  18.231  0.00  0.00    +0.000 A 
ENDBRANCH  21  22
ENDBRANCH  19  21
ENDBRANCH   3  17
TORSDOF 6
ENDMDL
MODEL 9
REMARK VINA RESULT:      -7.6      3.030      3.475
REMARK  Name = 
REMARK  8 active torsions:
REMARK  status: ('A' for Active; 'I' for Inactive)
REMARK    1  A    between atoms: C_1  and  C_2
REMARK    2  A    between atoms: C_2  and  O_3
REMARK    3  A    between atoms: O_3  and  C_4
REMARK    4  A    between atoms: C_7  and  C_8
REMARK    5  A    between atoms: C_10  and  C_11
REMARK    6  A    between atoms: N_13  and  C_14
REMARK    7  A    between atoms: C_14  and  C_15
REMARK    8  A    between atoms: C_24  and  C_25
REMARK                            x       y       z     vdW  Elec       q    Type
REMARK                         _______ _______ _______ _____ _____    ______ ____
ROOT
ATOM      1  C   UNL     1       2.971   6.857  18.457  0.00  0.00    +0.000 A 
ATOM      2  C   UNL     1       2.355   8.090  18.109  0.00  0.00    +0.000 A 
ATOM      3  C   UNL     1       1.728   8.547  19.248  0.00  0.00    +0.000 A 
ATOM      4  N   UNL     1       1.983   7.587  20.189  0.00  0.00    +0.000 N 
ATOM      5  N   UNL     1       2.768   6.587  19.757  0.00  0.00    +0.000 NA
ATOM      6  H   UNL     1       1.654   7.574  21.148  0.00  0.00    +0.000 HD
ENDROOT
BRANCH   1  10
ATOM      7  C   UNL     1       5.430   4.489  15.840  0.00  0.00    +0.000 A 
ATOM      8  C   UNL     1       5.696   5.833  16.071  0.00  0.00    +0.000 A 
ATOM      9  C   UNL     1       4.879   6.568  16.933  0.00  0.00    +0.000 A 
ATOM     10  C   UNL     1       3.766   5.991  17.577  0.00  0.00    +0.000 A 
ATOM     11  C   UNL     1       3.473   4.636  17.318  0.00  0.00    +0.000 A 
ATOM     12  C   UNL     1       2.303   3.891  17.904  0.00  0.00    +0.000 C 
ATOM     13  C   UNL     1       4.329   3.902  16.467  0.00  0.00    +0.000 A 
BRANCH   7  14
ATOM     14  O   UNL     1       6.162   3.658  15.036  0.00  0.00    +0.000 OA
BRANCH  14  16
ATOM     15  C   UNL     1       5.786   3.453  12.682  0.00  0.00    +0.000 C 
ATOM     16  C   UNL     1       6.551   4.185  13.768  0.00  0.00    +0.000 C 
ENDBRANCH  14  16
ENDBRANCH   7  14
ENDBRANCH   1  10
BRANCH   3  17
ATOM     17  C   UNL     1       0.941   9.711  19.544  0.00  0.00    +0.000 C 
ATOM     18  O   UNL     1       0.294   9.810  20.580  0.00  0.00    +0.000 OA
ATOM     19  N   UNL     1       0.972  10.694  18.583  0.00  0.00    +0.000 N 
ATOM     20  H   UNL     1       1.524  10.567  17.751  0.00  0.00    +0.000 HD
BRANCH  19  21
ATOM     21  C   UNL     1       0.167  11.885  18.682  0.00  0.00    +0.000 C 
BRANCH  21  22
ATOM     22  C   UNL     1       0.996  13.145  18.689  0.00  0.00    +0.000 A 
ATOM     23  C   UNL     1       2.355  13.106  18.339  0.00  0.00    +0.000 A 
ATOM     24  C   UNL     1       3.080  14.290  18.191  0.00  0.00    +0.000 A 
ATOM     25  C   UNL     1       2.452  15.511  18.400  0.00  0.00    +0.000 A 
ATOM     26  F   UNL     1       3.135  16.646  18.203  0.00  0.00    +0.000 F 
ATOM     27  C   UNL     1       1.121  15.571  18.794  0.00  0.00    +0.000 A 
ATOM     28  C   UNL     1       0.394  14.389  18.945  0.00  0.00    +0.000 A 
ENDBRANCH  21  22
ENDBRANCH  19  21
ENDBRANCH   3  17
TORSDOF 6
ENDMDL
