MODEL 1
REMARK VINA RESULT:      -7.5      0.000      0.000
REMARK  Name = 
REMARK  5 active torsions:
REMARK  status: ('A' for Active; 'I' for Inactive)
REMARK    1  A    between atoms: C_1  and  O_2
REMARK    2  A    between atoms: O_2  and  C_3
REMARK    3  A    between atoms: C_8  and  C_9
REMARK    4  A    between atoms: C_9  and  C_10
REMARK    5  A    between atoms: C_15  and  O_16
REMARK                            x       y       z     vdW  Elec       q    Type
REMARK                         _______ _______ _______ _____ _____    ______ ____
ROOT
ATOM      1  C   UNL     1       1.962   5.450  19.873  0.00  0.00    +0.000 C 
ATOM      2  O   UNL     1       1.312   5.193  20.890  0.00  0.00    +0.000 OA
ATOM      3  N   UNL     1       1.982   4.587  18.780  0.00  0.00    +0.000 N 
ATOM      4  C   UNL     1       1.223   3.337  18.819  0.00  0.00    +0.000 C 
ATOM      5  C   UNL     1       2.165   2.135  18.895  0.00  0.00    +0.000 C 
ATOM      6  C   UNL     1       3.260   2.204  17.819  0.00  0.00    +0.000 C 
ATOM      7  C   UNL     1       4.021   3.558  17.852  0.00  0.00    +0.000 C 
ATOM      8  C   UNL     1       4.902   3.758  19.093  0.00  0.00    +0.000 C 
ATOM      9  C   UNL     1       6.114   4.519  18.603  0.00  0.00    +0.000 C 
ATOM     10  C   UNL     1       5.965   4.580  17.099  0.00  0.00    +0.000 C 
ATOM     11  O   UNL     1       4.939   3.647  16.744  0.00  0.00    +0.000 OA
ATOM     12  C   UNL     1       2.952   4.664  17.697  0.00  0.00    +0.000 C 
ENDROOT
BRANCH   6  13
ATOM     13  O   UNL     1       4.122   1.069  17.950  0.00  0.00    +0.000 OA
ATOM     14  H   UNL     1       3.669   0.285  17.602  0.00  0.00    +0.000 HD
ENDBRANCH   6  13
BRANCH   1  15
ATOM     15  C   UNL     1       2.779   6.747  19.799  0.00  0.00    +0.000 C 
BRANCH  15  21
ATOM     16  C   UNL     1       1.257   8.736  20.354  0.00  0.00    +0.000 A 
ATOM     17  C   UNL     1       0.591   9.891  19.929  0.00  0.00    +0.000 A 
ATOM     18  C   UNL     1       0.527  10.217  18.572  0.00  0.00    +0.000 A 
ATOM     19  C   UNL     1       1.136   9.398  17.629  0.00  0.00    +0.000 A 
ATOM     20  C   UNL     1       1.847   8.275  18.048  0.00  0.00    +0.000 A 
ATOM     21  C   UNL     1       1.944   7.946  19.412  0.00  0.00    +0.000 A 
BRANCH  16  23
ATOM     22  C   UNL     1       0.706   9.248  22.595  0.00  0.00    +0.000 C 
ATOM     23  O   UNL     1       1.305   8.342  21.668  0.00  0.00    +0.000 OA
ENDBRANCH  16  23
ENDBRANCH  15  21
ENDBRANCH   1  15
TORSDOF 4
ENDMDL
MODEL 2
REMARK VINA RESULT:      -7.3      2.419      4.969
REMARK  Name = 
REMARK  5 active torsions:
REMARK  status: ('A' for Active; 'I' for Inactive)
REMARK    1  A    between atoms: C_1  and  O_2
REMARK    2  A    between atoms: O_2  and  C_3
REMARK    3  A    between atoms: C_8  and  C_9
REMARK    4  A    between atoms: C_9  and  C_10
REMARK    5  A    between atoms: C_15  and  O_16
REMARK                            x       y       z     vdW  Elec       q    Type
REMARK                         _______ _______ _______ _____ _____    ______ ____
ROOT
ATOM      1  C   UNL     1       4.464   3.502  17.795  0.00  0.00    +0.000 C 
ATOM      2  O   UNL     1       4.260   2.309  17.551  0.00  0.00    +0.000 OA
ATOM      3  N   UNL     1       4.660   4.433  16.779  0.00  0.00    +0.000 N 
ATOM      4  C   UNL     1       4.633   4.009  15.379  0.00  0.00    +0.000 C 
ATOM      5  C   UNL     1       6.030   4.086  14.764  0.00  0.00    +0.000 C 
ATOM      6  C   UNL     1       6.690   5.450  15.023  0.00  0.00    +0.000 C 
ATOM      7  C   UNL     1       6.684   5.820  16.532  0.00  0.00    +0.000 C 
ATOM      8  C   UNL     1       7.603   4.949  17.398  0.00  0.00    +0.000 C 
ATOM      9  C   UNL     1       8.153   5.882  18.456  0.00  0.00    +0.000 C 
ATOM     10  C   UNL     1       7.669   7.260  18.063  0.00  0.00    +0.000 C 
ATOM     11  O   UNL     1       7.177   7.162  16.723  0.00  0.00    +0.000 OA
ATOM     12  C   UNL     1       5.209   5.766  16.989  0.00  0.00    +0.000 C 
ENDROOT
BRANCH   6  13
ATOM     13  O   UNL     1       7.999   5.459  14.444  0.00  0.00    +0.000 OA
ATOM     14  H   UNL     1       8.653   5.288  15.138  0.00  0.00    +0.000 HD
ENDBRANCH   6  13
BRANCH   1  15
ATOM     15  C   UNL     1       4.510   3.983  19.251  0.00  0.00    +0.000 C 
BRANCH  15  21
ATOM     16  C   UNL     1       2.053   4.465  19.812  0.00  0.00    +0.000 A 
ATOM     17  C   UNL     1       0.876   4.086  20.465  0.00  0.00    +0.000 A 
ATOM     18  C   UNL     1       0.876   3.020  21.368  0.00  0.00    +0.000 A 
ATOM     19  C   UNL     1       2.049   2.319  21.619  0.00  0.00    +0.000 A 
ATOM     20  C   UNL     1       3.213   2.656  20.933  0.00  0.00    +0.000 A 
ATOM     21  C   UNL     1       3.226   3.709  20.001  0.00  0.00    +0.000 A 
BRANCH  16  23
ATOM     22  C   UNL     1       2.380   6.795  19.580  0.00  0.00    +0.000 C 
ATOM     23  O   UNL     1       2.121   5.537  18.956  0.00  0.00    +0.000 OA
ENDBRANCH  16  23
ENDBRANCH  15  21
ENDBRANCH   1  15
TORSDOF 4
ENDMDL
MODEL 3
REMARK VINA RESULT:      -7.0      3.741      5.482
REMARK  Name = 
REMARK  5 active torsions:
REMARK  status: ('A' for Active; 'I' for Inactive)
REMARK    1  A    between atoms: C_1  and  O_2
REMARK    2  A    between atoms: O_2  and  C_3
REMARK    3  A    between atoms: C_8  and  C_9
REMARK    4  A    between atoms: C_9  and  C_10
REMARK    5  A    between atoms: C_15  and  O_16
REMARK                            x       y       z     vdW  Elec       q    Type
REMARK                         _______ _______ _______ _____ _____    ______ ____
ROOT
ATOM      1  C   UNL     1       4.253   3.841  17.648  0.00  0.00    +0.000 C 
ATOM      2  O   UNL     1       3.989   2.650  17.459  0.00  0.00    +0.000 OA
ATOM      3  N   UNL     1       4.605   4.687  16.599  0.00  0.00    +0.000 N 
ATOM      4  C   UNL     1       4.673   4.171  15.232  0.00  0.00    +0.000 C 
ATOM      5  C   UNL     1       6.121   4.117  14.746  0.00  0.00    +0.000 C 
ATOM      6  C   UNL     1       6.849   5.450  14.981  0.00  0.00    +0.000 C 
ATOM      7  C   UNL     1       6.735   5.921  16.457  0.00  0.00    +0.000 C 
ATOM      8  C   UNL     1       7.510   5.053  17.458  0.00  0.00    +0.000 C 
ATOM      9  C   UNL     1       8.027   6.018  18.503  0.00  0.00    +0.000 C 
ATOM     10  C   UNL     1       7.678   7.395  17.982  0.00  0.00    +0.000 C 
ATOM     11  O   UNL     1       7.301   7.238  16.610  0.00  0.00    +0.000 OA
ATOM     12  C   UNL     1       5.224   5.993  16.777  0.00  0.00    +0.000 C 
ENDROOT
BRANCH   6  13
ATOM     13  O   UNL     1       8.202   5.335  14.528  0.00  0.00    +0.000 OA
ATOM     14  H   UNL     1       8.443   4.397  14.484  0.00  0.00    +0.000 HD
ENDBRANCH   6  13
BRANCH   1  15
ATOM     15  C   UNL     1       4.203   4.416  19.069  0.00  0.00    +0.000 C 
BRANCH  15  21
ATOM     16  C   UNL     1       3.463   2.750  20.875  0.00  0.00    +0.000 A 
ATOM     17  C   UNL     1       2.455   2.259  21.712  0.00  0.00    +0.000 A 
ATOM     18  C   UNL     1       1.135   2.689  21.564  0.00  0.00    +0.000 A 
ATOM     19  C   UNL     1       0.811   3.621  20.585  0.00  0.00    +0.000 A 
ATOM     20  C   UNL     1       1.817   4.155  19.782  0.00  0.00    +0.000 A 
ATOM     21  C   UNL     1       3.156   3.752  19.935  0.00  0.00    +0.000 A 
BRANCH  16  23
ATOM     22  C   UNL     1       4.992   0.992  20.475  0.00  0.00    +0.000 C 
ATOM     23  O   UNL     1       4.766   2.323  20.943  0.00  0.00    +0.000 OA
ENDBRANCH  16  23
ENDBRANCH  15  21
ENDBRANCH   1  15
TORSDOF 4
ENDMDL
MODEL 4
REMARK VINA RESULT:      -6.8      2.642      4.639
REMARK  Name = 
REMARK  5 active torsions:
REMARK  status: ('A' for Active; 'I' for Inactive)
REMARK    1  A    between atoms: C_1  and  O_2
REMARK    2  A    between atoms: O_2  and  C_3
REMARK    3  A    between atoms: C_8  and  C_9
REMARK    4  A    between atoms: C_9  and  C_10
REMARK    5  A    between atoms: C_15  and  O_16
REMARK                            x       y       z     vdW  Elec       q    Type
REMARK                         _______ _______ _______ _____ _____    ______ ____
ROOT
ATOM      1  C   UNL     1       4.328   3.366  17.732  0.00  0.00    +0.000 C 
ATOM      2  O   UNL     1       4.065   2.202  17.417  0.00  0.00    +0.000 OA
ATOM      3  N   UNL     1       4.576   4.345  16.774  0.00  0.00    +0.000 N 
ATOM      4  C   UNL     1       4.533   4.006  15.351  0.00  0.00    +0.000 C 
ATOM      5  C   UNL     1       5.934   4.048  14.742  0.00  0.00    +0.000 C 
ATOM      6  C   UNL     1       6.661   5.359  15.082  0.00  0.00    +0.000 C 
ATOM      7  C   UNL     1       6.669   5.639  16.611  0.00  0.00    +0.000 C 
ATOM      8  C   UNL     1       7.539   4.672  17.425  0.00  0.00    +0.000 C 
ATOM      9  C   UNL     1       8.132   5.510  18.536  0.00  0.00    +0.000 C 
ATOM     10  C   UNL     1       7.721   6.932  18.226  0.00  0.00    +0.000 C 
ATOM     11  O   UNL     1       7.229   6.939  16.882  0.00  0.00    +0.000 OA
ATOM     12  C   UNL     1       5.191   5.633  17.063  0.00  0.00    +0.000 C 
ENDROOT
BRANCH   6  13
ATOM     13  O   UNL     1       7.971   5.335  14.506  0.00  0.00    +0.000 OA
ATOM     14  H   UNL     1       8.507   4.671  14.965  0.00  0.00    +0.000 HD
ENDBRANCH   6  13
BRANCH   1  15
ATOM     15  C   UNL     1       4.394   3.756  19.215  0.00  0.00    +0.000 C 
BRANCH  15  21
ATOM     16  C   UNL     1       1.958   3.903  20.007  0.00  0.00    +0.000 A 
ATOM     17  C   UNL     1       0.909   4.672  20.523  0.00  0.00    +0.000 A 
ATOM     18  C   UNL     1       1.030   6.059  20.628  0.00  0.00    +0.000 A 
ATOM     19  C   UNL     1       2.201   6.690  20.227  0.00  0.00    +0.000 A 
ATOM     20  C   UNL     1       3.270   5.926  19.761  0.00  0.00    +0.000 A 
ATOM     21  C   UNL     1       3.176   4.526  19.673  0.00  0.00    +0.000 A 
BRANCH  16  23
ATOM     22  C   UNL     1       0.896   2.114  18.885  0.00  0.00    +0.000 C 
ATOM     23  O   UNL     1       1.873   2.543  19.833  0.00  0.00    +0.000 OA
ENDBRANCH  16  23
ENDBRANCH  15  21
ENDBRANCH   1  15
TORSDOF 4
ENDMDL
MODEL 5
REMARK VINA RESULT:      -6.6      1.002      1.954
REMARK  Name = 
REMARK  5 active torsions:
REMARK  status: ('A' for Active; 'I' for Inactive)
REMARK    1  A    between atoms: C_1  and  O_2
REMARK    2  A    between atoms: O_2  and  C_3
REMARK    3  A    between atoms: C_8  and  C_9
REMARK    4  A    between atoms: C_9  and  C_10
REMARK    5  A    between atoms: C_15  and  O_16
REMARK                            x       y       z     vdW  Elec       q    Type
REMARK                         _______ _______ _______ _____ _____    ______ ____
ROOT
ATOM      1  C   UNL     1       1.767   5.417  19.858  0.00  0.00    +0.000 C 
ATOM      2  O   UNL     1       1.126   5.140  20.875  0.00  0.00    +0.000 OA
ATOM      3  N   UNL     1       1.857   4.533  18.786  0.00  0.00    +0.000 N 
ATOM      4  C   UNL     1       1.186   3.234  18.849  0.00  0.00    +0.000 C 
ATOM      5  C   UNL     1       2.207   2.103  18.962  0.00  0.00    +0.000 C 
ATOM      6  C   UNL     1       3.306   2.221  17.895  0.00  0.00    +0.000 C 
ATOM      7  C   UNL     1       3.972   3.625  17.901  0.00  0.00    +0.000 C 
ATOM      8  C   UNL     1       4.823   3.914  19.145  0.00  0.00    +0.000 C 
ATOM      9  C   UNL     1       5.985   4.745  18.647  0.00  0.00    +0.000 C 
ATOM     10  C   UNL     1       5.848   4.760  17.141  0.00  0.00    +0.000 C 
ATOM     11  O   UNL     1       4.893   3.750  16.799  0.00  0.00    +0.000 OA
ATOM     12  C   UNL     1       2.831   4.650  17.710  0.00  0.00    +0.000 C 
ENDROOT
BRANCH   6  13
ATOM     13  O   UNL     1       4.242   1.151  18.060  0.00  0.00    +0.000 OA
ATOM     14  H   UNL     1       4.480   0.800  17.188  0.00  0.00    +0.000 HD
ENDBRANCH   6  13
BRANCH   1  15
ATOM     15  C   UNL     1       2.493   6.765  19.759  0.00  0.00    +0.000 C 
BRANCH  15  21
ATOM     16  C   UNL     1       1.273   8.994  19.407  0.00  0.00    +0.000 A 
ATOM     17  C   UNL     1       0.405   9.976  19.896  0.00  0.00    +0.000 A 
ATOM     18  C   UNL     1      -0.020   9.951  21.226  0.00  0.00    +0.000 A 
ATOM     19  C   UNL     1       0.411   8.940  22.076  0.00  0.00    +0.000 A 
ATOM     20  C   UNL     1       1.233   7.929  21.583  0.00  0.00    +0.000 A 
ATOM     21  C   UNL     1       1.650   7.924  20.240  0.00  0.00    +0.000 A 
BRANCH  16  23
ATOM     22  C   UNL     1       2.246  10.265  17.666  0.00  0.00    +0.000 C 
ATOM     23  O   UNL     1       1.763   9.001  18.124  0.00  0.00    +0.000 OA
ENDBRANCH  16  23
ENDBRANCH  15  21
ENDBRANCH   1  15
TORSDOF 4
ENDMDL
MODEL 6
REMARK VINA RESULT:      -6.6      1.583      3.024
REMARK  Name = 
REMARK  5 active torsions:
REMARK  status: ('A' for Active; 'I' for Inactive)
REMARK    1  A    between atoms: C_1  and  O_2
REMARK    2  A    between atoms: O_2  and  C_3
REMARK    3  A    between atoms: C_8  and  C_9
REMARK    4  A    between atoms: C_9  and  C_10
REMARK    5  A    between atoms: C_15  and  O_16
REMARK                            x       y       z     vdW  Elec       q    Type
REMARK                         _______ _______ _______ _____ _____    ______ ____
ROOT
ATOM      1  C   UNL     1       3.352   6.809  18.285  0.00  0.00    +0.000 C 
ATOM      2  O   UNL     1       4.062   7.292  17.399  0.00  0.00    +0.000 OA
ATOM      3  N   UNL     1       3.859   5.911  19.221  0.00  0.00    +0.000 N 
ATOM      4  C   UNL     1       5.265   5.512  19.167  0.00  0.00    +0.000 C 
ATOM      5  C   UNL     1       5.397   4.052  18.733  0.00  0.00    +0.000 C 
ATOM      6  C   UNL     1       4.485   3.130  19.558  0.00  0.00    +0.000 C 
ATOM      7  C   UNL     1       3.011   3.620  19.556  0.00  0.00    +0.000 C 
ATOM      8  C   UNL     1       2.305   3.491  18.199  0.00  0.00    +0.000 C 
ATOM      9  C   UNL     1       0.872   3.135  18.529  0.00  0.00    +0.000 C 
ATOM     10  C   UNL     1       0.850   2.913  20.025  0.00  0.00    +0.000 C 
ATOM     11  O   UNL     1       2.213   2.820  20.452  0.00  0.00    +0.000 OA
ATOM     12  C   UNL     1       3.033   5.074  20.080  0.00  0.00    +0.000 C 
ENDROOT
BRANCH   6  13
ATOM     13  O   UNL     1       4.633   1.784  19.097  0.00  0.00    +0.000 OA
ATOM     14  H   UNL     1       3.804   1.304  19.246  0.00  0.00    +0.000 HD
ENDBRANCH   6  13
BRANCH   1  15
ATOM     15  C   UNL     1       1.870   7.195  18.367  0.00  0.00    +0.000 C 
BRANCH  15  21
ATOM     16  C   UNL     1       1.191   9.044  20.011  0.00  0.00    +0.000 A 
ATOM     17  C   UNL     1       1.123  10.407  20.322  0.00  0.00    +0.000 A 
ATOM     18  C   UNL     1       1.431  11.371  19.360  0.00  0.00    +0.000 A 
ATOM     19  C   UNL     1       1.819  10.984  18.083  0.00  0.00    +0.000 A 
ATOM     20  C   UNL     1       1.941   9.629  17.782  0.00  0.00    +0.000 A 
ATOM     21  C   UNL     1       1.660   8.644  18.745  0.00  0.00    +0.000 A 
BRANCH  16  23
ATOM     22  C   UNL     1      -0.288   8.343  21.717  0.00  0.00    +0.000 C 
ATOM     23  O   UNL     1       0.849   8.057  20.902  0.00  0.00    +0.000 OA
ENDBRANCH  16  23
ENDBRANCH  15  21
ENDBRANCH   1  15
TORSDOF 4
ENDMDL
MODEL 7
REMARK VINA RESULT:      -6.5      2.510      5.408
REMARK  Name = 
REMARK  5 active torsions:
REMARK  status: ('A' for Active; 'I' for Inactive)
REMARK    1  A    between atoms: C_1  and  O_2
REMARK    2  A    between atoms: O_2  and  C_3
REMARK    3  A    between atoms: C_8  and  C_9
REMARK    4  A    between atoms: C_9  and  C_10
REMARK    5  A    between atoms: C_15  and  O_16
REMARK                            x       y       z     vdW  Elec       q    Type
REMARK                         _______ _______ _______ _____ _____    ______ ____
ROOT
ATOM      1  C   UNL     1       2.987   6.227  18.537  0.00  0.00    +0.000 C 
ATOM      2  O   UNL     1       3.250   7.281  19.122  0.00  0.00    +0.000 OA
ATOM      3  N   UNL     1       2.035   5.337  19.027  0.00  0.00    +0.000 N 
ATOM      4  C   UNL     1       1.321   5.636  20.268  0.00  0.00    +0.000 C 
ATOM      5  C   UNL     1       1.760   4.690  21.386  0.00  0.00    +0.000 C 
ATOM      6  C   UNL     1       1.710   3.221  20.939  0.00  0.00    +0.000 C 
ATOM      7  C   UNL     1       2.499   2.988  19.620  0.00  0.00    +0.000 C 
ATOM      8  C   UNL     1       4.020   3.137  19.760  0.00  0.00    +0.000 C 
ATOM      9  C   UNL     1       4.608   2.104  18.824  0.00  0.00    +0.000 C 
ATOM     10  C   UNL     1       3.427   1.305  18.319  0.00  0.00    +0.000 C 
ATOM     11  O   UNL     1       2.312   1.637  19.153  0.00  0.00    +0.000 OA
ATOM     12  C   UNL     1       1.899   3.958  18.576  0.00  0.00    +0.000 C 
ENDROOT
BRANCH   6  13
ATOM     13  O   UNL     1       2.149   2.385  22.014  0.00  0.00    +0.000 OA
ATOM     14  H   UNL     1       2.313   1.492  21.675  0.00  0.00    +0.000 HD
ENDBRANCH   6  13
BRANCH   1  15
ATOM     15  C   UNL     1       3.723   5.874  17.238  0.00  0.00    +0.000 C 
BRANCH  15  21
ATOM     16  C   UNL     1       5.899   4.715  16.527  0.00  0.00    +0.000 A 
ATOM     17  C   UNL     1       7.250   4.449  16.771  0.00  0.00    +0.000 A 
ATOM     18  C   UNL     1       7.842   4.825  17.979  0.00  0.00    +0.000 A 
ATOM     19  C   UNL     1       7.092   5.478  18.949  0.00  0.00    +0.000 A 
ATOM     20  C   UNL     1       5.760   5.795  18.692  0.00  0.00    +0.000 A 
ATOM     21  C   UNL     1       5.155   5.448  17.471  0.00  0.00    +0.000 A 
BRANCH  16  23
ATOM     22  C   UNL     1       6.112   4.008  14.281  0.00  0.00    +0.000 C 
ATOM     23  O   UNL     1       5.255   4.322  15.380  0.00  0.00    +0.000 OA
ENDBRANCH  16  23
ENDBRANCH  15  21
ENDBRANCH   1  15
TORSDOF 4
ENDMDL
MODEL 8
REMARK VINA RESULT:      -6.4      1.715      2.761
REMARK  Name = 
REMARK  5 active torsions:
REMARK  status: ('A' for Active; 'I' for Inactive)
REMARK    1  A    between atoms: C_1  and  O_2
REMARK    2  A    between atoms: O_2  and  C_3
REMARK    3  A    between atoms: C_8  and  C_9
REMARK    4  A    between atoms: C_9  and  C_10
REMARK    5  A    between atoms: C_15  and  O_16
REMARK                            x       y       z     vdW  Elec       q    Type
REMARK                         _______ _______ _______ _____ _____    ______ ____
ROOT
ATOM      1  C   UNL     1       2.794   6.719  18.520  0.00  0.00    +0.000 C 
ATOM      2  O   UNL     1       2.506   7.243  17.440  0.00  0.00    +0.000 OA
ATOM      3  N   UNL     1       3.676   5.644  18.599  0.00  0.00    +0.000 N 
ATOM      4  C   UNL     1       4.283   5.103  17.383  0.00  0.00    +0.000 C 
ATOM      5  C   UNL     1       3.722   3.716  17.070  0.00  0.00    +0.000 C 
ATOM      6  C   UNL     1       3.776   2.792  18.297  0.00  0.00    +0.000 C 
ATOM      7  C   UNL     1       3.103   3.438  19.539  0.00  0.00    +0.000 C 
ATOM      8  C   UNL     1       1.579   3.586  19.426  0.00  0.00    +0.000 C 
ATOM      9  C   UNL     1       1.052   3.348  20.824  0.00  0.00    +0.000 C 
ATOM     10  C   UNL     1       2.253   2.915  21.635  0.00  0.00    +0.000 C 
ATOM     11  O   UNL     1       3.297   2.610  20.704  0.00  0.00    +0.000 OA
ATOM     12  C   UNL     1       3.817   4.789  19.770  0.00  0.00    +0.000 C 
ENDROOT
BRANCH   6  13
ATOM     13  O   UNL     1       3.221   1.518  17.953  0.00  0.00    +0.000 OA
ATOM     14  H   UNL     1       3.857   0.823  18.181  0.00  0.00    +0.000 HD
ENDBRANCH   6  13
BRANCH   1  15
ATOM     15  C   UNL     1       2.168   7.252  19.815  0.00  0.00    +0.000 C 
BRANCH  15  21
ATOM     16  C   UNL     1       0.856   9.284  20.672  0.00  0.00    +0.000 A 
ATOM     17  C   UNL     1       0.463  10.615  20.503  0.00  0.00    +0.000 A 
ATOM     18  C   UNL     1       0.735  11.291  19.311  0.00  0.00    +0.000 A 
ATOM     19  C   UNL     1       1.411  10.645  18.282  0.00  0.00    +0.000 A 
ATOM     20  C   UNL     1       1.853   9.336  18.464  0.00  0.00    +0.000 A 
ATOM     21  C   UNL     1       1.610   8.649  19.667  0.00  0.00    +0.000 A 
BRANCH  16  23
ATOM     22  C   UNL     1       0.054   9.317  22.896  0.00  0.00    +0.000 C 
ATOM     23  O   UNL     1       0.568   8.557  21.801  0.00  0.00    +0.000 OA
ENDBRANCH  16  23
ENDBRANCH  15  21
ENDBRANCH   1  15
TORSDOF 4
ENDMDL
MODEL 9
REMARK VINA RESULT:      -6.3      1.812      3.508
REMARK  Name = 
REMARK  5 active torsions:
REMARK  status: ('A' for Active; 'I' for Inactive)
REMARK    1  A    between atoms: C_1  and  O_2
REMARK    2  A    between atoms: O_2  and  C_3
REMARK    3  A    between atoms: C_8  and  C_9
REMARK    4  A    between atoms: C_9  and  C_10
REMARK    5  A    between atoms: C_15  and  O_16
REMARK                            x       y       z     vdW  Elec       q    Type
REMARK                         _______ _______ _______ _____ _____    ______ ____
ROOT
ATOM      1  C   UNL     1       3.296   6.813  18.422  0.00  0.00    +0.000 C 
ATOM      2  O   UNL     1       4.016   7.344  17.572  0.00  0.00    +0.000 OA
ATOM      3  N   UNL     1       3.795   5.873  19.320  0.00  0.00    +0.000 N 
ATOM      4  C   UNL     1       5.205   5.487  19.269  0.00  0.00    +0.000 C 
ATOM      5  C   UNL     1       5.355   4.052  18.765  0.00  0.00    +0.000 C 
ATOM      6  C   UNL     1       4.438   3.084  19.529  0.00  0.00    +0.000 C 
ATOM      7  C   UNL     1       2.960   3.562  19.527  0.00  0.00    +0.000 C 
ATOM      8  C   UNL     1       2.277   3.497  18.154  0.00  0.00    +0.000 C 
ATOM      9  C   UNL     1       0.841   3.114  18.442  0.00  0.00    +0.000 C 
ATOM     10  C   UNL     1       0.798   2.817  19.925  0.00  0.00    +0.000 C 
ATOM     11  O   UNL     1       2.154   2.713  20.369  0.00  0.00    +0.000 OA
ATOM     12  C   UNL     1       2.962   4.989  20.123  0.00  0.00    +0.000 C 
ENDROOT
BRANCH   6  13
ATOM     13  O   UNL     1       4.604   1.763  19.004  0.00  0.00    +0.000 OA
ATOM     14  H   UNL     1       5.523   1.483  19.134  0.00  0.00    +0.000 HD
ENDBRANCH   6  13
BRANCH   1  15
ATOM     15  C   UNL     1       1.809   7.184  18.498  0.00  0.00    +0.000 C 
BRANCH  15  21
ATOM     16  C   UNL     1       1.437   9.618  19.222  0.00  0.00    +0.000 A 
ATOM     17  C   UNL     1       1.064  10.529  20.215  0.00  0.00    +0.000 A 
ATOM     18  C   UNL     1       0.862  10.104  21.530  0.00  0.00    +0.000 A 
ATOM     19  C   UNL     1       1.022   8.764  21.863  0.00  0.00    +0.000 A 
ATOM     20  C   UNL     1       1.341   7.842  20.869  0.00  0.00    +0.000 A 
ATOM     21  C   UNL     1       1.522   8.247  19.534  0.00  0.00    +0.000 A 
BRANCH  16  23
ATOM     22  C   UNL     1       2.317  11.268  17.776  0.00  0.00    +0.000 C 
ATOM     23  O   UNL     1       1.698   9.989  17.926  0.00  0.00    +0.000 OA
ENDBRANCH  16  23
ENDBRANCH  15  21
ENDBRANCH   1  15
TORSDOF 4
ENDMDL
