MODEL 1
REMARK VINA RESULT:      -6.6      0.000      0.000
REMARK  Name = 
REMARK  4 active torsions:
REMARK  status: ('A' for Active; 'I' for Inactive)
REMARK    1  A    between atoms: C_1  and  C_2
REMARK    2  A    between atoms: C_7  and  C_8
REMARK    3  A    between atoms: N_11  and  C_12
REMARK    4  A    between atoms: C_12  and  C_13
REMARK                            x       y       z     vdW  Elec       q    Type
REMARK                         _______ _______ _______ _____ _____    ______ ____
ROOT
ATOM      1  C   UNL     1       4.151   6.574  17.477  0.00  0.00    +0.000 A 
ATOM      2  C   UNL     1       3.514   7.832  17.345  0.00  0.00    +0.000 A 
ATOM      3  C   UNL     1       2.590   7.883  18.363  0.00  0.00    +0.000 A 
ATOM      4  N   UNL     1       2.725   6.709  19.048  0.00  0.00    +0.000 N 
ATOM      5  N   UNL     1       3.643   5.882  18.507  0.00  0.00    +0.000 NA
ENDROOT
BRANCH   1  12
ATOM      6  C   UNL     1       7.252   7.294  17.743  0.00  0.00    +0.000 C 
ATOM      7  C   UNL     1       6.614   6.402  16.737  0.00  0.00    +0.000 A 
ATOM      8  N   UNL     1       7.441   5.814  15.785  0.00  0.00    +0.000 NA
ATOM      9  C   UNL     1       6.752   5.012  15.017  0.00  0.00    +0.000 A 
ATOM     10  N   UNL     1       7.301   4.313  14.010  0.00  0.00    +0.000 N 
ATOM     11  S   UNL     1       5.079   4.916  15.365  0.00  0.00    +0.000 S 
ATOM     12  C   UNL     1       5.276   6.052  16.634  0.00  0.00    +0.000 A 
ATOM     13  H   UNL     1       8.211   4.637  13.702  0.00  0.00    +0.000 HD
ATOM     14  H   UNL     1       6.698   3.980  13.271  0.00  0.00    +0.000 HD
ENDBRANCH   1  12
BRANCH   4  15
ATOM     15  C   UNL     1       2.104   6.370  20.323  0.00  0.00    +0.000 C 
BRANCH  15  16
ATOM     16  C   UNL     1       1.866   4.892  20.483  0.00  0.00    +0.000 A 
ATOM     17  C   UNL     1       1.076   4.184  19.571  0.00  0.00    +0.000 A 
ATOM     18  C   UNL     1       0.916   2.818  19.746  0.00  0.00    +0.000 A 
ATOM     19  N   UNL     1       1.486   2.118  20.749  0.00  0.00    +0.000 NA
ATOM     20  C   UNL     1       2.251   2.814  21.616  0.00  0.00    +0.000 A 
ATOM     21  C   UNL     1       2.470   4.181  21.526  0.00  0.00    +0.000 A 
ENDBRANCH  15  16
ENDBRANCH   4  15
TORSDOF 3
ENDMDL
MODEL 2
REMARK VINA RESULT:      -6.5      0.039      1.079
REMARK  Name = 
REMARK  4 active torsions:
REMARK  status: ('A' for Active; 'I' for Inactive)
REMARK    1  A    between atoms: C_1  and  C_2
REMARK    2  A    between atoms: C_7  and  C_8
REMARK    3  A    between atoms: N_11  and  C_12
REMARK    4  A    between atoms: C_12  and  C_13
REMARK                            x       y       z     vdW  Elec       q    Type
REMARK                         _______ _______ _______ _____ _____    ______ ____
ROOT
ATOM      1  C   UNL     1       4.159   6.579  17.447  0.00  0.00    +0.000 A 
ATOM      2  C   UNL     1       3.536   7.846  17.325  0.00  0.00    +0.000 A 
ATOM      3  C   UNL     1       2.609   7.897  18.340  0.00  0.00    +0.000 A 
ATOM      4  N   UNL     1       2.728   6.715  19.014  0.00  0.00    +0.000 N 
ATOM      5  N   UNL     1       3.640   5.884  18.469  0.00  0.00    +0.000 NA
ENDROOT
BRANCH   1  12
ATOM      6  C   UNL     1       7.262   7.291  17.707  0.00  0.00    +0.000 C 
ATOM      7  C   UNL     1       6.620   6.400  16.703  0.00  0.00    +0.000 A 
ATOM      8  N   UNL     1       7.444   5.809  15.750  0.00  0.00    +0.000 NA
ATOM      9  C   UNL     1       6.751   5.008  14.985  0.00  0.00    +0.000 A 
ATOM     10  N   UNL     1       7.297   4.306  13.977  0.00  0.00    +0.000 N 
ATOM     11  S   UNL     1       5.079   4.917  15.335  0.00  0.00    +0.000 S 
ATOM     12  C   UNL     1       5.280   6.054  16.603  0.00  0.00    +0.000 A 
ATOM     13  H   UNL     1       8.207   4.628  13.667  0.00  0.00    +0.000 HD
ATOM     14  H   UNL     1       6.691   3.975  13.239  0.00  0.00    +0.000 HD
ENDBRANCH   1  12
BRANCH   4  15
ATOM     15  C   UNL     1       2.100   6.370  20.284  0.00  0.00    +0.000 C 
BRANCH  15  16
ATOM     16  C   UNL     1       1.906   4.888  20.458  0.00  0.00    +0.000 A 
ATOM     17  C   UNL     1       2.490   4.202  21.527  0.00  0.00    +0.000 A 
ATOM     18  C   UNL     1       2.252   2.843  21.659  0.00  0.00    +0.000 A 
ATOM     19  N   UNL     1       1.476   2.132  20.815  0.00  0.00    +0.000 NA
ATOM     20  C   UNL     1       0.912   2.809  19.793  0.00  0.00    +0.000 A 
ATOM     21  C   UNL     1       1.093   4.167  19.575  0.00  0.00    +0.000 A 
ENDBRANCH  15  16
ENDBRANCH   4  15
TORSDOF 3
ENDMDL
MODEL 3
REMARK VINA RESULT:      -6.5      3.322      6.178
REMARK  Name = 
REMARK  4 active torsions:
REMARK  status: ('A' for Active; 'I' for Inactive)
REMARK    1  A    between atoms: C_1  and  C_2
REMARK    2  A    between atoms: C_7  and  C_8
REMARK    3  A    between atoms: N_11  and  C_12
REMARK    4  A    between atoms: C_12  and  C_13
REMARK                            x       y       z     vdW  Elec       q    Type
REMARK                         _______ _______ _______ _____ _____    ______ ____
ROOT
ATOM      1  C   UNL     1       2.549   6.361  19.325  0.00  0.00    +0.000 A 
ATOM      2  C   UNL     1       2.715   7.144  18.156  0.00  0.00    +0.000 A 
ATOM      3  C   UNL     1       2.151   8.364  18.450  0.00  0.00    +0.000 A 
ATOM      4  N   UNL     1       1.708   8.269  19.739  0.00  0.00    +0.000 N 
ATOM      5  N   UNL     1       1.908   7.050  20.280  0.00  0.00    +0.000 NA
ENDROOT
BRANCH   1  12
ATOM      6  C   UNL     1       0.827   3.836  20.254  0.00  0.00    +0.000 C 
ATOM      7  C   UNL     1       2.287   3.880  19.974  0.00  0.00    +0.000 A 
ATOM      8  N   UNL     1       3.009   2.703  20.143  0.00  0.00    +0.000 NA
ATOM      9  C   UNL     1       4.256   2.880  19.798  0.00  0.00    +0.000 A 
ATOM     10  N   UNL     1       5.179   1.906  19.862  0.00  0.00    +0.000 N 
ATOM     11  S   UNL     1       4.657   4.457  19.267  0.00  0.00    +0.000 S 
ATOM     12  C   UNL     1       3.039   4.960  19.535  0.00  0.00    +0.000 A 
ATOM     13  H   UNL     1       4.930   1.111  20.440  0.00  0.00    +0.000 HD
ATOM     14  H   UNL     1       6.154   2.169  19.902  0.00  0.00    +0.000 HD
ENDBRANCH   1  12
BRANCH   4  15
ATOM     15  C   UNL     1       1.212   9.359  20.571  0.00  0.00    +0.000 C 
BRANCH  15  16
ATOM     16  C   UNL     1       0.465  10.403  19.784  0.00  0.00    +0.000 A 
ATOM     17  C   UNL     1       1.054  11.632  19.472  0.00  0.00    +0.000 A 
ATOM     18  C   UNL     1       0.334  12.544  18.716  0.00  0.00    +0.000 A 
ATOM     19  N   UNL     1      -0.911  12.316  18.249  0.00  0.00    +0.000 NA
ATOM     20  C   UNL     1      -1.462  11.121  18.551  0.00  0.00    +0.000 A 
ATOM     21  C   UNL     1      -0.824  10.146  19.303  0.00  0.00    +0.000 A 
ENDBRANCH  15  16
ENDBRANCH   4  15
TORSDOF 3
ENDMDL
MODEL 4
REMARK VINA RESULT:      -6.5      3.414      6.167
REMARK  Name = 
REMARK  4 active torsions:
REMARK  status: ('A' for Active; 'I' for Inactive)
REMARK    1  A    between atoms: C_1  and  C_2
REMARK    2  A    between atoms: C_7  and  C_8
REMARK    3  A    between atoms: N_11  and  C_12
REMARK    4  A    between atoms: C_12  and  C_13
REMARK                            x       y       z     vdW  Elec       q    Type
REMARK                         _______ _______ _______ _____ _____    ______ ____
ROOT
ATOM      1  C   UNL     1       2.548   6.564  19.201  0.00  0.00    +0.000 A 
ATOM      2  C   UNL     1       2.750   7.335  18.030  0.00  0.00    +0.000 A 
ATOM      3  C   UNL     1       2.171   8.555  18.290  0.00  0.00    +0.000 A 
ATOM      4  N   UNL     1       1.686   8.474  19.565  0.00  0.00    +0.000 N 
ATOM      5  N   UNL     1       1.873   7.261  20.126  0.00  0.00    +0.000 NA
ENDROOT
BRANCH   1  12
ATOM      6  C   UNL     1       0.843   4.085  20.272  0.00  0.00    +0.000 C 
ATOM      7  C   UNL     1       2.294   4.110  19.944  0.00  0.00    +0.000 A 
ATOM      8  N   UNL     1       3.013   2.933  20.130  0.00  0.00    +0.000 NA
ATOM      9  C   UNL     1       4.250   3.091  19.740  0.00  0.00    +0.000 A 
ATOM     10  N   UNL     1       5.169   2.112  19.808  0.00  0.00    +0.000 N 
ATOM     11  S   UNL     1       4.642   4.646  19.142  0.00  0.00    +0.000 S 
ATOM     12  C   UNL     1       3.037   5.168  19.443  0.00  0.00    +0.000 A 
ATOM     13  H   UNL     1       4.934   1.340  20.421  0.00  0.00    +0.000 HD
ATOM     14  H   UNL     1       6.146   2.370  19.807  0.00  0.00    +0.000 HD
ENDBRANCH   1  12
BRANCH   4  15
ATOM     15  C   UNL     1       1.158   9.571  20.366  0.00  0.00    +0.000 C 
BRANCH  15  16
ATOM     16  C   UNL     1       0.318  10.530  19.565  0.00  0.00    +0.000 A 
ATOM     17  C   UNL     1      -0.946  10.163  19.094  0.00  0.00    +0.000 A 
ATOM     18  C   UNL     1      -1.692  11.096  18.390  0.00  0.00    +0.000 A 
ATOM     19  N   UNL     1      -1.273  12.353  18.133  0.00  0.00    +0.000 NA
ATOM     20  C   UNL     1      -0.055  12.693  18.602  0.00  0.00    +0.000 A 
ATOM     21  C   UNL     1       0.767  11.831  19.314  0.00  0.00    +0.000 A 
ENDBRANCH  15  16
ENDBRANCH   4  15
TORSDOF 3
ENDMDL
MODEL 5
REMARK VINA RESULT:      -6.5      2.279      6.878
REMARK  Name = 
REMARK  4 active torsions:
REMARK  status: ('A' for Active; 'I' for Inactive)
REMARK    1  A    between atoms: C_1  and  C_2
REMARK    2  A    between atoms: C_7  and  C_8
REMARK    3  A    between atoms: N_11  and  C_12
REMARK    4  A    between atoms: C_12  and  C_13
REMARK                            x       y       z     vdW  Elec       q    Type
REMARK                         _______ _______ _______ _____ _____    ______ ____
ROOT
ATOM      1  C   UNL     1       4.152   4.860  18.182  0.00  0.00    +0.000 A 
ATOM      2  C   UNL     1       3.720   6.015  17.485  0.00  0.00    +0.000 A 
ATOM      3  C   UNL     1       4.800   6.413  16.731  0.00  0.00    +0.000 A 
ATOM      4  N   UNL     1       5.786   5.502  16.983  0.00  0.00    +0.000 N 
ATOM      5  N   UNL     1       5.427   4.569  17.889  0.00  0.00    +0.000 NA
ENDROOT
BRANCH   1  12
ATOM      6  C   UNL     1       3.446   1.764  17.844  0.00  0.00    +0.000 C 
ATOM      7  C   UNL     1       2.996   2.680  18.926  0.00  0.00    +0.000 A 
ATOM      8  N   UNL     1       2.160   2.154  19.906  0.00  0.00    +0.000 NA
ATOM      9  C   UNL     1       1.905   3.055  20.817  0.00  0.00    +0.000 A 
ATOM     10  N   UNL     1       1.120   2.817  21.882  0.00  0.00    +0.000 N 
ATOM     11  S   UNL     1       2.626   4.586  20.563  0.00  0.00    +0.000 S 
ATOM     12  C   UNL     1       3.325   4.016  19.105  0.00  0.00    +0.000 A 
ATOM     13  H   UNL     1       0.523   2.001  21.807  0.00  0.00    +0.000 HD
ATOM     14  H   UNL     1       0.703   3.605  22.357  0.00  0.00    +0.000 HD
ENDBRANCH   1  12
BRANCH   4  15
ATOM     15  C   UNL     1       7.057   5.378  16.278  0.00  0.00    +0.000 C 
BRANCH  15  16
ATOM     16  C   UNL     1       6.900   4.846  14.878  0.00  0.00    +0.000 A 
ATOM     17  C   UNL     1       5.913   3.904  14.569  0.00  0.00    +0.000 A 
ATOM     18  C   UNL     1       5.791   3.473  13.257  0.00  0.00    +0.000 A 
ATOM     19  N   UNL     1       6.567   3.915  12.246  0.00  0.00    +0.000 NA
ATOM     20  C   UNL     1       7.509   4.829  12.559  0.00  0.00    +0.000 A 
ATOM     21  C   UNL     1       7.711   5.320  13.841  0.00  0.00    +0.000 A 
ENDBRANCH  15  16
ENDBRANCH   4  15
TORSDOF 3
ENDMDL
MODEL 6
REMARK VINA RESULT:      -6.5      2.562      6.079
REMARK  Name = 
REMARK  4 active torsions:
REMARK  status: ('A' for Active; 'I' for Inactive)
REMARK    1  A    between atoms: C_1  and  C_2
REMARK    2  A    between atoms: C_7  and  C_8
REMARK    3  A    between atoms: N_11  and  C_12
REMARK    4  A    between atoms: C_12  and  C_13
REMARK                            x       y       z     vdW  Elec       q    Type
REMARK                         _______ _______ _______ _____ _____    ______ ____
ROOT
ATOM      1  C   UNL     1       2.353   6.514  19.146  0.00  0.00    +0.000 A 
ATOM      2  C   UNL     1       2.524   5.697  20.291  0.00  0.00    +0.000 A 
ATOM      3  C   UNL     1       2.949   4.480  19.812  0.00  0.00    +0.000 A 
ATOM      4  N   UNL     1       3.034   4.621  18.456  0.00  0.00    +0.000 N 
ATOM      5  N   UNL     1       2.644   5.838  18.025  0.00  0.00    +0.000 NA
ENDROOT
BRANCH   1  12
ATOM      6  C   UNL     1       1.025   8.159  21.540  0.00  0.00    +0.000 C 
ATOM      7  C   UNL     1       1.337   8.649  20.170  0.00  0.00    +0.000 A 
ATOM      8  N   UNL     1       1.007   9.967  19.870  0.00  0.00    +0.000 NA
ATOM      9  C   UNL     1       1.398  10.270  18.661  0.00  0.00    +0.000 A 
ATOM     10  N   UNL     1       1.207  11.481  18.111  0.00  0.00    +0.000 N 
ATOM     11  S   UNL     1       2.166   9.007  17.797  0.00  0.00    +0.000 S 
ATOM     12  C   UNL     1       1.946   7.956  19.134  0.00  0.00    +0.000 A 
ATOM     13  H   UNL     1       0.513  12.060  18.569  0.00  0.00    +0.000 HD
ATOM     14  H   UNL     1       1.226  11.560  17.104  0.00  0.00    +0.000 HD
ENDBRANCH   1  12
BRANCH   4  15
ATOM     15  C   UNL     1       3.624   3.674  17.517  0.00  0.00    +0.000 C 
BRANCH  15  16
ATOM     16  C   UNL     1       5.017   4.058  17.095  0.00  0.00    +0.000 A 
ATOM     17  C   UNL     1       5.371   4.122  15.744  0.00  0.00    +0.000 A 
ATOM     18  C   UNL     1       6.658   4.513  15.409  0.00  0.00    +0.000 A 
ATOM     19  N   UNL     1       7.600   4.848  16.315  0.00  0.00    +0.000 NA
ATOM     20  C   UNL     1       7.241   4.789  17.614  0.00  0.00    +0.000 A 
ATOM     21  C   UNL     1       5.980   4.407  18.049  0.00  0.00    +0.000 A 
ENDBRANCH  15  16
ENDBRANCH   4  15
TORSDOF 3
ENDMDL
MODEL 7
REMARK VINA RESULT:      -6.4      2.589      6.322
REMARK  Name = 
REMARK  4 active torsions:
REMARK  status: ('A' for Active; 'I' for Inactive)
REMARK    1  A    between atoms: C_1  and  C_2
REMARK    2  A    between atoms: C_7  and  C_8
REMARK    3  A    between atoms: N_11  and  C_12
REMARK    4  A    between atoms: C_12  and  C_13
REMARK                            x       y       z     vdW  Elec       q    Type
REMARK                         _______ _______ _______ _____ _____    ______ ____
ROOT
ATOM      1  C   UNL     1       2.369   6.710  19.672  0.00  0.00    +0.000 A 
ATOM      2  C   UNL     1       1.773   5.675  20.434  0.00  0.00    +0.000 A 
ATOM      3  C   UNL     1       2.632   4.605  20.331  0.00  0.00    +0.000 A 
ATOM      4  N   UNL     1       3.674   5.036  19.561  0.00  0.00    +0.000 N 
ATOM      5  N   UNL     1       3.520   6.301  19.120  0.00  0.00    +0.000 NA
ENDROOT
BRANCH   1  12
ATOM      6  C   UNL     1       1.159   8.598  21.947  0.00  0.00    +0.000 C 
ATOM      7  C   UNL     1       1.291   8.901  20.497  0.00  0.00    +0.000 A 
ATOM      8  N   UNL     1       0.828  10.137  20.055  0.00  0.00    +0.000 NA
ATOM      9  C   UNL     1       1.070  10.284  18.780  0.00  0.00    +0.000 A 
ATOM     10  N   UNL     1       0.727  11.386  18.093  0.00  0.00    +0.000 N 
ATOM     11  S   UNL     1       1.847   8.962  18.020  0.00  0.00    +0.000 S 
ATOM     12  C   UNL     1       1.847   8.106  19.506  0.00  0.00    +0.000 A 
ATOM     13  H   UNL     1       0.038  11.980  18.540  0.00  0.00    +0.000 HD
ATOM     14  H   UNL     1       0.639  11.319  17.088  0.00  0.00    +0.000 HD
ENDBRANCH   1  12
BRANCH   4  15
ATOM     15  C   UNL     1       4.930   4.333  19.324  0.00  0.00    +0.000 C 
BRANCH  15  16
ATOM     16  C   UNL     1       5.741   4.942  18.212  0.00  0.00    +0.000 A 
ATOM     17  C   UNL     1       6.742   5.882  18.478  0.00  0.00    +0.000 A 
ATOM     18  C   UNL     1       7.481   6.386  17.419  0.00  0.00    +0.000 A 
ATOM     19  N   UNL     1       7.300   6.018  16.134  0.00  0.00    +0.000 NA
ATOM     20  C   UNL     1       6.336   5.104  15.895  0.00  0.00    +0.000 A 
ATOM     21  C   UNL     1       5.543   4.544  16.885  0.00  0.00    +0.000 A 
ENDBRANCH  15  16
ENDBRANCH   4  15
TORSDOF 3
ENDMDL
MODEL 8
REMARK VINA RESULT:      -6.4      2.003      6.793
REMARK  Name = 
REMARK  4 active torsions:
REMARK  status: ('A' for Active; 'I' for Inactive)
REMARK    1  A    between atoms: C_1  and  C_2
REMARK    2  A    between atoms: C_7  and  C_8
REMARK    3  A    between atoms: N_11  and  C_12
REMARK    4  A    between atoms: C_12  and  C_13
REMARK                            x       y       z     vdW  Elec       q    Type
REMARK                         _______ _______ _______ _____ _____    ______ ____
ROOT
ATOM      1  C   UNL     1       4.309   5.328  18.260  0.00  0.00    +0.000 A 
ATOM      2  C   UNL     1       3.934   6.351  17.353  0.00  0.00    +0.000 A 
ATOM      3  C   UNL     1       5.006   6.499  16.505  0.00  0.00    +0.000 A 
ATOM      4  N   UNL     1       5.933   5.580  16.910  0.00  0.00    +0.000 N 
ATOM      5  N   UNL     1       5.545   4.881  17.996  0.00  0.00    +0.000 NA
ENDROOT
BRANCH   1  12
ATOM      6  C   UNL     1       2.139   6.875  20.021  0.00  0.00    +0.000 C 
ATOM      7  C   UNL     1       2.550   5.450  20.139  0.00  0.00    +0.000 A 
ATOM      8  N   UNL     1       1.943   4.688  21.133  0.00  0.00    +0.000 NA
ATOM      9  C   UNL     1       2.355   3.450  21.071  0.00  0.00    +0.000 A 
ATOM     10  N   UNL     1       1.930   2.494  21.915  0.00  0.00    +0.000 N 
ATOM     11  S   UNL     1       3.498   3.113  19.843  0.00  0.00    +0.000 S 
ATOM     12  C   UNL     1       3.463   4.758  19.358  0.00  0.00    +0.000 A 
ATOM     13  H   UNL     1       1.488   2.831  22.764  0.00  0.00    +0.000 HD
ATOM     14  H   UNL     1       2.501   1.669  22.034  0.00  0.00    +0.000 HD
ENDBRANCH   1  12
BRANCH   4  15
ATOM     15  C   UNL     1       7.158   5.213  16.210  0.00  0.00    +0.000 C 
BRANCH  15  16
ATOM     16  C   UNL     1       6.913   4.776  14.790  0.00  0.00    +0.000 A 
ATOM     17  C   UNL     1       7.723   5.230  13.744  0.00  0.00    +0.000 A 
ATOM     18  C   UNL     1       7.474   4.770  12.460  0.00  0.00    +0.000 A 
ATOM     19  N   UNL     1       6.494   3.895  12.153  0.00  0.00    +0.000 NA
ATOM     20  C   UNL     1       5.727   3.460  13.175  0.00  0.00    +0.000 A 
ATOM     21  C   UNL     1       5.895   3.864  14.491  0.00  0.00    +0.000 A 
ENDBRANCH  15  16
ENDBRANCH   4  15
TORSDOF 3
ENDMDL
MODEL 9
REMARK VINA RESULT:      -6.4      3.701      6.167
REMARK  Name = 
REMARK  4 active torsions:
REMARK  status: ('A' for Active; 'I' for Inactive)
REMARK    1  A    between atoms: C_1  and  C_2
REMARK    2  A    between atoms: C_7  and  C_8
REMARK    3  A    between atoms: N_11  and  C_12
REMARK    4  A    between atoms: C_12  and  C_13
REMARK                            x       y       z     vdW  Elec       q    Type
REMARK                         _______ _______ _______ _____ _____    ______ ____
ROOT
ATOM      1  C   UNL     1       2.208   7.234  19.702  0.00  0.00    +0.000 A 
ATOM      2  C   UNL     1       1.417   7.652  20.800  0.00  0.00    +0.000 A 
ATOM      3  C   UNL     1       0.936   8.894  20.453  0.00  0.00    +0.000 A 
ATOM      4  N   UNL     1       1.422   9.145  19.201  0.00  0.00    +0.000 N 
ATOM      5  N   UNL     1       2.226   8.166  18.738  0.00  0.00    +0.000 NA
ENDROOT
BRANCH   1  12
ATOM      6  C   UNL     1       1.071   4.345  20.450  0.00  0.00    +0.000 C 
ATOM      7  C   UNL     1       2.424   4.676  19.928  0.00  0.00    +0.000 A 
ATOM      8  N   UNL     1       3.318   3.624  19.750  0.00  0.00    +0.000 NA
ATOM      9  C   UNL     1       4.433   4.060  19.228  0.00  0.00    +0.000 A 
ATOM     10  N   UNL     1       5.474   3.256  18.950  0.00  0.00    +0.000 N 
ATOM     11  S   UNL     1       4.499   5.743  18.928  0.00  0.00    +0.000 S 
ATOM     12  C   UNL     1       2.917   5.921  19.564  0.00  0.00    +0.000 A 
ATOM     13  H   UNL     1       5.458   2.352  19.409  0.00  0.00    +0.000 HD
ATOM     14  H   UNL     1       6.391   3.670  18.862  0.00  0.00    +0.000 HD
ENDBRANCH   1  12
BRANCH   4  15
ATOM     15  C   UNL     1       1.038  10.244  18.324  0.00  0.00    +0.000 C 
BRANCH  15  16
ATOM     16  C   UNL     1      -0.449  10.480  18.297  0.00  0.00    +0.000 A 
ATOM     17  C   UNL     1      -1.033  11.499  19.056  0.00  0.00    +0.000 A 
ATOM     18  C   UNL     1      -2.403  11.694  18.968  0.00  0.00    +0.000 A 
ATOM     19  N   UNL     1      -3.217  10.960  18.182  0.00  0.00    +0.000 NA
ATOM     20  C   UNL     1      -2.637   9.986  17.449  0.00  0.00    +0.000 A 
ATOM     21  C   UNL     1      -1.277   9.712  17.470  0.00  0.00    +0.000 A 
ENDBRANCH  15  16
ENDBRANCH   4  15
TORSDOF 3
ENDMDL
