MODEL 1
REMARK VINA RESULT:      -7.5      0.000      0.000
REMARK  Name = 
REMARK  6 active torsions:
REMARK  status: ('A' for Active; 'I' for Inactive)
REMARK    1  A    between atoms: C_1  and  C_2
REMARK    2  A    between atoms: C_2  and  C_3
REMARK    3  A    between atoms: C_3  and  C_12
REMARK    4  A    between atoms: C_4  and  C_5
REMARK    5  A    between atoms: C_14  and  O_15
REMARK    6  A    between atoms: C_17  and  O_18
REMARK                            x       y       z     vdW  Elec       q    Type
REMARK                         _______ _______ _______ _____ _____    ______ ____
ROOT
ATOM      1  C   UNL     1       3.224   6.592  18.141  0.00  0.00    +0.000 C 
ATOM      2  C   UNL     1       4.291   7.034  17.444  0.00  0.00    +0.000 C 
ENDROOT
BRANCH   2   3
ATOM      3  C   UNL     1       5.277   6.163  16.803  0.00  0.00    +0.000 A 
ATOM      4  C   UNL     1       5.148   5.855  15.441  0.00  0.00    +0.000 A 
ATOM      5  C   UNL     1       6.030   4.962  14.829  0.00  0.00    +0.000 A 
ATOM      6  C   UNL     1       7.056   4.381  15.574  0.00  0.00    +0.000 A 
ATOM      7  C   UNL     1       7.203   4.719  16.916  0.00  0.00    +0.000 A 
ATOM      8  F   UNL     1       8.200   4.170  17.623  0.00  0.00    +0.000 F 
ATOM      9  C   UNL     1       6.330   5.606  17.536  0.00  0.00    +0.000 A 
ENDBRANCH   2   3
BRANCH   1  10
ATOM     10  C   UNL     1       2.335   7.612  18.733  0.00  0.00    +0.000 A 
ATOM     11  C   UNL     1       1.815   8.645  17.945  0.00  0.00    +0.000 A 
ATOM     12  C   UNL     1       1.010   9.622  18.532  0.00  0.00    +0.000 A 
ATOM     13  C   UNL     1       0.716   9.591  19.891  0.00  0.00    +0.000 A 
ATOM     14  C   UNL     1       1.238   8.565  20.669  0.00  0.00    +0.000 A 
ATOM     15  C   UNL     1       2.044   7.579  20.104  0.00  0.00    +0.000 A 
BRANCH  12  16
ATOM     16  O   UNL     1       0.488  10.649  17.800  0.00  0.00    +0.000 OA
ATOM     17  H   UNL     1      -0.440  10.773  18.059  0.00  0.00    +0.000 HD
ENDBRANCH  12  16
BRANCH  14  18
ATOM     18  O   UNL     1       0.986   8.495  22.007  0.00  0.00    +0.000 OA
ATOM     19  H   UNL     1       1.646   7.918  22.419  0.00  0.00    +0.000 HD
ENDBRANCH  14  18
ENDBRANCH   1  10
BRANCH   1  21
ATOM     20  C   UNL     1       1.726   4.564  17.708  0.00  0.00    +0.000 C 
ATOM     21  C   UNL     1       2.908   5.150  18.473  0.00  0.00    +0.000 C 
ENDBRANCH   1  21
TORSDOF 5
ENDMDL
MODEL 2
REMARK VINA RESULT:      -7.4      0.105      1.899
REMARK  Name = 
REMARK  6 active torsions:
REMARK  status: ('A' for Active; 'I' for Inactive)
REMARK    1  A    between atoms: C_1  and  C_2
REMARK    2  A    between atoms: C_2  and  C_3
REMARK    3  A    between atoms: C_3  and  C_12
REMARK    4  A    between atoms: C_4  and  C_5
REMARK    5  A    between atoms: C_14  and  O_15
REMARK    6  A    between atoms: C_17  and  O_18
REMARK                            x       y       z     vdW  Elec       q    Type
REMARK                         _______ _______ _______ _____ _____    ______ ____
ROOT
ATOM      1  C   UNL     1       3.215   6.641  18.229  0.00  0.00    +0.000 C 
ATOM      2  C   UNL     1       4.268   7.073  17.504  0.00  0.00    +0.000 C 
ENDROOT
BRANCH   2   3
ATOM      3  C   UNL     1       5.239   6.192  16.853  0.00  0.00    +0.000 A 
ATOM      4  C   UNL     1       5.089   5.881  15.493  0.00  0.00    +0.000 A 
ATOM      5  C   UNL     1       5.956   4.979  14.872  0.00  0.00    +0.000 A 
ATOM      6  C   UNL     1       6.987   4.393  15.605  0.00  0.00    +0.000 A 
ATOM      7  C   UNL     1       7.155   4.734  16.944  0.00  0.00    +0.000 A 
ATOM      8  F   UNL     1       8.157   4.179  17.640  0.00  0.00    +0.000 F 
ATOM      9  C   UNL     1       6.297   5.630  17.573  0.00  0.00    +0.000 A 
ENDBRANCH   2   3
BRANCH   1  10
ATOM     10  C   UNL     1       2.341   7.670  18.828  0.00  0.00    +0.000 A 
ATOM     11  C   UNL     1       2.023   7.627  20.190  0.00  0.00    +0.000 A 
ATOM     12  C   UNL     1       1.163   8.585  20.728  0.00  0.00    +0.000 A 
ATOM     13  C   UNL     1       0.610   9.582  19.932  0.00  0.00    +0.000 A 
ATOM     14  C   UNL     1       0.926   9.617  18.580  0.00  0.00    +0.000 A 
ATOM     15  C   UNL     1       1.784   8.672  18.022  0.00  0.00    +0.000 A 
BRANCH  12  16
ATOM     16  O   UNL     1       0.822   8.575  22.049  0.00  0.00    +0.000 OA
ATOM     17  H   UNL     1       1.007   7.693  22.410  0.00  0.00    +0.000 HD
ENDBRANCH  12  16
BRANCH  14  18
ATOM     18  O   UNL     1       0.403  10.571  17.756  0.00  0.00    +0.000 OA
ATOM     19  H   UNL     1       0.130  11.329  18.293  0.00  0.00    +0.000 HD
ENDBRANCH  14  18
ENDBRANCH   1  10
BRANCH   1  21
ATOM     20  C   UNL     1       1.901   4.521  17.663  0.00  0.00    +0.000 C 
ATOM     21  C   UNL     1       2.905   5.203  18.585  0.00  0.00    +0.000 C 
ENDBRANCH   1  21
TORSDOF 5
ENDMDL
MODEL 3
REMARK VINA RESULT:      -7.3      4.652      7.192
REMARK  Name = 
REMARK  6 active torsions:
REMARK  status: ('A' for Active; 'I' for Inactive)
REMARK    1  A    between atoms: C_1  and  C_2
REMARK    2  A    between atoms: C_2  and  C_3
REMARK    3  A    between atoms: C_3  and  C_12
REMARK    4  A    between atoms: C_4  and  C_5
REMARK    5  A    between atoms: C_14  and  O_15
REMARK    6  A    between atoms: C_17  and  O_18
REMARK                            x       y       z     vdW  Elec       q    Type
REMARK                         _______ _______ _______ _____ _____    ______ ____
ROOT
ATOM      1  C   UNL     1       5.066   4.554  16.287  0.00  0.00    +0.000 C 
ATOM      2  C   UNL     1       4.222   3.545  16.588  0.00  0.00    +0.000 C 
ENDROOT
BRANCH   2   3
ATOM      3  C   UNL     1       3.424   3.473  17.813  0.00  0.00    +0.000 A 
ATOM      4  C   UNL     1       2.150   4.058  17.846  0.00  0.00    +0.000 A 
ATOM      5  C   UNL     1       1.405   4.070  19.028  0.00  0.00    +0.000 A 
ATOM      6  C   UNL     1       1.927   3.487  20.181  0.00  0.00    +0.000 A 
ATOM      7  C   UNL     1       3.176   2.874  20.134  0.00  0.00    +0.000 A 
ATOM      8  F   UNL     1       3.666   2.301  21.242  0.00  0.00    +0.000 F 
ATOM      9  C   UNL     1       3.926   2.857  18.963  0.00  0.00    +0.000 A 
ENDBRANCH   2   3
BRANCH   1  10
ATOM     10  C   UNL     1       5.803   4.461  15.011  0.00  0.00    +0.000 A 
ATOM     11  C   UNL     1       6.956   5.226  14.798  0.00  0.00    +0.000 A 
ATOM     12  C   UNL     1       7.614   5.153  13.570  0.00  0.00    +0.000 A 
ATOM     13  C   UNL     1       7.143   4.336  12.549  0.00  0.00    +0.000 A 
ATOM     14  C   UNL     1       5.996   3.581  12.765  0.00  0.00    +0.000 A 
ATOM     15  C   UNL     1       5.323   3.638  13.983  0.00  0.00    +0.000 A 
BRANCH  12  16
ATOM     16  O   UNL     1       8.737   5.887  13.320  0.00  0.00    +0.000 OA
ATOM     17  H   UNL     1       9.414   5.299  12.949  0.00  0.00    +0.000 HD
ENDBRANCH  12  16
BRANCH  14  18
ATOM     18  O   UNL     1       5.490   2.771  11.791  0.00  0.00    +0.000 OA
ATOM     19  H   UNL     1       6.162   2.653  11.104  0.00  0.00    +0.000 HD
ENDBRANCH  14  18
ENDBRANCH   1  10
BRANCH   1  21
ATOM     20  C   UNL     1       4.462   6.906  17.093  0.00  0.00    +0.000 C 
ATOM     21  C   UNL     1       5.418   5.722  17.185  0.00  0.00    +0.000 C 
ENDBRANCH   1  21
TORSDOF 5
ENDMDL
MODEL 4
REMARK VINA RESULT:      -7.2      4.642      7.188
REMARK  Name = 
REMARK  6 active torsions:
REMARK  status: ('A' for Active; 'I' for Inactive)
REMARK    1  A    between atoms: C_1  and  C_2
REMARK    2  A    between atoms: C_2  and  C_3
REMARK    3  A    between atoms: C_3  and  C_12
REMARK    4  A    between atoms: C_4  and  C_5
REMARK    5  A    between atoms: C_14  and  O_15
REMARK    6  A    between atoms: C_17  and  O_18
REMARK                            x       y       z     vdW  Elec       q    Type
REMARK                         _______ _______ _______ _____ _____    ______ ____
ROOT
ATOM      1  C   UNL     1       5.058   4.575  16.237  0.00  0.00    +0.000 C 
ATOM      2  C   UNL     1       4.208   3.572  16.542  0.00  0.00    +0.000 C 
ENDROOT
BRANCH   2   3
ATOM      3  C   UNL     1       3.439   3.490  17.784  0.00  0.00    +0.000 A 
ATOM      4  C   UNL     1       2.169   4.082  17.853  0.00  0.00    +0.000 A 
ATOM      5  C   UNL     1       1.452   4.085  19.052  0.00  0.00    +0.000 A 
ATOM      6  C   UNL     1       1.997   3.486  20.187  0.00  0.00    +0.000 A 
ATOM      7  C   UNL     1       3.241   2.866  20.104  0.00  0.00    +0.000 A 
ATOM      8  F   UNL     1       3.753   2.277  21.193  0.00  0.00    +0.000 F 
ATOM      9  C   UNL     1       3.964   2.858  18.915  0.00  0.00    +0.000 A 
ENDBRANCH   2   3
BRANCH   1  10
ATOM     10  C   UNL     1       5.763   4.493  14.942  0.00  0.00    +0.000 A 
ATOM     11  C   UNL     1       5.310   3.626  13.941  0.00  0.00    +0.000 A 
ATOM     12  C   UNL     1       6.015   3.533  12.740  0.00  0.00    +0.000 A 
ATOM     13  C   UNL     1       7.163   4.285  12.519  0.00  0.00    +0.000 A 
ATOM     14  C   UNL     1       7.609   5.141  13.519  0.00  0.00    +0.000 A 
ATOM     15  C   UNL     1       6.922   5.250  14.726  0.00  0.00    +0.000 A 
BRANCH  12  16
ATOM     16  O   UNL     1       5.611   2.696  11.740  0.00  0.00    +0.000 OA
ATOM     17  H   UNL     1       6.288   2.697  11.044  0.00  0.00    +0.000 HD
ENDBRANCH  12  16
BRANCH  14  18
ATOM     18  O   UNL     1       8.736   5.893  13.354  0.00  0.00    +0.000 OA
ATOM     19  H   UNL     1       8.556   6.794  13.660  0.00  0.00    +0.000 HD
ENDBRANCH  14  18
ENDBRANCH   1  10
BRANCH   1  21
ATOM     20  C   UNL     1       4.505   6.922  17.092  0.00  0.00    +0.000 C 
ATOM     21  C   UNL     1       5.446   5.723  17.144  0.00  0.00    +0.000 C 
ENDBRANCH   1  21
TORSDOF 5
ENDMDL
MODEL 5
REMARK VINA RESULT:      -7.2      1.049      1.523
REMARK  Name = 
REMARK  6 active torsions:
REMARK  status: ('A' for Active; 'I' for Inactive)
REMARK    1  A    between atoms: C_1  and  C_2
REMARK    2  A    between atoms: C_2  and  C_3
REMARK    3  A    between atoms: C_3  and  C_12
REMARK    4  A    between atoms: C_4  and  C_5
REMARK    5  A    between atoms: C_14  and  O_15
REMARK    6  A    between atoms: C_17  and  O_18
REMARK                            x       y       z     vdW  Elec       q    Type
REMARK                         _______ _______ _______ _____ _____    ______ ____
ROOT
ATOM      1  C   UNL     1       3.158   6.534  18.257  0.00  0.00    +0.000 C 
ATOM      2  C   UNL     1       4.242   6.923  17.553  0.00  0.00    +0.000 C 
ENDROOT
BRANCH   2   3
ATOM      3  C   UNL     1       5.199   6.004  16.937  0.00  0.00    +0.000 A 
ATOM      4  C   UNL     1       6.308   5.561  17.674  0.00  0.00    +0.000 A 
ATOM      5  C   UNL     1       7.276   4.748  17.080  0.00  0.00    +0.000 A 
ATOM      6  C   UNL     1       7.135   4.363  15.747  0.00  0.00    +0.000 A 
ATOM      7  C   UNL     1       6.014   4.774  15.031  0.00  0.00    +0.000 A 
ATOM      8  F   UNL     1       5.875   4.388  13.755  0.00  0.00    +0.000 F 
ATOM      9  C   UNL     1       5.044   5.584  15.613  0.00  0.00    +0.000 A 
ENDBRANCH   2   3
BRANCH   1  10
ATOM     10  C   UNL     1       2.302   7.597  18.821  0.00  0.00    +0.000 A 
ATOM     11  C   UNL     1       1.835   8.638  18.009  0.00  0.00    +0.000 A 
ATOM     12  C   UNL     1       1.061   9.655  18.570  0.00  0.00    +0.000 A 
ATOM     13  C   UNL     1       0.747   9.656  19.924  0.00  0.00    +0.000 A 
ATOM     14  C   UNL     1       1.216   8.622  20.725  0.00  0.00    +0.000 A 
ATOM     15  C   UNL     1       1.990   7.596  20.187  0.00  0.00    +0.000 A 
BRANCH  12  16
ATOM     16  O   UNL     1       0.592  10.691  17.816  0.00  0.00    +0.000 OA
ATOM     17  H   UNL     1       0.686  10.459  16.878  0.00  0.00    +0.000 HD
ENDBRANCH  12  16
BRANCH  14  18
ATOM     18  O   UNL     1       0.942   8.583  22.061  0.00  0.00    +0.000 OA
ATOM     19  H   UNL     1       1.210   7.719  22.408  0.00  0.00    +0.000 HD
ENDBRANCH  14  18
ENDBRANCH   1  10
BRANCH   1  21
ATOM     20  C   UNL     1       1.766   4.460  17.703  0.00  0.00    +0.000 C 
ATOM     21  C   UNL     1       2.794   5.111  18.623  0.00  0.00    +0.000 C 
ENDBRANCH   1  21
TORSDOF 5
ENDMDL
MODEL 6
REMARK VINA RESULT:      -7.1      1.054      2.433
REMARK  Name = 
REMARK  6 active torsions:
REMARK  status: ('A' for Active; 'I' for Inactive)
REMARK    1  A    between atoms: C_1  and  C_2
REMARK    2  A    between atoms: C_2  and  C_3
REMARK    3  A    between atoms: C_3  and  C_12
REMARK    4  A    between atoms: C_4  and  C_5
REMARK    5  A    between atoms: C_14  and  O_15
REMARK    6  A    between atoms: C_17  and  O_18
REMARK                            x       y       z     vdW  Elec       q    Type
REMARK                         _______ _______ _______ _____ _____    ______ ____
ROOT
ATOM      1  C   UNL     1       3.129   6.601  18.356  0.00  0.00    +0.000 C 
ATOM      2  C   UNL     1       4.215   6.981  17.652  0.00  0.00    +0.000 C 
ENDROOT
BRANCH   2   3
ATOM      3  C   UNL     1       5.161   6.054  17.030  0.00  0.00    +0.000 A 
ATOM      4  C   UNL     1       6.275   5.608  17.757  0.00  0.00    +0.000 A 
ATOM      5  C   UNL     1       7.233   4.788  17.155  0.00  0.00    +0.000 A 
ATOM      6  C   UNL     1       7.075   4.399  15.826  0.00  0.00    +0.000 A 
ATOM      7  C   UNL     1       5.949   4.813  15.120  0.00  0.00    +0.000 A 
ATOM      8  F   UNL     1       5.794   4.423  13.847  0.00  0.00    +0.000 F 
ATOM      9  C   UNL     1       4.990   5.631  15.709  0.00  0.00    +0.000 A 
ENDBRANCH   2   3
BRANCH   1  10
ATOM     10  C   UNL     1       2.286   7.671  18.927  0.00  0.00    +0.000 A 
ATOM     11  C   UNL     1       1.947   7.660  20.286  0.00  0.00    +0.000 A 
ATOM     12  C   UNL     1       1.117   8.658  20.797  0.00  0.00    +0.000 A 
ATOM     13  C   UNL     1       0.614   9.664  19.979  0.00  0.00    +0.000 A 
ATOM     14  C   UNL     1       0.951   9.667  18.631  0.00  0.00    +0.000 A 
ATOM     15  C   UNL     1       1.779   8.681  18.099  0.00  0.00    +0.000 A 
BRANCH  12  16
ATOM     16  O   UNL     1       0.758   8.681  22.113  0.00  0.00    +0.000 OA
ATOM     17  H   UNL     1       0.452   9.575  22.335  0.00  0.00    +0.000 HD
ENDBRANCH  12  16
BRANCH  14  18
ATOM     18  O   UNL     1       0.476  10.628  17.787  0.00  0.00    +0.000 OA
ATOM     19  H   UNL     1       1.171  11.288  17.645  0.00  0.00    +0.000 HD
ENDBRANCH  14  18
ENDBRANCH   1  10
BRANCH   1  21
ATOM     20  C   UNL     1       1.793   4.510  17.735  0.00  0.00    +0.000 C 
ATOM     21  C   UNL     1       2.749   5.180  18.715  0.00  0.00    +0.000 C 
ENDBRANCH   1  21
TORSDOF 5
ENDMDL
MODEL 7
REMARK VINA RESULT:      -7.0      3.587      5.042
REMARK  Name = 
REMARK  6 active torsions:
REMARK  status: ('A' for Active; 'I' for Inactive)
REMARK    1  A    between atoms: C_1  and  C_2
REMARK    2  A    between atoms: C_2  and  C_3
REMARK    3  A    between atoms: C_3  and  C_12
REMARK    4  A    between atoms: C_4  and  C_5
REMARK    5  A    between atoms: C_14  and  O_15
REMARK    6  A    between atoms: C_17  and  O_18
REMARK                            x       y       z     vdW  Elec       q    Type
REMARK                         _______ _______ _______ _____ _____    ______ ____
ROOT
ATOM      1  C   UNL     1       4.934   4.637  16.551  0.00  0.00    +0.000 C 
ATOM      2  C   UNL     1       5.409   3.722  15.681  0.00  0.00    +0.000 C 
ENDROOT
BRANCH   2   3
ATOM      3  C   UNL     1       6.048   4.048  14.405  0.00  0.00    +0.000 A 
ATOM      4  C   UNL     1       5.548   3.494  13.218  0.00  0.00    +0.000 A 
ATOM      5  C   UNL     1       6.191   3.728  12.000  0.00  0.00    +0.000 A 
ATOM      6  C   UNL     1       7.332   4.529  11.962  0.00  0.00    +0.000 A 
ATOM      7  C   UNL     1       7.802   5.108  13.137  0.00  0.00    +0.000 A 
ATOM      8  F   UNL     1       8.889   5.889  13.091  0.00  0.00    +0.000 F 
ATOM      9  C   UNL     1       7.170   4.881  14.355  0.00  0.00    +0.000 A 
ENDBRANCH   2   3
BRANCH   1  10
ATOM     10  C   UNL     1       4.308   4.131  17.789  0.00  0.00    +0.000 A 
ATOM     11  C   UNL     1       5.011   3.271  18.641  0.00  0.00    +0.000 A 
ATOM     12  C   UNL     1       4.386   2.772  19.784  0.00  0.00    +0.000 A 
ATOM     13  C   UNL     1       3.073   3.110  20.093  0.00  0.00    +0.000 A 
ATOM     14  C   UNL     1       2.380   3.962  19.241  0.00  0.00    +0.000 A 
ATOM     15  C   UNL     1       2.983   4.473  18.095  0.00  0.00    +0.000 A 
BRANCH  12  16
ATOM     16  O   UNL     1       5.033   1.926  20.637  0.00  0.00    +0.000 OA
ATOM     17  H   UNL     1       5.540   1.285  20.113  0.00  0.00    +0.000 HD
ENDBRANCH  12  16
BRANCH  14  18
ATOM     18  O   UNL     1       1.087   4.316  19.496  0.00  0.00    +0.000 OA
ATOM     19  H   UNL     1       0.500   3.657  19.097  0.00  0.00    +0.000 HD
ENDBRANCH  14  18
ENDBRANCH   1  10
BRANCH   1  21
ATOM     20  C   UNL     1       5.853   6.939  17.186  0.00  0.00    +0.000 C 
ATOM     21  C   UNL     1       4.880   6.134  16.332  0.00  0.00    +0.000 C 
ENDBRANCH   1  21
TORSDOF 5
ENDMDL
MODEL 8
REMARK VINA RESULT:      -7.0      3.400      4.823
REMARK  Name = 
REMARK  6 active torsions:
REMARK  status: ('A' for Active; 'I' for Inactive)
REMARK    1  A    between atoms: C_1  and  C_2
REMARK    2  A    between atoms: C_2  and  C_3
REMARK    3  A    between atoms: C_3  and  C_12
REMARK    4  A    between atoms: C_4  and  C_5
REMARK    5  A    between atoms: C_14  and  O_15
REMARK    6  A    between atoms: C_17  and  O_18
REMARK                            x       y       z     vdW  Elec       q    Type
REMARK                         _______ _______ _______ _____ _____    ______ ____
ROOT
ATOM      1  C   UNL     1       4.971   4.698  16.511  0.00  0.00    +0.000 C 
ATOM      2  C   UNL     1       5.422   3.767  15.645  0.00  0.00    +0.000 C 
ENDROOT
BRANCH   2   3
ATOM      3  C   UNL     1       6.060   4.072  14.364  0.00  0.00    +0.000 A 
ATOM      4  C   UNL     1       5.563   3.494  13.186  0.00  0.00    +0.000 A 
ATOM      5  C   UNL     1       6.205   3.708  11.964  0.00  0.00    +0.000 A 
ATOM      6  C   UNL     1       7.343   4.512  11.911  0.00  0.00    +0.000 A 
ATOM      7  C   UNL     1       7.810   5.115  13.075  0.00  0.00    +0.000 A 
ATOM      8  F   UNL     1       8.895   5.900  13.016  0.00  0.00    +0.000 F 
ATOM      9  C   UNL     1       7.179   4.908  14.298  0.00  0.00    +0.000 A 
ENDBRANCH   2   3
BRANCH   1  10
ATOM     10  C   UNL     1       4.341   4.212  17.756  0.00  0.00    +0.000 A 
ATOM     11  C   UNL     1       3.141   4.772  18.210  0.00  0.00    +0.000 A 
ATOM     12  C   UNL     1       2.584   4.327  19.410  0.00  0.00    +0.000 A 
ATOM     13  C   UNL     1       3.202   3.338  20.167  0.00  0.00    +0.000 A 
ATOM     14  C   UNL     1       4.395   2.788  19.712  0.00  0.00    +0.000 A 
ATOM     15  C   UNL     1       4.969   3.217  18.517  0.00  0.00    +0.000 A 
BRANCH  12  16
ATOM     16  O   UNL     1       1.419   4.850  19.891  0.00  0.00    +0.000 OA
ATOM     17  H   UNL     1       1.364   5.781  19.623  0.00  0.00    +0.000 HD
ENDBRANCH  12  16
BRANCH  14  18
ATOM     18  O   UNL     1       5.044   1.822  20.423  0.00  0.00    +0.000 OA
ATOM     19  H   UNL     1       4.906   1.985  21.368  0.00  0.00    +0.000 HD
ENDBRANCH  14  18
ENDBRANCH   1  10
BRANCH   1  21
ATOM     20  C   UNL     1       5.935   6.986  17.127  0.00  0.00    +0.000 C 
ATOM     21  C   UNL     1       4.944   6.194  16.282  0.00  0.00    +0.000 C 
ENDBRANCH   1  21
TORSDOF 5
ENDMDL
MODEL 9
REMARK VINA RESULT:      -7.0      4.804      7.302
REMARK  Name = 
REMARK  6 active torsions:
REMARK  status: ('A' for Active; 'I' for Inactive)
REMARK    1  A    between atoms: C_1  and  C_2
REMARK    2  A    between atoms: C_2  and  C_3
REMARK    3  A    between atoms: C_3  and  C_12
REMARK    4  A    between atoms: C_4  and  C_5
REMARK    5  A    between atoms: C_14  and  O_15
REMARK    6  A    between atoms: C_17  and  O_18
REMARK                            x       y       z     vdW  Elec       q    Type
REMARK                         _______ _______ _______ _____ _____    ______ ____
ROOT
ATOM      1  C   UNL     1       5.170   4.557  16.409  0.00  0.00    +0.000 C 
ATOM      2  C   UNL     1       4.452   3.484  16.801  0.00  0.00    +0.000 C 
ENDROOT
BRANCH   2   3
ATOM      3  C   UNL     1       3.770   3.373  18.091  0.00  0.00    +0.000 A 
ATOM      4  C   UNL     1       4.438   2.791  19.180  0.00  0.00    +0.000 A 
ATOM      5  C   UNL     1       3.779   2.602  20.397  0.00  0.00    +0.000 A 
ATOM      6  C   UNL     1       2.452   3.005  20.536  0.00  0.00    +0.000 A 
ATOM      7  C   UNL     1       1.806   3.616  19.466  0.00  0.00    +0.000 A 
ATOM      8  F   UNL     1       0.535   4.016  19.610  0.00  0.00    +0.000 F 
ATOM      9  C   UNL     1       2.452   3.809  18.249  0.00  0.00    +0.000 A 
ENDBRANCH   2   3
BRANCH   1  10
ATOM     10  C   UNL     1       5.802   4.497  15.076  0.00  0.00    +0.000 A 
ATOM     11  C   UNL     1       5.276   3.668  14.078  0.00  0.00    +0.000 A 
ATOM     12  C   UNL     1       5.911   3.594  12.838  0.00  0.00    +0.000 A 
ATOM     13  C   UNL     1       7.063   4.328  12.575  0.00  0.00    +0.000 A 
ATOM     14  C   UNL     1       7.582   5.146  13.571  0.00  0.00    +0.000 A 
ATOM     15  C   UNL     1       6.964   5.235  14.816  0.00  0.00    +0.000 A 
BRANCH  12  16
ATOM     16  O   UNL     1       5.435   2.795  11.840  0.00  0.00    +0.000 OA
ATOM     17  H   UNL     1       5.334   3.330  11.036  0.00  0.00    +0.000 HD
ENDBRANCH  12  16
BRANCH  14  18
ATOM     18  O   UNL     1       8.714   5.878  13.365  0.00  0.00    +0.000 OA
ATOM     19  H   UNL     1       8.545   6.795  13.629  0.00  0.00    +0.000 HD
ENDBRANCH  14  18
ENDBRANCH   1  10
BRANCH   1  21
ATOM     20  C   UNL     1       4.461   6.900  17.153  0.00  0.00    +0.000 C 
ATOM     21  C   UNL     1       5.486   5.776  17.250  0.00  0.00    +0.000 C 
ENDBRANCH   1  21
TORSDOF 5
ENDMDL
