MODEL 1
REMARK VINA RESULT:      -8.2      0.000      0.000
REMARK  Name = 
REMARK  9 active torsions:
REMARK  status: ('A' for Active; 'I' for Inactive)
REMARK    1  A    between atoms: C_2  and  C_12
REMARK    2  A    between atoms: N_3  and  C_4
REMARK    3  A    between atoms: C_4  and  C_5
REMARK    4  A    between atoms: C_14  and  C_15
REMARK    5  A    between atoms: C_15  and  C_16
REMARK    6  A    between atoms: C_16  and  N_17
REMARK    7  A    between atoms: N_17  and  C_18
REMARK    8  A    between atoms: C_18  and  C_19
REMARK    9  A    between atoms: C_19  and  C_20
REMARK                            x       y       z     vdW  Elec       q    Type
REMARK                         _______ _______ _______ _____ _____    ______ ____
ROOT
ATOM      1  C   UNL     1       1.567   9.229  18.697  0.00  0.00    +0.000 A 
ATOM      2  N   UNL     1       2.336   8.925  17.546  0.00  0.00    +0.000 NA
ATOM      3  C   UNL     1       2.980   7.777  17.715  0.00  0.00    +0.000 A 
ATOM      4  S   UNL     1       2.683   6.987  19.218  0.00  0.00    +0.000 S 
ATOM      5  C   UNL     1       1.653   8.252  19.671  0.00  0.00    +0.000 A 
ATOM      6 CL   UNL     1       0.897   8.148  21.214  0.00  0.00    +0.000 Cl
ENDROOT
BRANCH   1   8
ATOM      7  O   UNL     1       1.013  11.295  19.726  0.00  0.00    +0.000 OA
ATOM      8  C   UNL     1       0.769  10.458  18.857  0.00  0.00    +0.000 C 
ATOM      9  N   UNL     1      -0.284  10.656  17.987  0.00  0.00    +0.000 N 
ATOM     10  H   UNL     1      -0.522   9.967  17.281  0.00  0.00    +0.000 HD
BRANCH   9  11
ATOM     11  C   UNL     1      -1.097  11.851  18.138  0.00  0.00    +0.000 C 
BRANCH  11  12
ATOM     12  C   UNL     1      -2.584  11.659  17.985  0.00  0.00    +0.000 A 
ATOM     13  N   UNL     1      -3.403  11.918  19.042  0.00  0.00    +0.000 NA
ATOM     14  C   UNL     1      -4.733  11.717  18.843  0.00  0.00    +0.000 A 
ATOM     15  C   UNL     1      -5.290  11.273  17.650  0.00  0.00    +0.000 A 
ATOM     16  C   UNL     1      -4.438  11.019  16.584  0.00  0.00    +0.000 A 
ATOM     17  C   UNL     1      -3.074  11.211  16.754  0.00  0.00    +0.000 A 
ATOM     18  F   UNL     1      -2.242  10.968  15.733  0.00  0.00    +0.000 F 
ENDBRANCH  11  12
ENDBRANCH   9  11
ENDBRANCH   1   8
BRANCH   3  19
ATOM     19  C   UNL     1       3.949   7.131  16.747  0.00  0.00    +0.000 C 
BRANCH  19  20
ATOM     20  C   UNL     1       5.299   6.812  17.418  0.00  0.00    +0.000 C 
BRANCH  20  21
ATOM     21  N   UNL     1       6.325   6.276  16.491  0.00  0.00    +0.000 NA
ATOM     22  H   UNL     1       7.198   6.785  16.627  0.00  0.00    +0.000 HD
BRANCH  21  23
ATOM     23  C   UNL     1       6.563   4.845  16.800  0.00  0.00    +0.000 C 
BRANCH  23  24
ATOM     24  C   UNL     1       5.502   3.897  16.210  0.00  0.00    +0.000 C 
BRANCH  24  25
ATOM     25  C   UNL     1       4.445   3.564  17.222  0.00  0.00    +0.000 A 
ATOM     26  N   UNL     1       3.143   3.611  17.022  0.00  0.00    +0.000 NA
ATOM     27  C   UNL     1       2.562   3.327  18.234  0.00  0.00    +0.000 A 
ATOM     28  C   UNL     1       1.208   3.304  18.596  0.00  0.00    +0.000 A 
ATOM     29  C   UNL     1       0.869   3.024  19.925  0.00  0.00    +0.000 A 
ATOM     30  C   UNL     1       1.857   2.735  20.867  0.00  0.00    +0.000 A 
ATOM     31  C   UNL     1       3.216   2.735  20.521  0.00  0.00    +0.000 A 
ATOM     32  C   UNL     1       3.529   3.056  19.195  0.00  0.00    +0.000 A 
ATOM     33  N   UNL     1       4.720   3.207  18.524  0.00  0.00    +0.000 N 
ATOM     34  H   UNL     1       5.638   3.123  18.934  0.00  0.00    +0.000 HD
ENDBRANCH  24  25
ENDBRANCH  23  24
ENDBRANCH  21  23
ENDBRANCH  20  21
ENDBRANCH  19  20
ENDBRANCH   3  19
TORSDOF 9
ENDMDL
MODEL 2
REMARK VINA RESULT:      -8.1      1.046      1.254
REMARK  Name = 
REMARK  9 active torsions:
REMARK  status: ('A' for Active; 'I' for Inactive)
REMARK    1  A    between atoms: C_2  and  C_12
REMARK    2  A    between atoms: N_3  and  C_4
REMARK    3  A    between atoms: C_4  and  C_5
REMARK    4  A    between atoms: C_14  and  C_15
REMARK    5  A    between atoms: C_15  and  C_16
REMARK    6  A    between atoms: C_16  and  N_17
REMARK    7  A    between atoms: N_17  and  C_18
REMARK    8  A    between atoms: C_18  and  C_19
REMARK    9  A    between atoms: C_19  and  C_20
REMARK                            x       y       z     vdW  Elec       q    Type
REMARK                         _______ _______ _______ _____ _____    ______ ____
ROOT
ATOM      1  C   UNL     1       1.587   9.031  18.841  0.00  0.00    +0.000 A 
ATOM      2  N   UNL     1       2.332   8.825  17.654  0.00  0.00    +0.000 NA
ATOM      3  C   UNL     1       3.055   7.717  17.753  0.00  0.00    +0.000 A 
ATOM      4  S   UNL     1       2.865   6.850  19.230  0.00  0.00    +0.000 S 
ATOM      5  C   UNL     1       1.772   8.024  19.770  0.00  0.00    +0.000 A 
ATOM      6 CL   UNL     1       1.079   7.808  21.331  0.00  0.00    +0.000 Cl
ENDROOT
BRANCH   1   8
ATOM      7  O   UNL     1       0.616  10.731  20.184  0.00  0.00    +0.000 OA
ATOM      8  C   UNL     1       0.716  10.196  19.080  0.00  0.00    +0.000 C 
ATOM      9  N   UNL     1      -0.001  10.689  18.009  0.00  0.00    +0.000 N 
ATOM     10  H   UNL     1       0.044  10.249  17.096  0.00  0.00    +0.000 HD
BRANCH   9  11
ATOM     11  C   UNL     1      -0.880  11.826  18.224  0.00  0.00    +0.000 C 
BRANCH  11  12
ATOM     12  C   UNL     1      -2.324  11.624  17.839  0.00  0.00    +0.000 A 
ATOM     13  N   UNL     1      -2.629  11.258  16.563  0.00  0.00    +0.000 NA
ATOM     14  C   UNL     1      -3.949  11.099  16.276  0.00  0.00    +0.000 A 
ATOM     15  C   UNL     1      -4.979  11.286  17.190  0.00  0.00    +0.000 A 
ATOM     16  C   UNL     1      -4.646  11.654  18.487  0.00  0.00    +0.000 A 
ATOM     17  C   UNL     1      -3.307  11.827  18.813  0.00  0.00    +0.000 A 
ATOM     18  F   UNL     1      -2.974  12.184  20.060  0.00  0.00    +0.000 F 
ENDBRANCH  11  12
ENDBRANCH   9  11
ENDBRANCH   1   8
BRANCH   3  19
ATOM     19  C   UNL     1       4.030   7.176  16.727  0.00  0.00    +0.000 C 
BRANCH  19  20
ATOM     20  C   UNL     1       5.436   6.975  17.325  0.00  0.00    +0.000 C 
BRANCH  20  21
ATOM     21  N   UNL     1       6.347   6.172  16.473  0.00  0.00    +0.000 NA
ATOM     22  H   UNL     1       6.967   5.624  17.070  0.00  0.00    +0.000 HD
BRANCH  21  23
ATOM     23  C   UNL     1       5.544   5.237  15.646  0.00  0.00    +0.000 C 
BRANCH  23  24
ATOM     24  C   UNL     1       5.595   3.777  16.131  0.00  0.00    +0.000 C 
BRANCH  24  25
ATOM     25  C   UNL     1       4.515   3.498  17.135  0.00  0.00    +0.000 A 
ATOM     26  N   UNL     1       3.218   3.583  16.916  0.00  0.00    +0.000 NA
ATOM     27  C   UNL     1       2.612   3.341  18.125  0.00  0.00    +0.000 A 
ATOM     28  C   UNL     1       1.252   3.367  18.468  0.00  0.00    +0.000 A 
ATOM     29  C   UNL     1       0.887   3.124  19.797  0.00  0.00    +0.000 A 
ATOM     30  C   UNL     1       1.852   2.822  20.758  0.00  0.00    +0.000 A 
ATOM     31  C   UNL     1       3.216   2.772  20.431  0.00  0.00    +0.000 A 
ATOM     32  C   UNL     1       3.556   3.058  19.104  0.00  0.00    +0.000 A 
ATOM     33  N   UNL     1       4.760   3.158  18.447  0.00  0.00    +0.000 N 
ATOM     34  H   UNL     1       5.670   3.052  18.871  0.00  0.00    +0.000 HD
ENDBRANCH  24  25
ENDBRANCH  23  24
ENDBRANCH  21  23
ENDBRANCH  20  21
ENDBRANCH  19  20
ENDBRANCH   3  19
TORSDOF 9
ENDMDL
MODEL 3
REMARK VINA RESULT:      -8.0      2.267      3.991
REMARK  Name = 
REMARK  9 active torsions:
REMARK  status: ('A' for Active; 'I' for Inactive)
REMARK    1  A    between atoms: C_2  and  C_12
REMARK    2  A    between atoms: N_3  and  C_4
REMARK    3  A    between atoms: C_4  and  C_5
REMARK    4  A    between atoms: C_14  and  C_15
REMARK    5  A    between atoms: C_15  and  C_16
REMARK    6  A    between atoms: C_16  and  N_17
REMARK    7  A    between atoms: N_17  and  C_18
REMARK    8  A    between atoms: C_18  and  C_19
REMARK    9  A    between atoms: C_19  and  C_20
REMARK                            x       y       z     vdW  Elec       q    Type
REMARK                         _______ _______ _______ _____ _____    ______ ____
ROOT
ATOM      1  C   UNL     1       1.359   8.560  20.225  0.00  0.00    +0.000 A 
ATOM      2  N   UNL     1       1.397   7.372  20.997  0.00  0.00    +0.000 NA
ATOM      3  C   UNL     1       1.962   6.392  20.303  0.00  0.00    +0.000 A 
ATOM      4  S   UNL     1       2.504   6.832  18.727  0.00  0.00    +0.000 S 
ATOM      5  C   UNL     1       1.942   8.408  18.981  0.00  0.00    +0.000 A 
ATOM      6 CL   UNL     1       2.163   9.546  17.709  0.00  0.00    +0.000 Cl
ENDROOT
BRANCH   1   8
ATOM      7  O   UNL     1       0.919  10.262  21.820  0.00  0.00    +0.000 OA
ATOM      8  C   UNL     1       0.753   9.823  20.682  0.00  0.00    +0.000 C 
ATOM      9  N   UNL     1      -0.025  10.523  19.781  0.00  0.00    +0.000 N 
ATOM     10  H   UNL     1      -0.200  10.167  18.847  0.00  0.00    +0.000 HD
BRANCH   9  11
ATOM     11  C   UNL     1      -0.648  11.762  20.216  0.00  0.00    +0.000 C 
BRANCH  11  12
ATOM     12  C   UNL     1      -2.096  11.940  19.831  0.00  0.00    +0.000 A 
ATOM     13  N   UNL     1      -2.560  11.355  18.691  0.00  0.00    +0.000 NA
ATOM     14  C   UNL     1      -3.871  11.560  18.395  0.00  0.00    +0.000 A 
ATOM     15  C   UNL     1      -4.743  12.315  19.170  0.00  0.00    +0.000 A 
ATOM     16  C   UNL     1      -4.250  12.899  20.330  0.00  0.00    +0.000 A 
ATOM     17  C   UNL     1      -2.915  12.711  20.661  0.00  0.00    +0.000 A 
ATOM     18  F   UNL     1      -2.428  13.271  21.776  0.00  0.00    +0.000 F 
ENDBRANCH  11  12
ENDBRANCH   9  11
ENDBRANCH   1   8
BRANCH   3  19
ATOM     19  C   UNL     1       2.140   4.954  20.745  0.00  0.00    +0.000 C 
BRANCH  19  20
ATOM     20  C   UNL     1       0.997   4.055  20.236  0.00  0.00    +0.000 C 
BRANCH  20  21
ATOM     21  N   UNL     1       1.342   3.263  19.030  0.00  0.00    +0.000 NA
ATOM     22  H   UNL     1       1.567   3.899  18.265  0.00  0.00    +0.000 HD
BRANCH  21  23
ATOM     23  C   UNL     1       2.537   2.432  19.317  0.00  0.00    +0.000 C 
BRANCH  23  24
ATOM     24  C   UNL     1       3.509   2.310  18.129  0.00  0.00    +0.000 C 
BRANCH  24  25
ATOM     25  C   UNL     1       4.457   3.472  18.078  0.00  0.00    +0.000 A 
ATOM     26  N   UNL     1       4.591   4.316  17.075  0.00  0.00    +0.000 NA
ATOM     27  C   UNL     1       5.630   5.147  17.414  0.00  0.00    +0.000 A 
ATOM     28  C   UNL     1       6.226   6.183  16.680  0.00  0.00    +0.000 A 
ATOM     29  C   UNL     1       7.315   6.865  17.236  0.00  0.00    +0.000 A 
ATOM     30  C   UNL     1       7.779   6.547  18.513  0.00  0.00    +0.000 A 
ATOM     31  C   UNL     1       7.184   5.526  19.271  0.00  0.00    +0.000 A 
ATOM     32  C   UNL     1       6.122   4.836  18.675  0.00  0.00    +0.000 A 
ATOM     33  N   UNL     1       5.355   3.769  19.080  0.00  0.00    +0.000 N 
ATOM     34  H   UNL     1       5.468   3.259  19.944  0.00  0.00    +0.000 HD
ENDBRANCH  24  25
ENDBRANCH  23  24
ENDBRANCH  21  23
ENDBRANCH  20  21
ENDBRANCH  19  20
ENDBRANCH   3  19
TORSDOF 9
ENDMDL
MODEL 4
REMARK VINA RESULT:      -8.0      0.825      1.293
REMARK  Name = 
REMARK  9 active torsions:
REMARK  status: ('A' for Active; 'I' for Inactive)
REMARK    1  A    between atoms: C_2  and  C_12
REMARK    2  A    between atoms: N_3  and  C_4
REMARK    3  A    between atoms: C_4  and  C_5
REMARK    4  A    between atoms: C_14  and  C_15
REMARK    5  A    between atoms: C_15  and  C_16
REMARK    6  A    between atoms: C_16  and  N_17
REMARK    7  A    between atoms: N_17  and  C_18
REMARK    8  A    between atoms: C_18  and  C_19
REMARK    9  A    between atoms: C_19  and  C_20
REMARK                            x       y       z     vdW  Elec       q    Type
REMARK                         _______ _______ _______ _____ _____    ______ ____
ROOT
ATOM      1  C   UNL     1       1.519   9.126  18.873  0.00  0.00    +0.000 A 
ATOM      2  N   UNL     1       2.246   8.630  17.763  0.00  0.00    +0.000 NA
ATOM      3  C   UNL     1       2.822   7.476  18.071  0.00  0.00    +0.000 A 
ATOM      4  S   UNL     1       2.508   6.906  19.667  0.00  0.00    +0.000 S 
ATOM      5  C   UNL     1       1.565   8.280  19.965  0.00  0.00    +0.000 A 
ATOM      6 CL   UNL     1       0.833   8.422  21.516  0.00  0.00    +0.000 Cl
ENDROOT
BRANCH   1   8
ATOM      7  O   UNL     1       1.125  11.347  19.614  0.00  0.00    +0.000 OA
ATOM      8  C   UNL     1       0.799  10.413  18.882  0.00  0.00    +0.000 C 
ATOM      9  N   UNL     1      -0.275  10.552  18.027  0.00  0.00    +0.000 N 
ATOM     10  H   UNL     1      -0.581   9.787  17.435  0.00  0.00    +0.000 HD
BRANCH   9  11
ATOM     11  C   UNL     1      -1.012  11.805  18.032  0.00  0.00    +0.000 C 
BRANCH  11  12
ATOM     12  C   UNL     1      -2.512  11.686  17.948  0.00  0.00    +0.000 A 
ATOM     13  N   UNL     1      -3.266  11.972  19.046  0.00  0.00    +0.000 NA
ATOM     14  C   UNL     1      -4.613  11.837  18.909  0.00  0.00    +0.000 A 
ATOM     15  C   UNL     1      -5.247  11.434  17.741  0.00  0.00    +0.000 A 
ATOM     16  C   UNL     1      -4.460  11.152  16.632  0.00  0.00    +0.000 A 
ATOM     17  C   UNL     1      -3.081  11.277  16.738  0.00  0.00    +0.000 A 
ATOM     18  F   UNL     1      -2.312  11.005  15.676  0.00  0.00    +0.000 F 
ENDBRANCH  11  12
ENDBRANCH   9  11
ENDBRANCH   1   8
BRANCH   3  19
ATOM     19  C   UNL     1       3.733   6.652  17.184  0.00  0.00    +0.000 C 
BRANCH  19  20
ATOM     20  C   UNL     1       5.076   7.362  16.928  0.00  0.00    +0.000 C 
BRANCH  20  21
ATOM     21  N   UNL     1       6.200   6.842  17.744  0.00  0.00    +0.000 NA
ATOM     22  H   UNL     1       5.826   6.320  18.536  0.00  0.00    +0.000 HD
BRANCH  21  23
ATOM     23  C   UNL     1       7.018   5.920  16.918  0.00  0.00    +0.000 C 
BRANCH  23  24
ATOM     24  C   UNL     1       7.119   4.495  17.492  0.00  0.00    +0.000 C 
BRANCH  24  25
ATOM     25  C   UNL     1       5.788   4.013  17.991  0.00  0.00    +0.000 A 
ATOM     26  N   UNL     1       5.351   4.101  19.231  0.00  0.00    +0.000 NA
ATOM     27  C   UNL     1       4.141   3.451  19.255  0.00  0.00    +0.000 A 
ATOM     28  C   UNL     1       3.280   3.198  20.332  0.00  0.00    +0.000 A 
ATOM     29  C   UNL     1       2.108   2.466  20.103  0.00  0.00    +0.000 A 
ATOM     30  C   UNL     1       1.782   2.027  18.819  0.00  0.00    +0.000 A 
ATOM     31  C   UNL     1       2.621   2.287  17.725  0.00  0.00    +0.000 A 
ATOM     32  C   UNL     1       3.804   2.987  17.990  0.00  0.00    +0.000 A 
ATOM     33  N   UNL     1       4.865   3.363  17.201  0.00  0.00    +0.000 N 
ATOM     34  H   UNL     1       4.972   3.149  16.220  0.00  0.00    +0.000 HD
ENDBRANCH  24  25
ENDBRANCH  23  24
ENDBRANCH  21  23
ENDBRANCH  20  21
ENDBRANCH  19  20
ENDBRANCH   3  19
TORSDOF 9
ENDMDL
MODEL 5
REMARK VINA RESULT:      -8.0      0.868      1.063
REMARK  Name = 
REMARK  9 active torsions:
REMARK  status: ('A' for Active; 'I' for Inactive)
REMARK    1  A    between atoms: C_2  and  C_12
REMARK    2  A    between atoms: N_3  and  C_4
REMARK    3  A    between atoms: C_4  and  C_5
REMARK    4  A    between atoms: C_14  and  C_15
REMARK    5  A    between atoms: C_15  and  C_16
REMARK    6  A    between atoms: C_16  and  N_17
REMARK    7  A    between atoms: N_17  and  C_18
REMARK    8  A    between atoms: C_18  and  C_19
REMARK    9  A    between atoms: C_19  and  C_20
REMARK                            x       y       z     vdW  Elec       q    Type
REMARK                         _______ _______ _______ _____ _____    ______ ____
ROOT
ATOM      1  C   UNL     1       1.333   9.328  18.922  0.00  0.00    +0.000 A 
ATOM      2  N   UNL     1       2.059   8.844  17.806  0.00  0.00    +0.000 NA
ATOM      3  C   UNL     1       2.659   7.700  18.111  0.00  0.00    +0.000 A 
ATOM      4  S   UNL     1       2.368   7.126  19.710  0.00  0.00    +0.000 S 
ATOM      5  C   UNL     1       1.403   8.484  20.014  0.00  0.00    +0.000 A 
ATOM      6 CL   UNL     1       0.682   8.614  21.572  0.00  0.00    +0.000 Cl
ENDROOT
BRANCH   1   8
ATOM      7  O   UNL     1       1.147  11.692  18.804  0.00  0.00    +0.000 OA
ATOM      8  C   UNL     1       0.590  10.602  18.936  0.00  0.00    +0.000 C 
ATOM      9  N   UNL     1      -0.778  10.543  19.102  0.00  0.00    +0.000 N 
ATOM     10  H   UNL     1      -1.256   9.659  19.241  0.00  0.00    +0.000 HD
BRANCH   9  11
ATOM     11  C   UNL     1      -1.529  11.788  19.138  0.00  0.00    +0.000 C 
BRANCH  11  12
ATOM     12  C   UNL     1      -2.914  11.737  18.545  0.00  0.00    +0.000 A 
ATOM     13  N   UNL     1      -3.983  12.086  19.316  0.00  0.00    +0.000 NA
ATOM     14  C   UNL     1      -5.206  12.011  18.726  0.00  0.00    +0.000 A 
ATOM     15  C   UNL     1      -5.422  11.608  17.414  0.00  0.00    +0.000 A 
ATOM     16  C   UNL     1      -4.319  11.260  16.646  0.00  0.00    +0.000 A 
ATOM     17  C   UNL     1      -3.055  11.323  17.217  0.00  0.00    +0.000 A 
ATOM     18  F   UNL     1      -1.984  10.989  16.485  0.00  0.00    +0.000 F 
ENDBRANCH  11  12
ENDBRANCH   9  11
ENDBRANCH   1   8
BRANCH   3  19
ATOM     19  C   UNL     1       3.577   6.892  17.217  0.00  0.00    +0.000 C 
BRANCH  19  20
ATOM     20  C   UNL     1       5.051   7.303  17.391  0.00  0.00    +0.000 C 
BRANCH  20  21
ATOM     21  N   UNL     1       5.972   6.687  16.405  0.00  0.00    +0.000 NA
ATOM     22  H   UNL     1       6.264   7.395  15.731  0.00  0.00    +0.000 HD
BRANCH  21  23
ATOM     23  C   UNL     1       7.177   6.184  17.110  0.00  0.00    +0.000 C 
BRANCH  23  24
ATOM     24  C   UNL     1       7.267   4.649  17.170  0.00  0.00    +0.000 C 
BRANCH  24  25
ATOM     25  C   UNL     1       5.968   4.043  17.616  0.00  0.00    +0.000 A 
ATOM     26  N   UNL     1       4.965   3.704  16.832  0.00  0.00    +0.000 NA
ATOM     27  C   UNL     1       3.955   3.289  17.665  0.00  0.00    +0.000 A 
ATOM     28  C   UNL     1       2.650   2.878  17.357  0.00  0.00    +0.000 A 
ATOM     29  C   UNL     1       1.784   2.540  18.404  0.00  0.00    +0.000 A 
ATOM     30  C   UNL     1       2.219   2.574  19.729  0.00  0.00    +0.000 A 
ATOM     31  C   UNL     1       3.527   2.964  20.056  0.00  0.00    +0.000 A 
ATOM     32  C   UNL     1       4.359   3.333  18.993  0.00  0.00    +0.000 A 
ATOM     33  N   UNL     1       5.647   3.811  18.936  0.00  0.00    +0.000 N 
ATOM     34  H   UNL     1       6.236   4.008  19.732  0.00  0.00    +0.000 HD
ENDBRANCH  24  25
ENDBRANCH  23  24
ENDBRANCH  21  23
ENDBRANCH  20  21
ENDBRANCH  19  20
ENDBRANCH   3  19
TORSDOF 9
ENDMDL
MODEL 6
REMARK VINA RESULT:      -7.8      1.096      1.664
REMARK  Name = 
REMARK  9 active torsions:
REMARK  status: ('A' for Active; 'I' for Inactive)
REMARK    1  A    between atoms: C_2  and  C_12
REMARK    2  A    between atoms: N_3  and  C_4
REMARK    3  A    between atoms: C_4  and  C_5
REMARK    4  A    between atoms: C_14  and  C_15
REMARK    5  A    between atoms: C_15  and  C_16
REMARK    6  A    between atoms: C_16  and  N_17
REMARK    7  A    between atoms: N_17  and  C_18
REMARK    8  A    between atoms: C_18  and  C_19
REMARK    9  A    between atoms: C_19  and  C_20
REMARK                            x       y       z     vdW  Elec       q    Type
REMARK                         _______ _______ _______ _____ _____    ______ ____
ROOT
ATOM      1  C   UNL     1       1.704   9.105  18.657  0.00  0.00    +0.000 A 
ATOM      2  N   UNL     1       2.464   8.820  17.496  0.00  0.00    +0.000 NA
ATOM      3  C   UNL     1       3.141   7.691  17.657  0.00  0.00    +0.000 A 
ATOM      4  S   UNL     1       2.889   6.896  19.165  0.00  0.00    +0.000 S 
ATOM      5  C   UNL     1       1.832   8.133  19.632  0.00  0.00    +0.000 A 
ATOM      6 CL   UNL     1       1.101   8.012  21.186  0.00  0.00    +0.000 Cl
ENDROOT
BRANCH   1   8
ATOM      7  O   UNL     1       1.352  11.448  18.818  0.00  0.00    +0.000 OA
ATOM      8  C   UNL     1       0.876  10.313  18.828  0.00  0.00    +0.000 C 
ATOM      9  N   UNL     1      -0.482  10.138  19.001  0.00  0.00    +0.000 N 
ATOM     10  H   UNL     1      -0.894   9.212  19.041  0.00  0.00    +0.000 HD
BRANCH   9  11
ATOM     11  C   UNL     1      -1.317  11.313  19.189  0.00  0.00    +0.000 C 
BRANCH  11  12
ATOM     12  C   UNL     1      -2.555  11.385  18.332  0.00  0.00    +0.000 A 
ATOM     13  N   UNL     1      -2.489  10.985  17.031  0.00  0.00    +0.000 NA
ATOM     14  C   UNL     1      -3.637  11.083  16.308  0.00  0.00    +0.000 A 
ATOM     15  C   UNL     1      -4.843  11.557  16.809  0.00  0.00    +0.000 A 
ATOM     16  C   UNL     1      -4.889  11.956  18.139  0.00  0.00    +0.000 A 
ATOM     17  C   UNL     1      -3.734  11.872  18.905  0.00  0.00    +0.000 A 
ATOM     18  F   UNL     1      -3.765  12.255  20.188  0.00  0.00    +0.000 F 
ENDBRANCH  11  12
ENDBRANCH   9  11
ENDBRANCH   1   8
BRANCH   3  19
ATOM     19  C   UNL     1       4.114   7.069  16.675  0.00  0.00    +0.000 C 
BRANCH  19  20
ATOM     20  C   UNL     1       5.510   6.881  17.297  0.00  0.00    +0.000 C 
BRANCH  20  21
ATOM     21  N   UNL     1       6.470   6.163  16.424  0.00  0.00    +0.000 NA
ATOM     22  H   UNL     1       7.382   6.617  16.484  0.00  0.00    +0.000 HD
BRANCH  21  23
ATOM     23  C   UNL     1       6.610   4.764  16.898  0.00  0.00    +0.000 C 
BRANCH  23  24
ATOM     24  C   UNL     1       5.509   3.819  16.381  0.00  0.00    +0.000 C 
BRANCH  24  25
ATOM     25  C   UNL     1       4.437   3.617  17.411  0.00  0.00    +0.000 A 
ATOM     26  N   UNL     1       4.629   3.473  18.707  0.00  0.00    +0.000 NA
ATOM     27  C   UNL     1       3.392   3.216  19.248  0.00  0.00    +0.000 A 
ATOM     28  C   UNL     1       3.036   2.926  20.573  0.00  0.00    +0.000 A 
ATOM     29  C   UNL     1       1.694   2.655  20.867  0.00  0.00    +0.000 A 
ATOM     30  C   UNL     1       0.720   2.709  19.868  0.00  0.00    +0.000 A 
ATOM     31  C   UNL     1       1.054   3.015  18.541  0.00  0.00    +0.000 A 
ATOM     32  C   UNL     1       2.408   3.244  18.268  0.00  0.00    +0.000 A 
ATOM     33  N   UNL     1       3.097   3.508  17.108  0.00  0.00    +0.000 N 
ATOM     34  H   UNL     1       2.693   3.558  16.184  0.00  0.00    +0.000 HD
ENDBRANCH  24  25
ENDBRANCH  23  24
ENDBRANCH  21  23
ENDBRANCH  20  21
ENDBRANCH  19  20
ENDBRANCH   3  19
TORSDOF 9
ENDMDL
MODEL 7
REMARK VINA RESULT:      -7.7      2.027      2.650
REMARK  Name = 
REMARK  9 active torsions:
REMARK  status: ('A' for Active; 'I' for Inactive)
REMARK    1  A    between atoms: C_2  and  C_12
REMARK    2  A    between atoms: N_3  and  C_4
REMARK    3  A    between atoms: C_4  and  C_5
REMARK    4  A    between atoms: C_14  and  C_15
REMARK    5  A    between atoms: C_15  and  C_16
REMARK    6  A    between atoms: C_16  and  N_17
REMARK    7  A    between atoms: N_17  and  C_18
REMARK    8  A    between atoms: C_18  and  C_19
REMARK    9  A    between atoms: C_19  and  C_20
REMARK                            x       y       z     vdW  Elec       q    Type
REMARK                         _______ _______ _______ _____ _____    ______ ____
ROOT
ATOM      1  C   UNL     1       1.545   9.264  18.840  0.00  0.00    +0.000 A 
ATOM      2  N   UNL     1       2.284   8.874  17.696  0.00  0.00    +0.000 NA
ATOM      3  C   UNL     1       2.861   7.697  17.903  0.00  0.00    +0.000 A 
ATOM      4  S   UNL     1       2.532   6.981  19.436  0.00  0.00    +0.000 S 
ATOM      5  C   UNL     1       1.582   8.320  19.849  0.00  0.00    +0.000 A 
ATOM      6 CL   UNL     1       0.835   8.317  21.400  0.00  0.00    +0.000 Cl
ENDROOT
BRANCH   1   8
ATOM      7  O   UNL     1       1.393  11.632  18.905  0.00  0.00    +0.000 OA
ATOM      8  C   UNL     1       0.822  10.543  18.961  0.00  0.00    +0.000 C 
ATOM      9  N   UNL     1      -0.545  10.491  19.140  0.00  0.00    +0.000 N 
ATOM     10  H   UNL     1      -1.034   9.606  19.217  0.00  0.00    +0.000 HD
BRANCH   9  11
ATOM     11  C   UNL     1      -1.277  11.740  19.280  0.00  0.00    +0.000 C 
BRANCH  11  12
ATOM     12  C   UNL     1      -1.820  12.033  20.656  0.00  0.00    +0.000 A 
ATOM     13  N   UNL     1      -1.044  11.781  21.747  0.00  0.00    +0.000 NA
ATOM     14  C   UNL     1      -1.594  12.058  22.959  0.00  0.00    +0.000 A 
ATOM     15  C   UNL     1      -2.872  12.571  23.144  0.00  0.00    +0.000 A 
ATOM     16  C   UNL     1      -3.645  12.823  22.018  0.00  0.00    +0.000 A 
ATOM     17  C   UNL     1      -3.115  12.550  20.764  0.00  0.00    +0.000 A 
ATOM     18  F   UNL     1      -3.851  12.788  19.671  0.00  0.00    +0.000 F 
ENDBRANCH  11  12
ENDBRANCH   9  11
ENDBRANCH   1   8
BRANCH   3  19
ATOM     19  C   UNL     1       3.783   6.960  16.952  0.00  0.00    +0.000 C 
BRANCH  19  20
ATOM     20  C   UNL     1       5.263   7.297  17.216  0.00  0.00    +0.000 C 
BRANCH  20  21
ATOM     21  N   UNL     1       6.218   6.500  16.409  0.00  0.00    +0.000 NA
ATOM     22  H   UNL     1       6.574   7.075  15.646  0.00  0.00    +0.000 HD
BRANCH  21  23
ATOM     23  C   UNL     1       7.361   6.095  17.265  0.00  0.00    +0.000 C 
BRANCH  23  24
ATOM     24  C   UNL     1       7.357   4.602  17.643  0.00  0.00    +0.000 C 
BRANCH  24  25
ATOM     25  C   UNL     1       5.982   4.141  18.029  0.00  0.00    +0.000 A 
ATOM     26  N   UNL     1       5.497   4.100  19.254  0.00  0.00    +0.000 NA
ATOM     27  C   UNL     1       4.254   3.524  19.151  0.00  0.00    +0.000 A 
ATOM     28  C   UNL     1       3.335   3.190  20.156  0.00  0.00    +0.000 A 
ATOM     29  C   UNL     1       2.137   2.562  19.794  0.00  0.00    +0.000 A 
ATOM     30  C   UNL     1       1.843   2.307  18.454  0.00  0.00    +0.000 A 
ATOM     31  C   UNL     1       2.741   2.651  17.433  0.00  0.00    +0.000 A 
ATOM     32  C   UNL     1       3.947   3.242  17.826  0.00  0.00    +0.000 A 
ATOM     33  N   UNL     1       5.060   3.650  17.130  0.00  0.00    +0.000 N 
ATOM     34  H   UNL     1       5.197   3.554  16.134  0.00  0.00    +0.000 HD
ENDBRANCH  24  25
ENDBRANCH  23  24
ENDBRANCH  21  23
ENDBRANCH  20  21
ENDBRANCH  19  20
ENDBRANCH   3  19
TORSDOF 9
ENDMDL
MODEL 8
REMARK VINA RESULT:      -7.7      3.510      4.881
REMARK  Name = 
REMARK  9 active torsions:
REMARK  status: ('A' for Active; 'I' for Inactive)
REMARK    1  A    between atoms: C_2  and  C_12
REMARK    2  A    between atoms: N_3  and  C_4
REMARK    3  A    between atoms: C_4  and  C_5
REMARK    4  A    between atoms: C_14  and  C_15
REMARK    5  A    between atoms: C_15  and  C_16
REMARK    6  A    between atoms: C_16  and  N_17
REMARK    7  A    between atoms: N_17  and  C_18
REMARK    8  A    between atoms: C_18  and  C_19
REMARK    9  A    between atoms: C_19  and  C_20
REMARK                            x       y       z     vdW  Elec       q    Type
REMARK                         _______ _______ _______ _____ _____    ______ ____
ROOT
ATOM      1  C   UNL     1       1.119   9.178  20.567  0.00  0.00    +0.000 A 
ATOM      2  N   UNL     1       1.746   7.915  20.429  0.00  0.00    +0.000 NA
ATOM      3  C   UNL     1       2.058   7.696  19.158  0.00  0.00    +0.000 A 
ATOM      4  S   UNL     1       1.660   8.977  18.076  0.00  0.00    +0.000 S 
ATOM      5  C   UNL     1       1.025   9.863  19.371  0.00  0.00    +0.000 A 
ATOM      6 CL   UNL     1       0.378  11.421  19.027  0.00  0.00    +0.000 Cl
ENDROOT
BRANCH   1   8
ATOM      7  O   UNL     1       1.220   9.601  22.901  0.00  0.00    +0.000 OA
ATOM      8  C   UNL     1       0.602   9.709  21.842  0.00  0.00    +0.000 C 
ATOM      9  N   UNL     1      -0.620  10.348  21.821  0.00  0.00    +0.000 N 
ATOM     10  H   UNL     1      -1.161  10.425  20.966  0.00  0.00    +0.000 HD
BRANCH   9  11
ATOM     11  C   UNL     1      -1.158  10.864  23.070  0.00  0.00    +0.000 C 
BRANCH  11  12
ATOM     12  C   UNL     1      -1.540  12.322  23.069  0.00  0.00    +0.000 A 
ATOM     13  N   UNL     1      -0.675  13.238  22.551  0.00  0.00    +0.000 NA
ATOM     14  C   UNL     1      -1.075  14.538  22.588  0.00  0.00    +0.000 A 
ATOM     15  C   UNL     1      -2.286  14.973  23.111  0.00  0.00    +0.000 A 
ATOM     16  C   UNL     1      -3.154  14.022  23.631  0.00  0.00    +0.000 A 
ATOM     17  C   UNL     1      -2.777  12.686  23.611  0.00  0.00    +0.000 A 
ATOM     18  F   UNL     1      -3.606  11.760  24.110  0.00  0.00    +0.000 F 
ENDBRANCH  11  12
ENDBRANCH   9  11
ENDBRANCH   1   8
BRANCH   3  19
ATOM     19  C   UNL     1       2.687   6.443  18.583  0.00  0.00    +0.000 C 
BRANCH  19  20
ATOM     20  C   UNL     1       1.815   5.198  18.836  0.00  0.00    +0.000 C 
BRANCH  20  21
ATOM     21  N   UNL     1       2.551   4.052  19.422  0.00  0.00    +0.000 NA
ATOM     22  H   UNL     1       2.114   3.790  20.306  0.00  0.00    +0.000 HD
BRANCH  21  23
ATOM     23  C   UNL     1       2.471   2.895  18.496  0.00  0.00    +0.000 C 
BRANCH  23  24
ATOM     24  C   UNL     1       3.796   2.581  17.778  0.00  0.00    +0.000 C 
BRANCH  24  25
ATOM     25  C   UNL     1       4.751   3.736  17.865  0.00  0.00    +0.000 A 
ATOM     26  N   UNL     1       4.907   4.678  16.957  0.00  0.00    +0.000 NA
ATOM     27  C   UNL     1       5.944   5.464  17.398  0.00  0.00    +0.000 A 
ATOM     28  C   UNL     1       6.557   6.566  16.787  0.00  0.00    +0.000 A 
ATOM     29  C   UNL     1       7.640   7.180  17.430  0.00  0.00    +0.000 A 
ATOM     30  C   UNL     1       8.078   6.728  18.675  0.00  0.00    +0.000 A 
ATOM     31  C   UNL     1       7.465   5.639  19.312  0.00  0.00    +0.000 A 
ATOM     32  C   UNL     1       6.410   5.021  18.630  0.00  0.00    +0.000 A 
ATOM     33  N   UNL     1       5.631   3.923  18.909  0.00  0.00    +0.000 N 
ATOM     34  H   UNL     1       5.726   3.326  19.717  0.00  0.00    +0.000 HD
ENDBRANCH  24  25
ENDBRANCH  23  24
ENDBRANCH  21  23
ENDBRANCH  20  21
ENDBRANCH  19  20
ENDBRANCH   3  19
TORSDOF 9
ENDMDL
MODEL 9
REMARK VINA RESULT:      -7.7      3.342      4.712
REMARK  Name = 
REMARK  9 active torsions:
REMARK  status: ('A' for Active; 'I' for Inactive)
REMARK    1  A    between atoms: C_2  and  C_12
REMARK    2  A    between atoms: N_3  and  C_4
REMARK    3  A    between atoms: C_4  and  C_5
REMARK    4  A    between atoms: C_14  and  C_15
REMARK    5  A    between atoms: C_15  and  C_16
REMARK    6  A    between atoms: C_16  and  N_17
REMARK    7  A    between atoms: N_17  and  C_18
REMARK    8  A    between atoms: C_18  and  C_19
REMARK    9  A    between atoms: C_19  and  C_20
REMARK                            x       y       z     vdW  Elec       q    Type
REMARK                         _______ _______ _______ _____ _____    ______ ____
ROOT
ATOM      1  C   UNL     1       1.296   8.923  20.595  0.00  0.00    +0.000 A 
ATOM      2  N   UNL     1       1.757   7.592  20.439  0.00  0.00    +0.000 NA
ATOM      3  C   UNL     1       2.075   7.363  19.171  0.00  0.00    +0.000 A 
ATOM      4  S   UNL     1       1.880   8.710  18.114  0.00  0.00    +0.000 S 
ATOM      5  C   UNL     1       1.328   9.643  19.415  0.00  0.00    +0.000 A 
ATOM      6 CL   UNL     1       0.901  11.279  19.096  0.00  0.00    +0.000 Cl
ENDROOT
BRANCH   1   8
ATOM      7  O   UNL     1       1.545   9.605  22.855  0.00  0.00    +0.000 OA
ATOM      8  C   UNL     1       0.817   9.488  21.869  0.00  0.00    +0.000 C 
ATOM      9  N   UNL     1      -0.501   9.894  21.934  0.00  0.00    +0.000 N 
ATOM     10  H   UNL     1      -1.127   9.781  21.145  0.00  0.00    +0.000 HD
BRANCH   9  11
ATOM     11  C   UNL     1      -1.001  10.436  23.187  0.00  0.00    +0.000 C 
BRANCH  11  12
ATOM     12  C   UNL     1      -1.760  11.735  23.085  0.00  0.00    +0.000 A 
ATOM     13  N   UNL     1      -3.049  11.790  23.521  0.00  0.00    +0.000 NA
ATOM     14  C   UNL     1      -3.682  12.987  23.393  0.00  0.00    +0.000 A 
ATOM     15  C   UNL     1      -3.101  14.129  22.856  0.00  0.00    +0.000 A 
ATOM     16  C   UNL     1      -1.785  14.052  22.421  0.00  0.00    +0.000 A 
ATOM     17  C   UNL     1      -1.110  12.844  22.534  0.00  0.00    +0.000 A 
ATOM     18  F   UNL     1       0.160  12.757  22.117  0.00  0.00    +0.000 F 
ENDBRANCH  11  12
ENDBRANCH   9  11
ENDBRANCH   1   8
BRANCH   3  19
ATOM     19  C   UNL     1       2.551   6.053  18.579  0.00  0.00    +0.000 C 
BRANCH  19  20
ATOM     20  C   UNL     1       1.853   4.844  19.232  0.00  0.00    +0.000 C 
BRANCH  20  21
ATOM     21  N   UNL     1       2.040   3.569  18.498  0.00  0.00    +0.000 NA
ATOM     22  H   UNL     1       2.849   3.651  17.883  0.00  0.00    +0.000 HD
BRANCH  21  23
ATOM     23  C   UNL     1       2.299   2.479  19.472  0.00  0.00    +0.000 C 
BRANCH  23  24
ATOM     24  C   UNL     1       3.784   2.322  19.848  0.00  0.00    +0.000 C 
BRANCH  24  25
ATOM     25  C   UNL     1       4.666   3.120  18.933  0.00  0.00    +0.000 A 
ATOM     26  N   UNL     1       5.460   4.108  19.293  0.00  0.00    +0.000 NA
ATOM     27  C   UNL     1       5.995   4.609  18.132  0.00  0.00    +0.000 A 
ATOM     28  C   UNL     1       6.854   5.700  17.937  0.00  0.00    +0.000 A 
ATOM     29  C   UNL     1       7.228   6.041  16.631  0.00  0.00    +0.000 A 
ATOM     30  C   UNL     1       6.786   5.287  15.544  0.00  0.00    +0.000 A 
ATOM     31  C   UNL     1       5.942   4.180  15.719  0.00  0.00    +0.000 A 
ATOM     32  C   UNL     1       5.553   3.885  17.031  0.00  0.00    +0.000 A 
ATOM     33  N   UNL     1       4.713   2.939  17.568  0.00  0.00    +0.000 N 
ATOM     34  H   UNL     1       4.180   2.261  17.042  0.00  0.00    +0.000 HD
ENDBRANCH  24  25
ENDBRANCH  23  24
ENDBRANCH  21  23
ENDBRANCH  20  21
ENDBRANCH  19  20
ENDBRANCH   3  19
TORSDOF 9
ENDMDL
