MODEL 1
REMARK VINA RESULT:      -8.4      0.000      0.000
REMARK  Name = 
REMARK  8 active torsions:
REMARK  status: ('A' for Active; 'I' for Inactive)
REMARK    1  A    between atoms: C_1  and  C_2
REMARK    2  A    between atoms: C_2  and  C_4
REMARK    3  A    between atoms: C_7  and  O_8
REMARK    4  A    between atoms: O_8  and  C_9
REMARK    5  A    between atoms: C_9  and  C_10
REMARK    6  A    between atoms: N_12  and  C_13
REMARK    7  A    between atoms: C_17  and  S_18
REMARK    8  A    between atoms: S_18  and  N_21
REMARK                            x       y       z     vdW  Elec       q    Type
REMARK                         _______ _______ _______ _____ _____    ______ ____
ROOT
ATOM      1  C   UNL     1       7.816   7.801  18.057  0.00  0.00    +0.000 C 
ATOM      2  O   UNL     1       8.307   6.972  18.825  0.00  0.00    +0.000 OA
ATOM      3  N   UNL     1       6.829   7.549  17.112  0.00  0.00    +0.000 N 
ATOM      4  H   UNL     1       6.678   8.265  16.409  0.00  0.00    +0.000 HD
ENDROOT
BRANCH   3   5
ATOM      5  C   UNL     1       6.212   6.295  16.882  0.00  0.00    +0.000 A 
ATOM      6  C   UNL     1       6.790   5.305  16.083  0.00  0.00    +0.000 A 
ATOM      7  C   UNL     1       6.128   4.097  15.837  0.00  0.00    +0.000 A 
ATOM      8  C   UNL     1       4.865   3.871  16.374  0.00  0.00    +0.000 A 
ATOM      9  C   UNL     1       4.270   4.857  17.163  0.00  0.00    +0.000 A 
ATOM     10  C   UNL     1       4.963   6.044  17.465  0.00  0.00    +0.000 A 
BRANCH   9  11
ATOM     11  S   UNL     1       2.623   4.598  17.794  0.00  0.00    +0.000 S 
ATOM     12  O   UNL     1       2.008   5.903  17.925  0.00  0.00    +0.000 OA
ATOM     13  O   UNL     1       2.026   3.564  16.980  0.00  0.00    +0.000 OA
BRANCH  11  14
ATOM     14  N   UNL     1       2.840   3.955  19.331  0.00  0.00    +0.000 NA
ATOM     15  C   UNL     1       2.636   2.527  19.616  0.00  0.00    +0.000 C 
ATOM     16  C   UNL     1       1.790   2.506  20.881  0.00  0.00    +0.000 C 
ATOM     17  C   UNL     1       2.250   3.745  21.628  0.00  0.00    +0.000 C 
ATOM     18  C   UNL     1       2.535   4.764  20.527  0.00  0.00    +0.000 C 
ENDBRANCH  11  14
ENDBRANCH   9  11
ENDBRANCH   3   5
BRANCH   1  19
ATOM     19  C   UNL     1       8.330   9.242  18.051  0.00  0.00    +0.000 C 
BRANCH  19  20
ATOM     20  O   UNL     1       9.330   9.322  19.060  0.00  0.00    +0.000 OA
BRANCH  20  24
ATOM     21  C   UNL     1      10.206  13.265  20.097  0.00  0.00    +0.000 A 
ATOM     22  C   UNL     1      10.590  12.720  18.872  0.00  0.00    +0.000 A 
ATOM     23  C   UNL     1      10.302  11.382  18.579  0.00  0.00    +0.000 A 
ATOM     24  C   UNL     1       9.645  10.574  19.508  0.00  0.00    +0.000 A 
ATOM     25  C   UNL     1       9.283  11.103  20.745  0.00  0.00    +0.000 A 
ATOM     26  C   UNL     1       9.561  12.448  21.038  0.00  0.00    +0.000 A 
BRANCH  21  28
ATOM     27  C   UNL     1      11.597  15.420  19.776  0.00  0.00    +0.000 C 
ATOM     28  C   UNL     1      10.439  14.705  20.425  0.00  0.00    +0.000 C 
ATOM     29  O   UNL     1       9.679  15.288  21.197  0.00  0.00    +0.000 OA
ENDBRANCH  21  28
ENDBRANCH  20  24
ENDBRANCH  19  20
ENDBRANCH   1  19
TORSDOF 7
ENDMDL
MODEL 2
REMARK VINA RESULT:      -8.4      1.384      1.696
REMARK  Name = 
REMARK  8 active torsions:
REMARK  status: ('A' for Active; 'I' for Inactive)
REMARK    1  A    between atoms: C_1  and  C_2
REMARK    2  A    between atoms: C_2  and  C_4
REMARK    3  A    between atoms: C_7  and  O_8
REMARK    4  A    between atoms: O_8  and  C_9
REMARK    5  A    between atoms: C_9  and  C_10
REMARK    6  A    between atoms: N_12  and  C_13
REMARK    7  A    between atoms: C_17  and  S_18
REMARK    8  A    between atoms: S_18  and  N_21
REMARK                            x       y       z     vdW  Elec       q    Type
REMARK                         _______ _______ _______ _____ _____    ______ ____
ROOT
ATOM      1  C   UNL     1       7.660   7.605  17.800  0.00  0.00    +0.000 C 
ATOM      2  O   UNL     1       8.259   6.760  18.469  0.00  0.00    +0.000 OA
ATOM      3  N   UNL     1       6.651   7.347  16.880  0.00  0.00    +0.000 N 
ATOM      4  H   UNL     1       6.404   8.103  16.251  0.00  0.00    +0.000 HD
ENDROOT
BRANCH   3   5
ATOM      5  C   UNL     1       6.132   6.066  16.567  0.00  0.00    +0.000 A 
ATOM      6  C   UNL     1       6.088   5.568  15.262  0.00  0.00    +0.000 A 
ATOM      7  C   UNL     1       5.523   4.319  14.985  0.00  0.00    +0.000 A 
ATOM      8  C   UNL     1       4.972   3.558  16.010  0.00  0.00    +0.000 A 
ATOM      9  C   UNL     1       4.996   4.050  17.317  0.00  0.00    +0.000 A 
ATOM     10  C   UNL     1       5.624   5.275  17.606  0.00  0.00    +0.000 A 
BRANCH   9  11
ATOM     11  S   UNL     1       4.229   3.109  18.622  0.00  0.00    +0.000 S 
ATOM     12  O   UNL     1       3.806   1.849  18.045  0.00  0.00    +0.000 OA
ATOM     13  O   UNL     1       5.132   3.153  19.750  0.00  0.00    +0.000 OA
BRANCH  11  14
ATOM     14  N   UNL     1       2.861   3.987  19.048  0.00  0.00    +0.000 NA
ATOM     15  C   UNL     1       2.947   5.266  19.767  0.00  0.00    +0.000 C 
ATOM     16  C   UNL     1       1.922   5.147  20.885  0.00  0.00    +0.000 C 
ATOM     17  C   UNL     1       0.841   4.273  20.276  0.00  0.00    +0.000 C 
ATOM     18  C   UNL     1       1.607   3.290  19.392  0.00  0.00    +0.000 C 
ENDBRANCH  11  14
ENDBRANCH   9  11
ENDBRANCH   3   5
BRANCH   1  19
ATOM     19  C   UNL     1       8.049   9.081  17.899  0.00  0.00    +0.000 C 
BRANCH  19  20
ATOM     20  O   UNL     1       8.891   9.205  19.039  0.00  0.00    +0.000 OA
BRANCH  20  24
ATOM     21  C   UNL     1      10.399  13.075  19.415  0.00  0.00    +0.000 A 
ATOM     22  C   UNL     1      10.306  12.434  18.179  0.00  0.00    +0.000 A 
ATOM     23  C   UNL     1       9.823  11.123  18.104  0.00  0.00    +0.000 A 
ATOM     24  C   UNL     1       9.444  10.435  19.259  0.00  0.00    +0.000 A 
ATOM     25  C   UNL     1       9.559  11.058  20.500  0.00  0.00    +0.000 A 
ATOM     26  C   UNL     1      10.034  12.378  20.577  0.00  0.00    +0.000 A 
BRANCH  21  28
ATOM     27  C   UNL     1      10.816  15.372  18.307  0.00  0.00    +0.000 C 
ATOM     28  C   UNL     1      10.850  14.495  19.532  0.00  0.00    +0.000 C 
ATOM     29  O   UNL     1      11.223  14.932  20.621  0.00  0.00    +0.000 OA
ENDBRANCH  21  28
ENDBRANCH  20  24
ENDBRANCH  19  20
ENDBRANCH   1  19
TORSDOF 7
ENDMDL
MODEL 3
REMARK VINA RESULT:      -8.3      1.171      1.494
REMARK  Name = 
REMARK  8 active torsions:
REMARK  status: ('A' for Active; 'I' for Inactive)
REMARK    1  A    between atoms: C_1  and  C_2
REMARK    2  A    between atoms: C_2  and  C_4
REMARK    3  A    between atoms: C_7  and  O_8
REMARK    4  A    between atoms: O_8  and  C_9
REMARK    5  A    between atoms: C_9  and  C_10
REMARK    6  A    between atoms: N_12  and  C_13
REMARK    7  A    between atoms: C_17  and  S_18
REMARK    8  A    between atoms: S_18  and  N_21
REMARK                            x       y       z     vdW  Elec       q    Type
REMARK                         _______ _______ _______ _____ _____    ______ ____
ROOT
ATOM      1  C   UNL     1       7.717   7.576  17.831  0.00  0.00    +0.000 C 
ATOM      2  O   UNL     1       8.214   6.761  18.611  0.00  0.00    +0.000 OA
ATOM      3  N   UNL     1       6.849   7.278  16.787  0.00  0.00    +0.000 N 
ATOM      4  H   UNL     1       6.695   8.008  16.100  0.00  0.00    +0.000 HD
ENDROOT
BRANCH   3   5
ATOM      5  C   UNL     1       6.381   5.983  16.452  0.00  0.00    +0.000 A 
ATOM      6  C   UNL     1       6.857   5.270  15.348  0.00  0.00    +0.000 A 
ATOM      7  C   UNL     1       6.335   4.015  15.019  0.00  0.00    +0.000 A 
ATOM      8  C   UNL     1       5.311   3.462  15.781  0.00  0.00    +0.000 A 
ATOM      9  C   UNL     1       4.817   4.170  16.879  0.00  0.00    +0.000 A 
ATOM     10  C   UNL     1       5.386   5.402  17.250  0.00  0.00    +0.000 A 
BRANCH   9  11
ATOM     11  S   UNL     1       3.458   3.496  17.816  0.00  0.00    +0.000 S 
ATOM     12  O   UNL     1       2.303   3.484  16.942  0.00  0.00    +0.000 OA
ATOM     13  O   UNL     1       3.943   2.284  18.437  0.00  0.00    +0.000 OA
BRANCH  11  14
ATOM     14  N   UNL     1       3.182   4.606  19.047  0.00  0.00    +0.000 NA
ATOM     15  C   UNL     1       2.781   4.190  20.399  0.00  0.00    +0.000 C 
ATOM     16  C   UNL     1       1.620   5.107  20.753  0.00  0.00    +0.000 C 
ATOM     17  C   UNL     1       1.962   6.398  20.032  0.00  0.00    +0.000 C 
ATOM     18  C   UNL     1       2.631   5.939  18.737  0.00  0.00    +0.000 C 
ENDBRANCH  11  14
ENDBRANCH   9  11
ENDBRANCH   3   5
BRANCH   1  19
ATOM     19  C   UNL     1       8.086   9.057  17.928  0.00  0.00    +0.000 C 
BRANCH  19  20
ATOM     20  O   UNL     1       8.940   9.191  19.059  0.00  0.00    +0.000 OA
BRANCH  20  24
ATOM     21  C   UNL     1      10.455  13.062  19.385  0.00  0.00    +0.000 A 
ATOM     22  C   UNL     1      10.291  12.434  18.150  0.00  0.00    +0.000 A 
ATOM     23  C   UNL     1       9.809  11.122  18.090  0.00  0.00    +0.000 A 
ATOM     24  C   UNL     1       9.501  10.421  19.258  0.00  0.00    +0.000 A 
ATOM     25  C   UNL     1       9.688  11.032  20.496  0.00  0.00    +0.000 A 
ATOM     26  C   UNL     1      10.163  12.352  20.559  0.00  0.00    +0.000 A 
BRANCH  21  28
ATOM     27  C   UNL     1      10.452  15.307  20.665  0.00  0.00    +0.000 C 
ATOM     28  C   UNL     1      10.909  14.483  19.489  0.00  0.00    +0.000 C 
ATOM     29  O   UNL     1      11.658  14.951  18.633  0.00  0.00    +0.000 OA
ENDBRANCH  21  28
ENDBRANCH  20  24
ENDBRANCH  19  20
ENDBRANCH   1  19
TORSDOF 7
ENDMDL
MODEL 4
REMARK VINA RESULT:      -8.1      5.382      8.167
REMARK  Name = 
REMARK  8 active torsions:
REMARK  status: ('A' for Active; 'I' for Inactive)
REMARK    1  A    between atoms: C_1  and  C_2
REMARK    2  A    between atoms: C_2  and  C_4
REMARK    3  A    between atoms: C_7  and  O_8
REMARK    4  A    between atoms: O_8  and  C_9
REMARK    5  A    between atoms: C_9  and  C_10
REMARK    6  A    between atoms: N_12  and  C_13
REMARK    7  A    between atoms: C_17  and  S_18
REMARK    8  A    between atoms: S_18  and  N_21
REMARK                            x       y       z     vdW  Elec       q    Type
REMARK                         _______ _______ _______ _____ _____    ______ ____
ROOT
ATOM      1  C   UNL     1       1.887   8.528  18.437  0.00  0.00    +0.000 C 
ATOM      2  O   UNL     1       1.521   8.611  17.263  0.00  0.00    +0.000 OA
ATOM      3  N   UNL     1       2.546   7.445  19.009  0.00  0.00    +0.000 N 
ATOM      4  H   UNL     1       2.591   7.422  20.022  0.00  0.00    +0.000 HD
ENDROOT
BRANCH   3   5
ATOM      5  C   UNL     1       2.917   6.259  18.331  0.00  0.00    +0.000 A 
ATOM      6  C   UNL     1       2.248   5.045  18.510  0.00  0.00    +0.000 A 
ATOM      7  C   UNL     1       2.674   3.881  17.862  0.00  0.00    +0.000 A 
ATOM      8  C   UNL     1       3.794   3.911  17.038  0.00  0.00    +0.000 A 
ATOM      9  C   UNL     1       4.482   5.114  16.861  0.00  0.00    +0.000 A 
ATOM     10  C   UNL     1       4.014   6.298  17.459  0.00  0.00    +0.000 A 
BRANCH   9  11
ATOM     11  S   UNL     1       5.959   5.140  15.862  0.00  0.00    +0.000 S 
ATOM     12  O   UNL     1       6.214   3.777  15.445  0.00  0.00    +0.000 OA
ATOM     13  O   UNL     1       5.786   6.202  14.896  0.00  0.00    +0.000 OA
BRANCH  11  14
ATOM     14  N   UNL     1       7.185   5.616  16.908  0.00  0.00    +0.000 NA
ATOM     15  C   UNL     1       7.595   4.795  18.056  0.00  0.00    +0.000 C 
ATOM     16  C   UNL     1       7.670   5.773  19.219  0.00  0.00    +0.000 C 
ATOM     17  C   UNL     1       8.098   7.069  18.557  0.00  0.00    +0.000 C 
ATOM     18  C   UNL     1       7.401   7.046  17.198  0.00  0.00    +0.000 C 
ENDBRANCH  11  14
ENDBRANCH   9  11
ENDBRANCH   3   5
BRANCH   1  19
ATOM     19  C   UNL     1       1.574   9.655  19.422  0.00  0.00    +0.000 C 
BRANCH  19  20
ATOM     20  O   UNL     1       0.703   9.106  20.406  0.00  0.00    +0.000 OA
BRANCH  20  24
ATOM     21  C   UNL     1      -1.557  11.904  22.517  0.00  0.00    +0.000 A 
ATOM     22  C   UNL     1      -1.136  12.131  21.206  0.00  0.00    +0.000 A 
ATOM     23  C   UNL     1      -0.352  11.177  20.547  0.00  0.00    +0.000 A 
ATOM     24  C   UNL     1       0.031  10.000  21.192  0.00  0.00    +0.000 A 
ATOM     25  C   UNL     1      -0.362   9.778  22.510  0.00  0.00    +0.000 A 
ATOM     26  C   UNL     1      -1.157  10.729  23.171  0.00  0.00    +0.000 A 
BRANCH  21  28
ATOM     27  C   UNL     1      -3.939  12.738  23.073  0.00  0.00    +0.000 C 
ATOM     28  C   UNL     1      -2.446  12.868  23.234  0.00  0.00    +0.000 C 
ATOM     29  O   UNL     1      -1.954  13.734  23.956  0.00  0.00    +0.000 OA
ENDBRANCH  21  28
ENDBRANCH  20  24
ENDBRANCH  19  20
ENDBRANCH   1  19
TORSDOF 7
ENDMDL
MODEL 5
REMARK VINA RESULT:      -7.9      5.708      8.668
REMARK  Name = 
REMARK  8 active torsions:
REMARK  status: ('A' for Active; 'I' for Inactive)
REMARK    1  A    between atoms: C_1  and  C_2
REMARK    2  A    between atoms: C_2  and  C_4
REMARK    3  A    between atoms: C_7  and  O_8
REMARK    4  A    between atoms: O_8  and  C_9
REMARK    5  A    between atoms: C_9  and  C_10
REMARK    6  A    between atoms: N_12  and  C_13
REMARK    7  A    between atoms: C_17  and  S_18
REMARK    8  A    between atoms: S_18  and  N_21
REMARK                            x       y       z     vdW  Elec       q    Type
REMARK                         _______ _______ _______ _____ _____    ______ ____
ROOT
ATOM      1  C   UNL     1       2.103   5.008  19.844  0.00  0.00    +0.000 C 
ATOM      2  O   UNL     1       1.242   4.766  18.995  0.00  0.00    +0.000 OA
ATOM      3  N   UNL     1       2.594   6.267  20.167  0.00  0.00    +0.000 N 
ATOM      4  H   UNL     1       3.445   6.296  20.719  0.00  0.00    +0.000 HD
ENDROOT
BRANCH   3   5
ATOM      5  C   UNL     1       2.176   7.487  19.582  0.00  0.00    +0.000 A 
ATOM      6  C   UNL     1       2.550   7.873  18.291  0.00  0.00    +0.000 A 
ATOM      7  C   UNL     1       2.160   9.108  17.765  0.00  0.00    +0.000 A 
ATOM      8  C   UNL     1       1.404   9.988  18.533  0.00  0.00    +0.000 A 
ATOM      9  C   UNL     1       1.036   9.621  19.829  0.00  0.00    +0.000 A 
ATOM     10  C   UNL     1       1.371   8.353  20.335  0.00  0.00    +0.000 A 
BRANCH   9  11
ATOM     11  S   UNL     1       0.127  10.775  20.841  0.00  0.00    +0.000 S 
ATOM     12  O   UNL     1      -0.631   9.997  21.797  0.00  0.00    +0.000 OA
ATOM     13  O   UNL     1       1.072  11.782  21.271  0.00  0.00    +0.000 OA
BRANCH  11  14
ATOM     14  N   UNL     1      -0.949  11.524  19.790  0.00  0.00    +0.000 NA
ATOM     15  C   UNL     1      -1.696  12.732  20.167  0.00  0.00    +0.000 C 
ATOM     16  C   UNL     1      -3.128  12.446  19.742  0.00  0.00    +0.000 C 
ATOM     17  C   UNL     1      -2.960  11.568  18.515  0.00  0.00    +0.000 C 
ATOM     18  C   UNL     1      -1.726  10.722  18.825  0.00  0.00    +0.000 C 
ENDBRANCH  11  14
ENDBRANCH   9  11
ENDBRANCH   3   5
BRANCH   1  19
ATOM     19  C   UNL     1       2.773   3.864  20.607  0.00  0.00    +0.000 C 
BRANCH  19  20
ATOM     20  O   UNL     1       3.285   2.966  19.628  0.00  0.00    +0.000 OA
BRANCH  20  24
ATOM     21  C   UNL     1       5.913   4.576  16.819  0.00  0.00    +0.000 A 
ATOM     22  C   UNL     1       4.824   3.788  16.446  0.00  0.00    +0.000 A 
ATOM     23  C   UNL     1       3.986   3.242  17.425  0.00  0.00    +0.000 A 
ATOM     24  C   UNL     1       4.235   3.464  18.781  0.00  0.00    +0.000 A 
ATOM     25  C   UNL     1       5.336   4.227  19.163  0.00  0.00    +0.000 A 
ATOM     26  C   UNL     1       6.173   4.784  18.182  0.00  0.00    +0.000 A 
BRANCH  21  28
ATOM     27  C   UNL     1       6.729   4.759  14.374  0.00  0.00    +0.000 C 
ATOM     28  C   UNL     1       6.796   5.229  15.804  0.00  0.00    +0.000 C 
ATOM     29  O   UNL     1       7.544   6.146  16.142  0.00  0.00    +0.000 OA
ENDBRANCH  21  28
ENDBRANCH  20  24
ENDBRANCH  19  20
ENDBRANCH   1  19
TORSDOF 7
ENDMDL
MODEL 6
REMARK VINA RESULT:      -7.9      5.025      8.038
REMARK  Name = 
REMARK  8 active torsions:
REMARK  status: ('A' for Active; 'I' for Inactive)
REMARK    1  A    between atoms: C_1  and  C_2
REMARK    2  A    between atoms: C_2  and  C_4
REMARK    3  A    between atoms: C_7  and  O_8
REMARK    4  A    between atoms: O_8  and  C_9
REMARK    5  A    between atoms: C_9  and  C_10
REMARK    6  A    between atoms: N_12  and  C_13
REMARK    7  A    between atoms: C_17  and  S_18
REMARK    8  A    between atoms: S_18  and  N_21
REMARK                            x       y       z     vdW  Elec       q    Type
REMARK                         _______ _______ _______ _____ _____    ______ ____
ROOT
ATOM      1  C   UNL     1       1.929   6.505  20.429  0.00  0.00    +0.000 C 
ATOM      2  O   UNL     1       1.906   5.451  21.067  0.00  0.00    +0.000 OA
ATOM      3  N   UNL     1       2.391   6.657  19.126  0.00  0.00    +0.000 N 
ATOM      4  H   UNL     1       2.554   7.606  18.808  0.00  0.00    +0.000 HD
ENDROOT
BRANCH   3   5
ATOM      5  C   UNL     1       2.901   5.618  18.310  0.00  0.00    +0.000 A 
ATOM      6  C   UNL     1       2.397   4.315  18.342  0.00  0.00    +0.000 A 
ATOM      7  C   UNL     1       2.959   3.302  17.559  0.00  0.00    +0.000 A 
ATOM      8  C   UNL     1       4.053   3.575  16.744  0.00  0.00    +0.000 A 
ATOM      9  C   UNL     1       4.577   4.870  16.713  0.00  0.00    +0.000 A 
ATOM     10  C   UNL     1       3.970   5.903  17.450  0.00  0.00    +0.000 A 
BRANCH   9  11
ATOM     11  S   UNL     1       6.022   5.206  15.724  0.00  0.00    +0.000 S 
ATOM     12  O   UNL     1       6.406   3.960  15.094  0.00  0.00    +0.000 OA
ATOM     13  O   UNL     1       5.722   6.384  14.941  0.00  0.00    +0.000 OA
BRANCH  11  14
ATOM     14  N   UNL     1       7.215   5.636  16.826  0.00  0.00    +0.000 NA
ATOM     15  C   UNL     1       7.611   4.753  17.933  0.00  0.00    +0.000 C 
ATOM     16  C   UNL     1       7.643   5.660  19.154  0.00  0.00    +0.000 C 
ATOM     17  C   UNL     1       8.065   7.001  18.582  0.00  0.00    +0.000 C 
ATOM     18  C   UNL     1       7.402   7.049  17.208  0.00  0.00    +0.000 C 
ENDBRANCH  11  14
ENDBRANCH   9  11
ENDBRANCH   3   5
BRANCH   1  19
ATOM     19  C   UNL     1       1.478   7.812  21.084  0.00  0.00    +0.000 C 
BRANCH  19  20
ATOM     20  O   UNL     1       1.174   8.714  20.026  0.00  0.00    +0.000 OA
BRANCH  20  24
ATOM     21  C   UNL     1      -1.401  11.804  21.126  0.00  0.00    +0.000 A 
ATOM     22  C   UNL     1      -0.746  11.015  22.072  0.00  0.00    +0.000 A 
ATOM     23  C   UNL     1       0.085   9.968  21.657  0.00  0.00    +0.000 A 
ATOM     24  C   UNL     1       0.258   9.690  20.300  0.00  0.00    +0.000 A 
ATOM     25  C   UNL     1      -0.415  10.455  19.350  0.00  0.00    +0.000 A 
ATOM     26  C   UNL     1      -1.241  11.513  19.763  0.00  0.00    +0.000 A 
BRANCH  21  28
ATOM     27  C   UNL     1      -2.852  12.990  22.906  0.00  0.00    +0.000 C 
ATOM     28  C   UNL     1      -2.248  12.969  21.526  0.00  0.00    +0.000 C 
ATOM     29  O   UNL     1      -2.423  13.898  20.737  0.00  0.00    +0.000 OA
ENDBRANCH  21  28
ENDBRANCH  20  24
ENDBRANCH  19  20
ENDBRANCH   1  19
TORSDOF 7
ENDMDL
MODEL 7
REMARK VINA RESULT:      -7.9      5.647      8.746
REMARK  Name = 
REMARK  8 active torsions:
REMARK  status: ('A' for Active; 'I' for Inactive)
REMARK    1  A    between atoms: C_1  and  C_2
REMARK    2  A    between atoms: C_2  and  C_4
REMARK    3  A    between atoms: C_7  and  O_8
REMARK    4  A    between atoms: O_8  and  C_9
REMARK    5  A    between atoms: C_9  and  C_10
REMARK    6  A    between atoms: N_12  and  C_13
REMARK    7  A    between atoms: C_17  and  S_18
REMARK    8  A    between atoms: S_18  and  N_21
REMARK                            x       y       z     vdW  Elec       q    Type
REMARK                         _______ _______ _______ _____ _____    ______ ____
ROOT
ATOM      1  C   UNL     1       2.058   5.146  20.234  0.00  0.00    +0.000 C 
ATOM      2  O   UNL     1       0.949   4.695  20.529  0.00  0.00    +0.000 OA
ATOM      3  N   UNL     1       2.413   6.490  20.226  0.00  0.00    +0.000 N 
ATOM      4  H   UNL     1       3.280   6.730  19.758  0.00  0.00    +0.000 HD
ENDROOT
BRANCH   3   5
ATOM      5  C   UNL     1       1.559   7.567  20.569  0.00  0.00    +0.000 A 
ATOM      6  C   UNL     1       0.608   7.482  21.590  0.00  0.00    +0.000 A 
ATOM      7  C   UNL     1      -0.253   8.548  21.867  0.00  0.00    +0.000 A 
ATOM      8  C   UNL     1      -0.188   9.713  21.109  0.00  0.00    +0.000 A 
ATOM      9  C   UNL     1       0.748   9.807  20.077  0.00  0.00    +0.000 A 
ATOM     10  C   UNL     1       1.658   8.761  19.841  0.00  0.00    +0.000 A 
BRANCH   9  11
ATOM     11  S   UNL     1       0.786  11.271  19.059  0.00  0.00    +0.000 S 
ATOM     12  O   UNL     1       0.687  12.409  19.949  0.00  0.00    +0.000 OA
ATOM     13  O   UNL     1       1.903  11.117  18.155  0.00  0.00    +0.000 OA
BRANCH  11  14
ATOM     14  N   UNL     1      -0.615  11.195  18.133  0.00  0.00    +0.000 NA
ATOM     15  C   UNL     1      -1.757  12.090  18.371  0.00  0.00    +0.000 C 
ATOM     16  C   UNL     1      -2.970  11.172  18.365  0.00  0.00    +0.000 C 
ATOM     17  C   UNL     1      -2.581  10.086  17.378  0.00  0.00    +0.000 C 
ATOM     18  C   UNL     1      -1.080   9.904  17.591  0.00  0.00    +0.000 C 
ENDBRANCH  11  14
ENDBRANCH   9  11
ENDBRANCH   3   5
BRANCH   1  19
ATOM     19  C   UNL     1       3.173   4.206  19.773  0.00  0.00    +0.000 C 
BRANCH  19  20
ATOM     20  O   UNL     1       4.353   4.995  19.670  0.00  0.00    +0.000 OA
BRANCH  20  24
ATOM     21  C   UNL     1       6.172   4.747  15.925  0.00  0.00    +0.000 A 
ATOM     22  C   UNL     1       4.946   4.138  16.193  0.00  0.00    +0.000 A 
ATOM     23  C   UNL     1       4.387   4.221  17.474  0.00  0.00    +0.000 A 
ATOM     24  C   UNL     1       5.052   4.896  18.499  0.00  0.00    +0.000 A 
ATOM     25  C   UNL     1       6.290   5.483  18.247  0.00  0.00    +0.000 A 
ATOM     26  C   UNL     1       6.848   5.410  16.960  0.00  0.00    +0.000 A 
BRANCH  21  28
ATOM     27  C   UNL     1       6.207   3.796  13.522  0.00  0.00    +0.000 C 
ATOM     28  C   UNL     1       6.773   4.735  14.556  0.00  0.00    +0.000 C 
ATOM     29  O   UNL     1       7.700   5.498  14.288  0.00  0.00    +0.000 OA
ENDBRANCH  21  28
ENDBRANCH  20  24
ENDBRANCH  19  20
ENDBRANCH   1  19
TORSDOF 7
ENDMDL
MODEL 8
REMARK VINA RESULT:      -7.8      1.596      2.017
REMARK  Name = 
REMARK  8 active torsions:
REMARK  status: ('A' for Active; 'I' for Inactive)
REMARK    1  A    between atoms: C_1  and  C_2
REMARK    2  A    between atoms: C_2  and  C_4
REMARK    3  A    between atoms: C_7  and  O_8
REMARK    4  A    between atoms: O_8  and  C_9
REMARK    5  A    between atoms: C_9  and  C_10
REMARK    6  A    between atoms: N_12  and  C_13
REMARK    7  A    between atoms: C_17  and  S_18
REMARK    8  A    between atoms: S_18  and  N_21
REMARK                            x       y       z     vdW  Elec       q    Type
REMARK                         _______ _______ _______ _____ _____    ______ ____
ROOT
ATOM      1  C   UNL     1       7.786   7.995  17.873  0.00  0.00    +0.000 C 
ATOM      2  O   UNL     1       7.017   8.578  17.106  0.00  0.00    +0.000 OA
ATOM      3  N   UNL     1       7.835   6.623  18.089  0.00  0.00    +0.000 N 
ATOM      4  H   UNL     1       8.359   6.308  18.899  0.00  0.00    +0.000 HD
ENDROOT
BRANCH   3   5
ATOM      5  C   UNL     1       7.012   5.662  17.452  0.00  0.00    +0.000 A 
ATOM      6  C   UNL     1       7.011   5.468  16.068  0.00  0.00    +0.000 A 
ATOM      7  C   UNL     1       6.148   4.545  15.468  0.00  0.00    +0.000 A 
ATOM      8  C   UNL     1       5.256   3.815  16.246  0.00  0.00    +0.000 A 
ATOM      9  C   UNL     1       5.237   4.009  17.630  0.00  0.00    +0.000 A 
ATOM     10  C   UNL     1       6.150   4.888  18.240  0.00  0.00    +0.000 A 
BRANCH   9  11
ATOM     11  S   UNL     1       4.047   3.125  18.622  0.00  0.00    +0.000 S 
ATOM     12  O   UNL     1       3.445   2.121  17.769  0.00  0.00    +0.000 OA
ATOM     13  O   UNL     1       4.719   2.764  19.850  0.00  0.00    +0.000 OA
BRANCH  11  14
ATOM     14  N   UNL     1       2.876   4.264  19.015  0.00  0.00    +0.000 NA
ATOM     15  C   UNL     1       2.421   5.279  18.055  0.00  0.00    +0.000 C 
ATOM     16  C   UNL     1       2.436   6.583  18.840  0.00  0.00    +0.000 C 
ATOM     17  C   UNL     1       2.099   6.143  20.252  0.00  0.00    +0.000 C 
ATOM     18  C   UNL     1       2.773   4.780  20.393  0.00  0.00    +0.000 C 
ENDBRANCH  11  14
ENDBRANCH   9  11
ENDBRANCH   3   5
BRANCH   1  19
ATOM     19  C   UNL     1       8.764   8.796  18.736  0.00  0.00    +0.000 C 
BRANCH  19  20
ATOM     20  O   UNL     1       9.049   9.994  18.023  0.00  0.00    +0.000 OA
BRANCH  20  24
ATOM     21  C   UNL     1      10.244  13.401  20.110  0.00  0.00    +0.000 A 
ATOM     22  C   UNL     1       9.927  13.439  18.752  0.00  0.00    +0.000 A 
ATOM     23  C   UNL     1       9.561  12.265  18.085  0.00  0.00    +0.000 A 
ATOM     24  C   UNL     1       9.523  11.043  18.760  0.00  0.00    +0.000 A 
ATOM     25  C   UNL     1       9.865  10.992  20.110  0.00  0.00    +0.000 A 
ATOM     26  C   UNL     1      10.223  12.171  20.784  0.00  0.00    +0.000 A 
BRANCH  21  28
ATOM     27  C   UNL     1       9.878  14.903  22.181  0.00  0.00    +0.000 C 
ATOM     28  C   UNL     1      10.580  14.642  20.873  0.00  0.00    +0.000 C 
ATOM     29  O   UNL     1      11.431  15.417  20.439  0.00  0.00    +0.000 OA
ENDBRANCH  21  28
ENDBRANCH  20  24
ENDBRANCH  19  20
ENDBRANCH   1  19
TORSDOF 7
ENDMDL
MODEL 9
REMARK VINA RESULT:      -7.8      5.202      7.716
REMARK  Name = 
REMARK  8 active torsions:
REMARK  status: ('A' for Active; 'I' for Inactive)
REMARK    1  A    between atoms: C_1  and  C_2
REMARK    2  A    between atoms: C_2  and  C_4
REMARK    3  A    between atoms: C_7  and  O_8
REMARK    4  A    between atoms: O_8  and  C_9
REMARK    5  A    between atoms: C_9  and  C_10
REMARK    6  A    between atoms: N_12  and  C_13
REMARK    7  A    between atoms: C_17  and  S_18
REMARK    8  A    between atoms: S_18  and  N_21
REMARK                            x       y       z     vdW  Elec       q    Type
REMARK                         _______ _______ _______ _____ _____    ______ ____
ROOT
ATOM      1  C   UNL     1       2.031   7.715  19.791  0.00  0.00    +0.000 C 
ATOM      2  O   UNL     1       1.893   8.268  18.699  0.00  0.00    +0.000 OA
ATOM      3  N   UNL     1       2.494   6.420  19.994  0.00  0.00    +0.000 N 
ATOM      4  H   UNL     1       2.350   6.024  20.917  0.00  0.00    +0.000 HD
ENDROOT
BRANCH   3   5
ATOM      5  C   UNL     1       2.896   5.522  18.974  0.00  0.00    +0.000 A 
ATOM      6  C   UNL     1       2.430   4.207  18.899  0.00  0.00    +0.000 A 
ATOM      7  C   UNL     1       2.888   3.333  17.907  0.00  0.00    +0.000 A 
ATOM      8  C   UNL     1       3.838   3.760  16.985  0.00  0.00    +0.000 A 
ATOM      9  C   UNL     1       4.323   5.068  17.058  0.00  0.00    +0.000 A 
ATOM     10  C   UNL     1       3.814   5.966  18.013  0.00  0.00    +0.000 A 
BRANCH   9  11
ATOM     11  S   UNL     1       5.592   5.595  15.921  0.00  0.00    +0.000 S 
ATOM     12  O   UNL     1       5.870   4.475  15.046  0.00  0.00    +0.000 OA
ATOM     13  O   UNL     1       5.171   6.874  15.396  0.00  0.00    +0.000 OA
BRANCH  11  14
ATOM     14  N   UNL     1       6.946   5.873  16.878  0.00  0.00    +0.000 NA
ATOM     15  C   UNL     1       7.429   4.886  17.853  0.00  0.00    +0.000 C 
ATOM     16  C   UNL     1       7.679   5.690  19.120  0.00  0.00    +0.000 C 
ATOM     17  C   UNL     1       8.105   7.048  18.593  0.00  0.00    +0.000 C 
ATOM     18  C   UNL     1       7.269   7.240  17.330  0.00  0.00    +0.000 C 
ENDBRANCH  11  14
ENDBRANCH   9  11
ENDBRANCH   3   5
BRANCH   1  19
ATOM     19  C   UNL     1       1.626   8.438  21.077  0.00  0.00    +0.000 C 
BRANCH  19  20
ATOM     20  O   UNL     1       0.216   8.626  21.011  0.00  0.00    +0.000 OA
BRANCH  20  24
ATOM     21  C   UNL     1      -0.805  12.607  20.306  0.00  0.00    +0.000 A 
ATOM     22  C   UNL     1      -0.256  12.188  21.519  0.00  0.00    +0.000 A 
ATOM     23  C   UNL     1       0.042  10.836  21.723  0.00  0.00    +0.000 A 
ATOM     24  C   UNL     1      -0.218   9.891  20.729  0.00  0.00    +0.000 A 
ATOM     25  C   UNL     1      -0.791  10.297  19.525  0.00  0.00    +0.000 A 
ATOM     26  C   UNL     1      -1.082  11.654  19.314  0.00  0.00    +0.000 A 
BRANCH  21  28
ATOM     27  C   UNL     1      -0.247  14.760  18.989  0.00  0.00    +0.000 C 
ATOM     28  C   UNL     1      -1.080  14.049  20.025  0.00  0.00    +0.000 C 
ATOM     29  O   UNL     1      -1.988  14.627  20.622  0.00  0.00    +0.000 OA
ENDBRANCH  21  28
ENDBRANCH  20  24
ENDBRANCH  19  20
ENDBRANCH   1  19
TORSDOF 7
ENDMDL
