MODEL 1
REMARK VINA RESULT:      -7.3      0.000      0.000
REMARK  Name = 
REMARK  11 active torsions:
REMARK  status: ('A' for Active; 'I' for Inactive)
REMARK    1  A    between atoms: C_1  and  C_2
REMARK    2  A    between atoms: C_2  and  N_3
REMARK    3  A    between atoms: C_5  and  C_6
REMARK    4  A    between atoms: C_6  and  O_8
REMARK    5  A    between atoms: C_11  and  C_12
REMARK    6  A    between atoms: C_14  and  C_15
REMARK    7  A    between atoms: C_15  and  N_16
REMARK    8  A    between atoms: N_16  and  C_17
REMARK    9  A    between atoms: N_16  and  C_19
REMARK   10  A    between atoms: C_17  and  O_18
REMARK   11  A    between atoms: C_19  and  O_20
REMARK                            x       y       z     vdW  Elec       q    Type
REMARK                         _______ _______ _______ _____ _____    ______ ____
ROOT
ATOM      1  N   UNL     1       0.268  11.237  19.473  0.00  0.00    +0.000 N 
ATOM      2  C   UNL     1      -0.252  11.152  20.742  0.00  0.00    +0.000 A 
ATOM      3  C   UNL     1       0.148   9.950  21.308  0.00  0.00    +0.000 A 
ATOM      4  C   UNL     1       0.921   9.270  20.301  0.00  0.00    +0.000 A 
ATOM      5  C   UNL     1       1.585   8.017  20.250  0.00  0.00    +0.000 A 
ATOM      6  C   UNL     1       2.251   7.596  19.085  0.00  0.00    +0.000 A 
ATOM      7  C   UNL     1       2.243   8.447  17.972  0.00  0.00    +0.000 A 
ATOM      8  C   UNL     1       1.612   9.696  17.991  0.00  0.00    +0.000 A 
ATOM      9  C   UNL     1       0.959  10.086  19.166  0.00  0.00    +0.000 A 
ENDROOT
BRANCH   6  10
ATOM     10  C   UNL     1       2.875   6.256  19.036  0.00  0.00    +0.000 A 
ATOM     11  N   UNL     1       3.753   5.858  18.131  0.00  0.00    +0.000 NA
ATOM     12  C   UNL     1       4.258   4.602  18.457  0.00  0.00    +0.000 A 
ATOM     13  C   UNL     1       3.708   4.040  19.593  0.00  0.00    +0.000 A 
ATOM     14  S   UNL     1       2.494   5.057  20.223  0.00  0.00    +0.000 S 
BRANCH  12  15
ATOM     15  C   UNL     1       5.311   3.982  17.581  0.00  0.00    +0.000 C 
BRANCH  15  16
ATOM     16  N   UNL     1       6.146   5.009  16.927  0.00  0.00    +0.000 NA
BRANCH  16  17
ATOM     17  C   UNL     1       7.408   5.227  17.631  0.00  0.00    +0.000 C 
BRANCH  17  18
ATOM     18  O   UNL     1       8.203   4.060  17.699  0.00  0.00    +0.000 OA
ATOM     19  H   UNL     1       8.206   3.680  16.803  0.00  0.00    +0.000 HD
ENDBRANCH  17  18
ENDBRANCH  16  17
BRANCH  16  20
ATOM     20  C   UNL     1       6.393   4.602  15.549  0.00  0.00    +0.000 C 
BRANCH  20  21
ATOM     21  O   UNL     1       6.235   3.204  15.403  0.00  0.00    +0.000 OA
ATOM     22  H   UNL     1       6.821   2.966  14.669  0.00  0.00    +0.000 HD
ENDBRANCH  20  21
ENDBRANCH  16  20
ENDBRANCH  15  16
ENDBRANCH  12  15
ENDBRANCH   6  10
BRANCH   1  24
ATOM     23  C   UNL     1       1.311  13.348  18.714  0.00  0.00    +0.000 C 
ATOM     24  C   UNL     1       0.130  12.400  18.610  0.00  0.00    +0.000 C 
ENDBRANCH   1  24
BRANCH   3  25
ATOM     25  C   UNL     1      -0.150   9.447  22.651  0.00  0.00    +0.000 C 
ATOM     26  O   UNL     1       0.262   9.977  23.678  0.00  0.00    +0.000 OA
BRANCH  25  27
ATOM     27  O   UNL     1      -0.926   8.337  22.705  0.00  0.00    +0.000 OA
ATOM     28  H   UNL     1      -1.510   8.246  21.936  0.00  0.00    +0.000 HD
ENDBRANCH  25  27
ENDBRANCH   3  25
TORSDOF 10
ENDMDL
MODEL 2
REMARK VINA RESULT:      -7.2      1.057      1.189
REMARK  Name = 
REMARK  11 active torsions:
REMARK  status: ('A' for Active; 'I' for Inactive)
REMARK    1  A    between atoms: C_1  and  C_2
REMARK    2  A    between atoms: C_2  and  N_3
REMARK    3  A    between atoms: C_5  and  C_6
REMARK    4  A    between atoms: C_6  and  O_8
REMARK    5  A    between atoms: C_11  and  C_12
REMARK    6  A    between atoms: C_14  and  C_15
REMARK    7  A    between atoms: C_15  and  N_16
REMARK    8  A    between atoms: N_16  and  C_17
REMARK    9  A    between atoms: N_16  and  C_19
REMARK   10  A    between atoms: C_17  and  O_18
REMARK   11  A    between atoms: C_19  and  O_20
REMARK                            x       y       z     vdW  Elec       q    Type
REMARK                         _______ _______ _______ _____ _____    ______ ____
ROOT
ATOM      1  N   UNL     1       0.054  11.043  19.476  0.00  0.00    +0.000 N 
ATOM      2  C   UNL     1      -0.225  10.977  20.820  0.00  0.00    +0.000 A 
ATOM      3  C   UNL     1       0.385   9.847  21.347  0.00  0.00    +0.000 A 
ATOM      4  C   UNL     1       1.033   9.190  20.242  0.00  0.00    +0.000 A 
ATOM      5  C   UNL     1       1.798   8.002  20.117  0.00  0.00    +0.000 A 
ATOM      6  C   UNL     1       2.289   7.583  18.867  0.00  0.00    +0.000 A 
ATOM      7  C   UNL     1       2.002   8.371  17.744  0.00  0.00    +0.000 A 
ATOM      8  C   UNL     1       1.264   9.556  17.833  0.00  0.00    +0.000 A 
ATOM      9  C   UNL     1       0.791   9.946  19.091  0.00  0.00    +0.000 A 
ENDROOT
BRANCH   6  10
ATOM     10  C   UNL     1       3.023   6.305  18.753  0.00  0.00    +0.000 A 
ATOM     11  N   UNL     1       3.714   5.915  17.696  0.00  0.00    +0.000 NA
ATOM     12  C   UNL     1       4.409   4.739  17.969  0.00  0.00    +0.000 A 
ATOM     13  C   UNL     1       4.189   4.224  19.231  0.00  0.00    +0.000 A 
ATOM     14  S   UNL     1       3.046   5.176  20.064  0.00  0.00    +0.000 S 
BRANCH  12  15
ATOM     15  C   UNL     1       5.300   4.148  16.912  0.00  0.00    +0.000 C 
BRANCH  15  16
ATOM     16  N   UNL     1       6.181   5.169  16.311  0.00  0.00    +0.000 NA
BRANCH  16  17
ATOM     17  C   UNL     1       7.100   5.749  17.286  0.00  0.00    +0.000 C 
BRANCH  17  18
ATOM     18  O   UNL     1       7.708   6.938  16.822  0.00  0.00    +0.000 OA
ATOM     19  H   UNL     1       8.290   6.679  16.087  0.00  0.00    +0.000 HD
ENDBRANCH  17  18
ENDBRANCH  16  17
BRANCH  16  20
ATOM     20  C   UNL     1       6.919   4.559  15.211  0.00  0.00    +0.000 C 
BRANCH  20  21
ATOM     21  O   UNL     1       7.602   5.543  14.459  0.00  0.00    +0.000 OA
ATOM     22  H   UNL     1       7.313   6.387  14.838  0.00  0.00    +0.000 HD
ENDBRANCH  20  21
ENDBRANCH  16  20
ENDBRANCH  15  16
ENDBRANCH  12  15
ENDBRANCH   6  10
BRANCH   1  24
ATOM     23  C   UNL     1      -1.805  12.058  18.198  0.00  0.00    +0.000 C 
ATOM     24  C   UNL     1      -0.348  12.142  18.612  0.00  0.00    +0.000 C 
ENDBRANCH   1  24
BRANCH   3  25
ATOM     25  C   UNL     1       0.377   9.390  22.738  0.00  0.00    +0.000 C 
ATOM     26  O   UNL     1       1.335   9.510  23.495  0.00  0.00    +0.000 OA
BRANCH  25  27
ATOM     27  O   UNL     1      -0.773   8.811  23.161  0.00  0.00    +0.000 OA
ATOM     28  H   UNL     1      -1.563   9.197  22.751  0.00  0.00    +0.000 HD
ENDBRANCH  25  27
ENDBRANCH   3  25
TORSDOF 10
ENDMDL
MODEL 3
REMARK VINA RESULT:      -7.1      0.929      1.058
REMARK  Name = 
REMARK  11 active torsions:
REMARK  status: ('A' for Active; 'I' for Inactive)
REMARK    1  A    between atoms: C_1  and  C_2
REMARK    2  A    between atoms: C_2  and  N_3
REMARK    3  A    between atoms: C_5  and  C_6
REMARK    4  A    between atoms: C_6  and  O_8
REMARK    5  A    between atoms: C_11  and  C_12
REMARK    6  A    between atoms: C_14  and  C_15
REMARK    7  A    between atoms: C_15  and  N_16
REMARK    8  A    between atoms: N_16  and  C_17
REMARK    9  A    between atoms: N_16  and  C_19
REMARK   10  A    between atoms: C_17  and  O_18
REMARK   11  A    between atoms: C_19  and  O_20
REMARK                            x       y       z     vdW  Elec       q    Type
REMARK                         _______ _______ _______ _____ _____    ______ ____
ROOT
ATOM      1  N   UNL     1      -0.054  11.216  19.389  0.00  0.00    +0.000 N 
ATOM      2  C   UNL     1      -0.540  11.192  20.674  0.00  0.00    +0.000 A 
ATOM      3  C   UNL     1      -0.062  10.055  21.310  0.00  0.00    +0.000 A 
ATOM      4  C   UNL     1       0.724   9.349  20.332  0.00  0.00    +0.000 A 
ATOM      5  C   UNL     1       1.454   8.133  20.350  0.00  0.00    +0.000 A 
ATOM      6  C   UNL     1       2.116   7.667  19.201  0.00  0.00    +0.000 A 
ATOM      7  C   UNL     1       2.038   8.437  18.032  0.00  0.00    +0.000 A 
ATOM      8  C   UNL     1       1.340   9.649  17.982  0.00  0.00    +0.000 A 
ATOM      9  C   UNL     1       0.693  10.085  19.144  0.00  0.00    +0.000 A 
ENDROOT
BRANCH   6  10
ATOM     10  C   UNL     1       2.811   6.362  19.227  0.00  0.00    +0.000 A 
ATOM     11  N   UNL     1       3.946   6.091  18.606  0.00  0.00    +0.000 NA
ATOM     12  C   UNL     1       4.409   4.826  18.959  0.00  0.00    +0.000 A 
ATOM     13  C   UNL     1       3.577   4.130  19.814  0.00  0.00    +0.000 A 
ATOM     14  S   UNL     1       2.166   5.033  20.126  0.00  0.00    +0.000 S 
BRANCH  12  15
ATOM     15  C   UNL     1       5.716   4.337  18.399  0.00  0.00    +0.000 C 
BRANCH  15  16
ATOM     16  N   UNL     1       6.658   5.451  18.169  0.00  0.00    +0.000 NA
BRANCH  16  17
ATOM     17  C   UNL     1       7.893   5.299  18.934  0.00  0.00    +0.000 C 
BRANCH  17  18
ATOM     18  O   UNL     1       7.723   5.594  20.306  0.00  0.00    +0.000 OA
ATOM     19  H   UNL     1       6.777   5.472  20.497  0.00  0.00    +0.000 HD
ENDBRANCH  17  18
ENDBRANCH  16  17
BRANCH  16  20
ATOM     20  C   UNL     1       6.946   5.531  16.742  0.00  0.00    +0.000 C 
BRANCH  20  21
ATOM     21  O   UNL     1       7.913   4.568  16.371  0.00  0.00    +0.000 OA
ATOM     22  H   UNL     1       8.196   4.833  15.483  0.00  0.00    +0.000 HD
ENDBRANCH  20  21
ENDBRANCH  16  20
ENDBRANCH  15  16
ENDBRANCH  12  15
ENDBRANCH   6  10
BRANCH   1  24
ATOM     23  C   UNL     1      -0.526  13.633  19.148  0.00  0.00    +0.000 C 
ATOM     24  C   UNL     1      -0.274  12.307  18.452  0.00  0.00    +0.000 C 
ENDBRANCH   1  24
BRANCH   3  25
ATOM     25  C   UNL     1      -0.303   9.633  22.692  0.00  0.00    +0.000 C 
ATOM     26  O   UNL     1       0.063  10.277  23.669  0.00  0.00    +0.000 OA
BRANCH  25  27
ATOM     27  O   UNL     1      -0.969   8.462  22.841  0.00  0.00    +0.000 OA
ATOM     28  H   UNL     1      -0.396   7.685  22.737  0.00  0.00    +0.000 HD
ENDBRANCH  25  27
ENDBRANCH   3  25
TORSDOF 10
ENDMDL
MODEL 4
REMARK VINA RESULT:      -6.9      2.522      3.188
REMARK  Name = 
REMARK  11 active torsions:
REMARK  status: ('A' for Active; 'I' for Inactive)
REMARK    1  A    between atoms: C_1  and  C_2
REMARK    2  A    between atoms: C_2  and  N_3
REMARK    3  A    between atoms: C_5  and  C_6
REMARK    4  A    between atoms: C_6  and  O_8
REMARK    5  A    between atoms: C_11  and  C_12
REMARK    6  A    between atoms: C_14  and  C_15
REMARK    7  A    between atoms: C_15  and  N_16
REMARK    8  A    between atoms: N_16  and  C_17
REMARK    9  A    between atoms: N_16  and  C_19
REMARK   10  A    between atoms: C_17  and  O_18
REMARK   11  A    between atoms: C_19  and  O_20
REMARK                            x       y       z     vdW  Elec       q    Type
REMARK                         _______ _______ _______ _____ _____    ______ ____
ROOT
ATOM      1  N   UNL     1       0.000  10.998  19.542  0.00  0.00    +0.000 N 
ATOM      2  C   UNL     1      -0.376  10.909  20.861  0.00  0.00    +0.000 A 
ATOM      3  C   UNL     1       0.209   9.779  21.415  0.00  0.00    +0.000 A 
ATOM      4  C   UNL     1       0.945   9.146  20.352  0.00  0.00    +0.000 A 
ATOM      5  C   UNL     1       1.733   7.969  20.267  0.00  0.00    +0.000 A 
ATOM      6  C   UNL     1       2.319   7.575  19.051  0.00  0.00    +0.000 A 
ATOM      7  C   UNL     1       2.106   8.375  17.921  0.00  0.00    +0.000 A 
ATOM      8  C   UNL     1       1.348   9.551  17.972  0.00  0.00    +0.000 A 
ATOM      9  C   UNL     1       0.779   9.916  19.197  0.00  0.00    +0.000 A 
ENDROOT
BRANCH   6  10
ATOM     10  C   UNL     1       3.077   6.307  18.975  0.00  0.00    +0.000 A 
ATOM     11  N   UNL     1       2.961   5.298  19.822  0.00  0.00    +0.000 NA
ATOM     12  C   UNL     1       3.695   4.200  19.381  0.00  0.00    +0.000 A 
ATOM     13  C   UNL     1       4.406   4.416  18.216  0.00  0.00    +0.000 A 
ATOM     14  S   UNL     1       4.215   6.030  17.702  0.00  0.00    +0.000 S 
BRANCH  12  15
ATOM     15  C   UNL     1       3.662   2.925  20.177  0.00  0.00    +0.000 C 
BRANCH  15  16
ATOM     16  N   UNL     1       2.397   2.191  19.974  0.00  0.00    +0.000 NA
BRANCH  16  17
ATOM     17  C   UNL     1       1.297   2.761  20.748  0.00  0.00    +0.000 C 
BRANCH  17  18
ATOM     18  O   UNL     1       1.593   2.860  22.126  0.00  0.00    +0.000 OA
ATOM     19  H   UNL     1       0.767   3.127  22.565  0.00  0.00    +0.000 HD
ENDBRANCH  17  18
ENDBRANCH  16  17
BRANCH  16  20
ATOM     20  C   UNL     1       2.078   2.195  18.551  0.00  0.00    +0.000 C 
BRANCH  20  21
ATOM     21  O   UNL     1       0.678   2.157  18.351  0.00  0.00    +0.000 OA
ATOM     22  H   UNL     1       0.376   3.055  18.556  0.00  0.00    +0.000 HD
ENDBRANCH  20  21
ENDBRANCH  16  20
ENDBRANCH  15  16
ENDBRANCH  12  15
ENDBRANCH   6  10
BRANCH   1  24
ATOM     23  C   UNL     1       0.480  13.348  18.934  0.00  0.00    +0.000 C 
ATOM     24  C   UNL     1      -0.350  12.105  18.666  0.00  0.00    +0.000 C 
ENDBRANCH   1  24
BRANCH   3  25
ATOM     25  C   UNL     1       0.105   9.301  22.796  0.00  0.00    +0.000 C 
ATOM     26  O   UNL     1       0.884   9.627  23.684  0.00  0.00    +0.000 OA
BRANCH  25  27
ATOM     27  O   UNL     1      -0.925   8.457  23.050  0.00  0.00    +0.000 OA
ATOM     28  H   UNL     1      -0.837   7.999  23.901  0.00  0.00    +0.000 HD
ENDBRANCH  25  27
ENDBRANCH   3  25
TORSDOF 10
ENDMDL
MODEL 5
REMARK VINA RESULT:      -6.8      3.108      8.247
REMARK  Name = 
REMARK  11 active torsions:
REMARK  status: ('A' for Active; 'I' for Inactive)
REMARK    1  A    between atoms: C_1  and  C_2
REMARK    2  A    between atoms: C_2  and  N_3
REMARK    3  A    between atoms: C_5  and  C_6
REMARK    4  A    between atoms: C_6  and  O_8
REMARK    5  A    between atoms: C_11  and  C_12
REMARK    6  A    between atoms: C_14  and  C_15
REMARK    7  A    between atoms: C_15  and  N_16
REMARK    8  A    between atoms: N_16  and  C_17
REMARK    9  A    between atoms: N_16  and  C_19
REMARK   10  A    between atoms: C_17  and  O_18
REMARK   11  A    between atoms: C_19  and  O_20
REMARK                            x       y       z     vdW  Elec       q    Type
REMARK                         _______ _______ _______ _____ _____    ______ ____
ROOT
ATOM      1  N   UNL     1       4.695   4.070  16.926  0.00  0.00    +0.000 N 
ATOM      2  C   UNL     1       4.072   2.993  17.510  0.00  0.00    +0.000 A 
ATOM      3  C   UNL     1       3.015   3.455  18.281  0.00  0.00    +0.000 A 
ATOM      4  C   UNL     1       3.036   4.891  18.173  0.00  0.00    +0.000 A 
ATOM      5  C   UNL     1       2.243   5.930  18.725  0.00  0.00    +0.000 A 
ATOM      6  C   UNL     1       2.530   7.280  18.458  0.00  0.00    +0.000 A 
ATOM      7  C   UNL     1       3.622   7.576  17.631  0.00  0.00    +0.000 A 
ATOM      8  C   UNL     1       4.416   6.577  17.058  0.00  0.00    +0.000 A 
ATOM      9  C   UNL     1       4.103   5.242  17.341  0.00  0.00    +0.000 A 
ENDROOT
BRANCH   6  10
ATOM     10  C   UNL     1       1.731   8.345  19.102  0.00  0.00    +0.000 A 
ATOM     11  N   UNL     1       1.190   9.376  18.476  0.00  0.00    +0.000 NA
ATOM     12  C   UNL     1       0.376  10.104  19.340  0.00  0.00    +0.000 A 
ATOM     13  C   UNL     1       0.356   9.635  20.639  0.00  0.00    +0.000 A 
ATOM     14  S   UNL     1       1.419   8.313  20.803  0.00  0.00    +0.000 S 
BRANCH  12  15
ATOM     15  C   UNL     1      -0.376  11.295  18.814  0.00  0.00    +0.000 C 
BRANCH  15  16
ATOM     16  N   UNL     1      -1.835  11.064  18.827  0.00  0.00    +0.000 NA
BRANCH  16  17
ATOM     17  C   UNL     1      -2.568  12.189  19.400  0.00  0.00    +0.000 C 
BRANCH  17  18
ATOM     18  O   UNL     1      -3.795  12.434  18.741  0.00  0.00    +0.000 OA
ATOM     19  H   UNL     1      -3.681  12.118  17.828  0.00  0.00    +0.000 HD
ENDBRANCH  17  18
ENDBRANCH  16  17
BRANCH  16  20
ATOM     20  C   UNL     1      -2.278  10.806  17.462  0.00  0.00    +0.000 C 
BRANCH  20  21
ATOM     21  O   UNL     1      -1.922  11.876  16.609  0.00  0.00    +0.000 OA
ATOM     22  H   UNL     1      -1.437  11.459  15.880  0.00  0.00    +0.000 HD
ENDBRANCH  20  21
ENDBRANCH  16  20
ENDBRANCH  15  16
ENDBRANCH  12  15
ENDBRANCH   6  10
BRANCH   1  24
ATOM     23  C   UNL     1       7.108   4.461  16.547  0.00  0.00    +0.000 C 
ATOM     24  C   UNL     1       5.792   3.963  15.977  0.00  0.00    +0.000 C 
ENDBRANCH   1  24
BRANCH   3  25
ATOM     25  C   UNL     1       2.062   2.663  19.063  0.00  0.00    +0.000 C 
ATOM     26  O   UNL     1       1.098   2.087  18.571  0.00  0.00    +0.000 OA
BRANCH  25  27
ATOM     27  O   UNL     1       2.307   2.595  20.394  0.00  0.00    +0.000 OA
ATOM     28  H   UNL     1       1.847   3.286  20.898  0.00  0.00    +0.000 HD
ENDBRANCH  25  27
ENDBRANCH   3  25
TORSDOF 10
ENDMDL
MODEL 6
REMARK VINA RESULT:      -6.8      1.297      1.776
REMARK  Name = 
REMARK  11 active torsions:
REMARK  status: ('A' for Active; 'I' for Inactive)
REMARK    1  A    between atoms: C_1  and  C_2
REMARK    2  A    between atoms: C_2  and  N_3
REMARK    3  A    between atoms: C_5  and  C_6
REMARK    4  A    between atoms: C_6  and  O_8
REMARK    5  A    between atoms: C_11  and  C_12
REMARK    6  A    between atoms: C_14  and  C_15
REMARK    7  A    between atoms: C_15  and  N_16
REMARK    8  A    between atoms: N_16  and  C_17
REMARK    9  A    between atoms: N_16  and  C_19
REMARK   10  A    between atoms: C_17  and  O_18
REMARK   11  A    between atoms: C_19  and  O_20
REMARK                            x       y       z     vdW  Elec       q    Type
REMARK                         _______ _______ _______ _____ _____    ______ ____
ROOT
ATOM      1  N   UNL     1      -0.252  10.936  19.426  0.00  0.00    +0.000 N 
ATOM      2  C   UNL     1      -0.520  10.904  20.774  0.00  0.00    +0.000 A 
ATOM      3  C   UNL     1       0.208   9.871  21.348  0.00  0.00    +0.000 A 
ATOM      4  C   UNL     1       0.919   9.234  20.270  0.00  0.00    +0.000 A 
ATOM      5  C   UNL     1       1.805   8.129  20.195  0.00  0.00    +0.000 A 
ATOM      6  C   UNL     1       2.334   7.706  18.962  0.00  0.00    +0.000 A 
ATOM      7  C   UNL     1       1.963   8.405  17.806  0.00  0.00    +0.000 A 
ATOM      8  C   UNL     1       1.104   9.509  17.845  0.00  0.00    +0.000 A 
ATOM      9  C   UNL     1       0.596   9.906  19.087  0.00  0.00    +0.000 A 
ENDROOT
BRANCH   6  10
ATOM     10  C   UNL     1       3.199   6.508  18.903  0.00  0.00    +0.000 A 
ATOM     11  N   UNL     1       4.232   6.353  18.092  0.00  0.00    +0.000 NA
ATOM     12  C   UNL     1       4.924   5.184  18.395  0.00  0.00    +0.000 A 
ATOM     13  C   UNL     1       4.365   4.435  19.412  0.00  0.00    +0.000 A 
ATOM     14  S   UNL     1       2.920   5.160  19.950  0.00  0.00    +0.000 S 
BRANCH  12  15
ATOM     15  C   UNL     1       6.166   4.841  17.620  0.00  0.00    +0.000 C 
BRANCH  15  16
ATOM     16  N   UNL     1       7.330   5.620  18.088  0.00  0.00    +0.000 NA
BRANCH  16  17
ATOM     17  C   UNL     1       7.360   6.965  17.519  0.00  0.00    +0.000 C 
BRANCH  17  18
ATOM     18  O   UNL     1       6.530   7.095  16.382  0.00  0.00    +0.000 OA
ATOM     19  H   UNL     1       5.889   6.364  16.427  0.00  0.00    +0.000 HD
ENDBRANCH  17  18
ENDBRANCH  16  17
BRANCH  16  20
ATOM     20  C   UNL     1       7.296   5.680  19.544  0.00  0.00    +0.000 C 
BRANCH  20  21
ATOM     21  O   UNL     1       8.502   5.186  20.094  0.00  0.00    +0.000 OA
ATOM     22  H   UNL     1       9.093   5.954  20.121  0.00  0.00    +0.000 HD
ENDBRANCH  20  21
ENDBRANCH  16  20
ENDBRANCH  15  16
ENDBRANCH  12  15
ENDBRANCH   6  10
BRANCH   1  24
ATOM     23  C   UNL     1       0.077  13.205  18.497  0.00  0.00    +0.000 C 
ATOM     24  C   UNL     1      -0.769  11.945  18.514  0.00  0.00    +0.000 C 
ENDBRANCH   1  24
BRANCH   3  25
ATOM     25  C   UNL     1       0.252   9.482  22.759  0.00  0.00    +0.000 C 
ATOM     26  O   UNL     1       1.270   9.523  23.440  0.00  0.00    +0.000 OA
BRANCH  25  27
ATOM     27  O   UNL     1      -0.923   9.062  23.290  0.00  0.00    +0.000 OA
ATOM     28  H   UNL     1      -1.104   9.450  24.161  0.00  0.00    +0.000 HD
ENDBRANCH  25  27
ENDBRANCH   3  25
TORSDOF 10
ENDMDL
MODEL 7
REMARK VINA RESULT:      -6.7      0.710      1.358
REMARK  Name = 
REMARK  11 active torsions:
REMARK  status: ('A' for Active; 'I' for Inactive)
REMARK    1  A    between atoms: C_1  and  C_2
REMARK    2  A    between atoms: C_2  and  N_3
REMARK    3  A    between atoms: C_5  and  C_6
REMARK    4  A    between atoms: C_6  and  O_8
REMARK    5  A    between atoms: C_11  and  C_12
REMARK    6  A    between atoms: C_14  and  C_15
REMARK    7  A    between atoms: C_15  and  N_16
REMARK    8  A    between atoms: N_16  and  C_17
REMARK    9  A    between atoms: N_16  and  C_19
REMARK   10  A    between atoms: C_17  and  O_18
REMARK   11  A    between atoms: C_19  and  O_20
REMARK                            x       y       z     vdW  Elec       q    Type
REMARK                         _______ _______ _______ _____ _____    ______ ____
ROOT
ATOM      1  N   UNL     1       0.470  11.258  19.574  0.00  0.00    +0.000 N 
ATOM      2  C   UNL     1      -0.012  11.126  20.854  0.00  0.00    +0.000 A 
ATOM      3  C   UNL     1       0.356   9.881  21.343  0.00  0.00    +0.000 A 
ATOM      4  C   UNL     1       1.066   9.225  20.275  0.00  0.00    +0.000 A 
ATOM      5  C   UNL     1       1.675   7.951  20.137  0.00  0.00    +0.000 A 
ATOM      6  C   UNL     1       2.284   7.565  18.929  0.00  0.00    +0.000 A 
ATOM      7  C   UNL     1       2.275   8.474  17.862  0.00  0.00    +0.000 A 
ATOM      8  C   UNL     1       1.698   9.744  17.968  0.00  0.00    +0.000 A 
ATOM      9  C   UNL     1       1.102  10.098  19.184  0.00  0.00    +0.000 A 
ENDROOT
BRANCH   6  10
ATOM     10  C   UNL     1       2.848   6.206  18.789  0.00  0.00    +0.000 A 
ATOM     11  N   UNL     1       3.426   5.730  17.699  0.00  0.00    +0.000 NA
ATOM     12  C   UNL     1       3.985   4.479  17.946  0.00  0.00    +0.000 A 
ATOM     13  C   UNL     1       3.773   3.998  19.223  0.00  0.00    +0.000 A 
ATOM     14  S   UNL     1       2.803   5.086  20.107  0.00  0.00    +0.000 S 
BRANCH  12  15
ATOM     15  C   UNL     1       4.736   3.778  16.848  0.00  0.00    +0.000 C 
BRANCH  15  16
ATOM     16  N   UNL     1       6.084   4.353  16.660  0.00  0.00    +0.000 NA
BRANCH  16  17
ATOM     17  C   UNL     1       6.060   5.565  15.846  0.00  0.00    +0.000 C 
BRANCH  17  18
ATOM     18  O   UNL     1       6.507   5.342  14.523  0.00  0.00    +0.000 OA
ATOM     19  H   UNL     1       5.879   5.804  13.941  0.00  0.00    +0.000 HD
ENDBRANCH  17  18
ENDBRANCH  16  17
BRANCH  16  20
ATOM     20  C   UNL     1       6.660   4.628  17.971  0.00  0.00    +0.000 C 
BRANCH  20  21
ATOM     21  O   UNL     1       8.011   4.210  18.022  0.00  0.00    +0.000 OA
ATOM     22  H   UNL     1       8.135   3.680  17.220  0.00  0.00    +0.000 HD
ENDBRANCH  20  21
ENDBRANCH  16  20
ENDBRANCH  15  16
ENDBRANCH  12  15
ENDBRANCH   6  10
BRANCH   1  24
ATOM     23  C   UNL     1      -1.068  12.726  18.309  0.00  0.00    +0.000 C 
ATOM     24  C   UNL     1       0.353  12.470  18.777  0.00  0.00    +0.000 C 
ENDBRANCH   1  24
BRANCH   3  25
ATOM     25  C   UNL     1       0.082   9.320  22.668  0.00  0.00    +0.000 C 
ATOM     26  O   UNL     1       0.718   9.618  23.673  0.00  0.00    +0.000 OA
BRANCH  25  27
ATOM     27  O   UNL     1      -0.940   8.431  22.730  0.00  0.00    +0.000 OA
ATOM     28  H   UNL     1      -1.701   8.691  22.187  0.00  0.00    +0.000 HD
ENDBRANCH  25  27
ENDBRANCH   3  25
TORSDOF 10
ENDMDL
MODEL 8
REMARK VINA RESULT:      -6.6      2.943      8.281
REMARK  Name = 
REMARK  11 active torsions:
REMARK  status: ('A' for Active; 'I' for Inactive)
REMARK    1  A    between atoms: C_1  and  C_2
REMARK    2  A    between atoms: C_2  and  N_3
REMARK    3  A    between atoms: C_5  and  C_6
REMARK    4  A    between atoms: C_6  and  O_8
REMARK    5  A    between atoms: C_11  and  C_12
REMARK    6  A    between atoms: C_14  and  C_15
REMARK    7  A    between atoms: C_15  and  N_16
REMARK    8  A    between atoms: N_16  and  C_17
REMARK    9  A    between atoms: N_16  and  C_19
REMARK   10  A    between atoms: C_17  and  O_18
REMARK   11  A    between atoms: C_19  and  O_20
REMARK                            x       y       z     vdW  Elec       q    Type
REMARK                         _______ _______ _______ _____ _____    ______ ____
ROOT
ATOM      1  N   UNL     1       4.876   4.171  16.907  0.00  0.00    +0.000 N 
ATOM      2  C   UNL     1       4.279   3.083  17.498  0.00  0.00    +0.000 A 
ATOM      3  C   UNL     1       3.197   3.521  18.249  0.00  0.00    +0.000 A 
ATOM      4  C   UNL     1       3.176   4.956  18.122  0.00  0.00    +0.000 A 
ATOM      5  C   UNL     1       2.344   5.977  18.649  0.00  0.00    +0.000 A 
ATOM      6  C   UNL     1       2.593   7.332  18.368  0.00  0.00    +0.000 A 
ATOM      7  C   UNL     1       3.686   7.651  17.551  0.00  0.00    +0.000 A 
ATOM      8  C   UNL     1       4.518   6.669  17.002  0.00  0.00    +0.000 A 
ATOM      9  C   UNL     1       4.243   5.329  17.299  0.00  0.00    +0.000 A 
ENDROOT
BRANCH   6  10
ATOM     10  C   UNL     1       1.753   8.380  18.988  0.00  0.00    +0.000 A 
ATOM     11  N   UNL     1       1.226   9.410  18.348  0.00  0.00    +0.000 NA
ATOM     12  C   UNL     1       0.367  10.119  19.184  0.00  0.00    +0.000 A 
ATOM     13  C   UNL     1       0.296   9.636  20.476  0.00  0.00    +0.000 A 
ATOM     14  S   UNL     1       1.368   8.326  20.673  0.00  0.00    +0.000 S 
BRANCH  12  15
ATOM     15  C   UNL     1      -0.378  11.306  18.638  0.00  0.00    +0.000 C 
BRANCH  15  16
ATOM     16  N   UNL     1      -0.915  12.155  19.720  0.00  0.00    +0.000 NA
BRANCH  16  17
ATOM     17  C   UNL     1      -0.384  13.515  19.672  0.00  0.00    +0.000 C 
BRANCH  17  18
ATOM     18  O   UNL     1      -0.669  14.168  18.452  0.00  0.00    +0.000 OA
ATOM     19  H   UNL     1      -1.603  14.437  18.497  0.00  0.00    +0.000 HD
ENDBRANCH  17  18
ENDBRANCH  16  17
BRANCH  16  20
ATOM     20  C   UNL     1      -2.369  12.169  19.624  0.00  0.00    +0.000 C 
BRANCH  20  21
ATOM     21  O   UNL     1      -2.782  12.201  18.272  0.00  0.00    +0.000 OA
ATOM     22  H   UNL     1      -1.985  11.980  17.766  0.00  0.00    +0.000 HD
ENDBRANCH  20  21
ENDBRANCH  16  20
ENDBRANCH  15  16
ENDBRANCH  12  15
ENDBRANCH   6  10
BRANCH   1  24
ATOM     23  C   UNL     1       5.558   4.285  14.532  0.00  0.00    +0.000 C 
ATOM     24  C   UNL     1       5.988   4.085  15.974  0.00  0.00    +0.000 C 
ENDBRANCH   1  24
BRANCH   3  25
ATOM     25  C   UNL     1       2.259   2.711  19.029  0.00  0.00    +0.000 C 
ATOM     26  O   UNL     1       2.085   2.851  20.234  0.00  0.00    +0.000 OA
BRANCH  25  27
ATOM     27  O   UNL     1       1.574   1.770  18.332  0.00  0.00    +0.000 OA
ATOM     28  H   UNL     1       0.761   1.487  18.780  0.00  0.00    +0.000 HD
ENDBRANCH  25  27
ENDBRANCH   3  25
TORSDOF 10
ENDMDL
MODEL 9
REMARK VINA RESULT:      -6.6      3.050      8.170
REMARK  Name = 
REMARK  11 active torsions:
REMARK  status: ('A' for Active; 'I' for Inactive)
REMARK    1  A    between atoms: C_1  and  C_2
REMARK    2  A    between atoms: C_2  and  N_3
REMARK    3  A    between atoms: C_5  and  C_6
REMARK    4  A    between atoms: C_6  and  O_8
REMARK    5  A    between atoms: C_11  and  C_12
REMARK    6  A    between atoms: C_14  and  C_15
REMARK    7  A    between atoms: C_15  and  N_16
REMARK    8  A    between atoms: N_16  and  C_17
REMARK    9  A    between atoms: N_16  and  C_19
REMARK   10  A    between atoms: C_17  and  O_18
REMARK   11  A    between atoms: C_19  and  O_20
REMARK                            x       y       z     vdW  Elec       q    Type
REMARK                         _______ _______ _______ _____ _____    ______ ____
ROOT
ATOM      1  N   UNL     1       4.130   4.131  18.045  0.00  0.00    +0.000 N 
ATOM      2  C   UNL     1       3.763   3.210  18.996  0.00  0.00    +0.000 A 
ATOM      3  C   UNL     1       2.894   3.817  19.892  0.00  0.00    +0.000 A 
ATOM      4  C   UNL     1       2.769   5.186  19.464  0.00  0.00    +0.000 A 
ATOM      5  C   UNL     1       2.054   6.308  19.957  0.00  0.00    +0.000 A 
ATOM      6  C   UNL     1       2.154   7.564  19.330  0.00  0.00    +0.000 A 
ATOM      7  C   UNL     1       2.979   7.680  18.204  0.00  0.00    +0.000 A 
ATOM      8  C   UNL     1       3.686   6.591  17.681  0.00  0.00    +0.000 A 
ATOM      9  C   UNL     1       3.565   5.355  18.327  0.00  0.00    +0.000 A 
ENDROOT
BRANCH   6  10
ATOM     10  C   UNL     1       1.454   8.732  19.906  0.00  0.00    +0.000 A 
ATOM     11  N   UNL     1       1.100   9.815  19.233  0.00  0.00    +0.000 NA
ATOM     12  C   UNL     1       0.325  10.655  20.029  0.00  0.00    +0.000 A 
ATOM     13  C   UNL     1       0.146  10.213  21.325  0.00  0.00    +0.000 A 
ATOM     14  S   UNL     1       1.013   8.767  21.578  0.00  0.00    +0.000 S 
BRANCH  12  15
ATOM     15  C   UNL     1      -0.224  11.925  19.441  0.00  0.00    +0.000 C 
BRANCH  15  16
ATOM     16  N   UNL     1      -1.687  12.019  19.624  0.00  0.00    +0.000 NA
BRANCH  16  17
ATOM     17  C   UNL     1      -2.095  13.315  20.160  0.00  0.00    +0.000 C 
BRANCH  17  18
ATOM     18  O   UNL     1      -3.489  13.527  20.072  0.00  0.00    +0.000 OA
ATOM     19  H   UNL     1      -3.766  13.170  19.210  0.00  0.00    +0.000 HD
ENDBRANCH  17  18
ENDBRANCH  16  17
BRANCH  16  20
ATOM     20  C   UNL     1      -2.335  11.769  18.342  0.00  0.00    +0.000 C 
BRANCH  20  21
ATOM     21  O   UNL     1      -1.621  12.388  17.290  0.00  0.00    +0.000 OA
ATOM     22  H   UNL     1      -2.032  13.260  17.193  0.00  0.00    +0.000 HD
ENDBRANCH  20  21
ENDBRANCH  16  20
ENDBRANCH  15  16
ENDBRANCH  12  15
ENDBRANCH   6  10
BRANCH   1  24
ATOM     23  C   UNL     1       6.363   4.402  17.015  0.00  0.00    +0.000 C 
ATOM     24  C   UNL     1       4.964   3.827  16.892  0.00  0.00    +0.000 C 
ENDBRANCH   1  24
BRANCH   3  25
ATOM     25  C   UNL     1       2.234   3.211  21.050  0.00  0.00    +0.000 C 
ATOM     26  O   UNL     1       2.842   2.729  22.000  0.00  0.00    +0.000 OA
BRANCH  25  27
ATOM     27  O   UNL     1       0.878   3.210  21.021  0.00  0.00    +0.000 OA
ATOM     28  H   UNL     1       0.496   4.076  21.232  0.00  0.00    +0.000 HD
ENDBRANCH  25  27
ENDBRANCH   3  25
TORSDOF 10
ENDMDL
