MODEL 1
REMARK VINA RESULT:      -8.5      0.000      0.000
REMARK  Name = 
REMARK  10 active torsions:
REMARK  status: ('A' for Active; 'I' for Inactive)
REMARK    1  A    between atoms: C_1  and  C_2
REMARK    2  A    between atoms: C_2  and  O_3
REMARK    3  A    between atoms: O_3  and  C_4
REMARK    4  A    between atoms: C_4  and  C_6
REMARK    5  A    between atoms: C_11  and  N_12
REMARK    6  A    between atoms: C_13  and  C_15
REMARK    7  A    between atoms: C_15  and  S_16
REMARK    8  A    between atoms: S_16  and  C_17
REMARK    9  A    between atoms: C_23  and  C_24
REMARK   10  A    between atoms: N_26  and  C_27
REMARK                            x       y       z     vdW  Elec       q    Type
REMARK                         _______ _______ _______ _____ _____    ______ ____
ROOT
ATOM      1  C   UNL     1       0.453   9.946  21.605  0.00  0.00    +0.000 A 
ATOM      2  N   UNL     1       0.052   9.333  22.696  0.00  0.00    +0.000 NA
ATOM      3  N   UNL     1      -0.727  10.238  23.417  0.00  0.00    +0.000 NA
ATOM      4  C   UNL     1      -0.792  11.362  22.730  0.00  0.00    +0.000 A 
ATOM      5  C   UNL     1      -1.543  12.574  22.857  0.00  0.00    +0.000 A 
ATOM      6  C   UNL     1      -1.409  13.557  21.934  0.00  0.00    +0.000 A 
ATOM      7  C   UNL     1      -0.465  13.422  20.825  0.00  0.00    +0.000 A 
ATOM      8  C   UNL     1       0.236  12.280  20.721  0.00  0.00    +0.000 A 
ATOM      9  N   UNL     1       0.033  11.254  21.626  0.00  0.00    +0.000 N 
ENDROOT
BRANCH   7  10
ATOM     10  C   UNL     1      -0.327  14.301  19.624  0.00  0.00    +0.000 C 
ATOM     11  O   UNL     1      -0.481  13.786  18.519  0.00  0.00    +0.000 OA
ATOM     12  N   UNL     1       0.033  15.611  19.844  0.00  0.00    +0.000 N 
ATOM     13  H   UNL     1       0.310  15.885  20.777  0.00  0.00    +0.000 HD
BRANCH  12  14
ATOM     14  C   UNL     1       0.235  16.556  18.802  0.00  0.00    +0.000 A 
ATOM     15  C   UNL     1      -0.792  17.370  18.296  0.00  0.00    +0.000 A 
ATOM     16  C   UNL     1      -0.575  18.239  17.226  0.00  0.00    +0.000 A 
ATOM     17  C   UNL     1       0.687  18.323  16.653  0.00  0.00    +0.000 A 
ATOM     18  C   UNL     1       1.716  17.544  17.173  0.00  0.00    +0.000 A 
ATOM     19  F   UNL     1       2.934  17.623  16.620  0.00  0.00    +0.000 F 
ATOM     20  C   UNL     1       1.507  16.671  18.242  0.00  0.00    +0.000 A 
ENDBRANCH  12  14
ENDBRANCH   7  10
BRANCH   1  21
ATOM     21  S   UNL     1       1.112   9.291  20.148  0.00  0.00    +0.000 S 
BRANCH  21  22
ATOM     22  C   UNL     1       1.651   7.620  20.519  0.00  0.00    +0.000 C 
BRANCH  22  24
ATOM     23  N   UNL     1       3.228   5.996  19.560  0.00  0.00    +0.000 N 
ATOM     24  C   UNL     1       2.433   7.111  19.305  0.00  0.00    +0.000 C 
ATOM     25  O   UNL     1       2.291   7.628  18.198  0.00  0.00    +0.000 OA
ATOM     26  H   UNL     1       2.902   5.396  20.316  0.00  0.00    +0.000 HD
BRANCH  23  32
ATOM     27  C   UNL     1       3.525   4.294  17.776  0.00  0.00    +0.000 A 
ATOM     28  C   UNL     1       4.351   3.732  16.781  0.00  0.00    +0.000 A 
ATOM     29  C   UNL     1       5.659   4.174  16.596  0.00  0.00    +0.000 A 
ATOM     30  C   UNL     1       6.161   5.184  17.406  0.00  0.00    +0.000 A 
ATOM     31  C   UNL     1       5.348   5.772  18.379  0.00  0.00    +0.000 A 
ATOM     32  C   UNL     1       4.020   5.353  18.568  0.00  0.00    +0.000 A 
BRANCH  27  33
ATOM     33  C   UNL     1       2.124   3.777  17.786  0.00  0.00    +0.000 C 
ATOM     34  O   UNL     1       1.166   4.435  17.432  0.00  0.00    +0.000 OA
BRANCH  33  35
ATOM     35  O   UNL     1       2.059   2.546  18.355  0.00  0.00    +0.000 OA
BRANCH  35  37
ATOM     36  C   UNL     1       1.065   3.048  20.474  0.00  0.00    +0.000 C 
ATOM     37  C   UNL     1       2.307   2.527  19.770  0.00  0.00    +0.000 C 
ENDBRANCH  35  37
ENDBRANCH  33  35
ENDBRANCH  27  33
ENDBRANCH  23  32
ENDBRANCH  22  24
ENDBRANCH  21  22
ENDBRANCH   1  21
TORSDOF 9
ENDMDL
MODEL 2
REMARK VINA RESULT:      -8.1      7.331      9.154
REMARK  Name = 
REMARK  10 active torsions:
REMARK  status: ('A' for Active; 'I' for Inactive)
REMARK    1  A    between atoms: C_1  and  C_2
REMARK    2  A    between atoms: C_2  and  O_3
REMARK    3  A    between atoms: O_3  and  C_4
REMARK    4  A    between atoms: C_4  and  C_6
REMARK    5  A    between atoms: C_11  and  N_12
REMARK    6  A    between atoms: C_13  and  C_15
REMARK    7  A    between atoms: C_15  and  S_16
REMARK    8  A    between atoms: S_16  and  C_17
REMARK    9  A    between atoms: C_23  and  C_24
REMARK   10  A    between atoms: N_26  and  C_27
REMARK                            x       y       z     vdW  Elec       q    Type
REMARK                         _______ _______ _______ _____ _____    ______ ____
ROOT
ATOM      1  C   UNL     1       9.818  11.152  18.537  0.00  0.00    +0.000 A 
ATOM      2  N   UNL     1      10.741  11.326  17.618  0.00  0.00    +0.000 NA
ATOM      3  N   UNL     1      11.399  12.520  17.914  0.00  0.00    +0.000 NA
ATOM      4  C   UNL     1      10.868  13.021  19.013  0.00  0.00    +0.000 A 
ATOM      5  C   UNL     1      11.200  14.108  19.883  0.00  0.00    +0.000 A 
ATOM      6  C   UNL     1      10.455  14.344  20.990  0.00  0.00    +0.000 A 
ATOM      7  C   UNL     1       9.277  13.531  21.290  0.00  0.00    +0.000 A 
ATOM      8  C   UNL     1       8.976  12.517  20.463  0.00  0.00    +0.000 A 
ATOM      9  N   UNL     1       9.789  12.238  19.379  0.00  0.00    +0.000 N 
ENDROOT
BRANCH   7  10
ATOM     10  C   UNL     1       8.464  13.520  22.545  0.00  0.00    +0.000 C 
ATOM     11  O   UNL     1       7.880  14.555  22.857  0.00  0.00    +0.000 OA
ATOM     12  N   UNL     1       8.488  12.367  23.297  0.00  0.00    +0.000 N 
ATOM     13  H   UNL     1       9.142  11.639  23.043  0.00  0.00    +0.000 HD
BRANCH  12  14
ATOM     14  C   UNL     1       7.794  12.218  24.528  0.00  0.00    +0.000 A 
ATOM     15  C   UNL     1       8.242  12.785  25.733  0.00  0.00    +0.000 A 
ATOM     16  C   UNL     1       7.572  12.563  26.937  0.00  0.00    +0.000 A 
ATOM     17  C   UNL     1       6.425  11.781  26.952  0.00  0.00    +0.000 A 
ATOM     18  C   UNL     1       5.958  11.247  25.756  0.00  0.00    +0.000 A 
ATOM     19  F   UNL     1       4.852  10.490  25.770  0.00  0.00    +0.000 F 
ATOM     20  C   UNL     1       6.622  11.462  24.547  0.00  0.00    +0.000 A 
ENDBRANCH  12  14
ENDBRANCH   7  10
BRANCH   1  21
ATOM     21  S   UNL     1       8.933   9.729  18.959  0.00  0.00    +0.000 S 
BRANCH  21  22
ATOM     22  C   UNL     1       8.325   9.015  17.429  0.00  0.00    +0.000 C 
BRANCH  22  24
ATOM     23  N   UNL     1       6.395   7.550  17.010  0.00  0.00    +0.000 N 
ATOM     24  C   UNL     1       7.527   7.761  17.795  0.00  0.00    +0.000 C 
ATOM     25  O   UNL     1       7.922   6.991  18.670  0.00  0.00    +0.000 OA
ATOM     26  H   UNL     1       6.444   7.936  16.068  0.00  0.00    +0.000 HD
BRANCH  23  32
ATOM     27  C   UNL     1       5.884   5.132  16.758  0.00  0.00    +0.000 A 
ATOM     28  C   UNL     1       4.990   4.066  16.987  0.00  0.00    +0.000 A 
ATOM     29  C   UNL     1       3.745   4.283  17.570  0.00  0.00    +0.000 A 
ATOM     30  C   UNL     1       3.373   5.571  17.932  0.00  0.00    +0.000 A 
ATOM     31  C   UNL     1       4.257   6.636  17.738  0.00  0.00    +0.000 A 
ATOM     32  C   UNL     1       5.526   6.435  17.169  0.00  0.00    +0.000 A 
BRANCH  27  33
ATOM     33  C   UNL     1       7.213   4.725  16.212  0.00  0.00    +0.000 C 
ATOM     34  O   UNL     1       8.075   4.190  16.880  0.00  0.00    +0.000 OA
BRANCH  33  35
ATOM     35  O   UNL     1       7.366   5.144  14.930  0.00  0.00    +0.000 OA
BRANCH  35  37
ATOM     36  C   UNL     1       6.697   3.866  13.020  0.00  0.00    +0.000 C 
ATOM     37  C   UNL     1       6.248   4.867  14.072  0.00  0.00    +0.000 C 
ENDBRANCH  35  37
ENDBRANCH  33  35
ENDBRANCH  27  33
ENDBRANCH  23  32
ENDBRANCH  22  24
ENDBRANCH  21  22
ENDBRANCH   1  21
TORSDOF 9
ENDMDL
MODEL 3
REMARK VINA RESULT:      -8.0      3.804      9.619
REMARK  Name = 
REMARK  10 active torsions:
REMARK  status: ('A' for Active; 'I' for Inactive)
REMARK    1  A    between atoms: C_1  and  C_2
REMARK    2  A    between atoms: C_2  and  O_3
REMARK    3  A    between atoms: O_3  and  C_4
REMARK    4  A    between atoms: C_4  and  C_6
REMARK    5  A    between atoms: C_11  and  N_12
REMARK    6  A    between atoms: C_13  and  C_15
REMARK    7  A    between atoms: C_15  and  S_16
REMARK    8  A    between atoms: S_16  and  C_17
REMARK    9  A    between atoms: C_23  and  C_24
REMARK   10  A    between atoms: N_26  and  C_27
REMARK                            x       y       z     vdW  Elec       q    Type
REMARK                         _______ _______ _______ _____ _____    ______ ____
ROOT
ATOM      1  C   UNL     1       0.340  12.200  21.249  0.00  0.00    +0.000 A 
ATOM      2  N   UNL     1      -0.289  12.662  22.305  0.00  0.00    +0.000 NA
ATOM      3  N   UNL     1      -0.601  11.567  23.112  0.00  0.00    +0.000 NA
ATOM      4  C   UNL     1      -0.132  10.481  22.530  0.00  0.00    +0.000 A 
ATOM      5  C   UNL     1       0.003   9.111  22.921  0.00  0.00    +0.000 A 
ATOM      6  C   UNL     1       0.585   8.218  22.083  0.00  0.00    +0.000 A 
ATOM      7  C   UNL     1       1.038   8.622  20.754  0.00  0.00    +0.000 A 
ATOM      8  C   UNL     1       0.902   9.911  20.399  0.00  0.00    +0.000 A 
ATOM      9  N   UNL     1       0.377  10.827  21.292  0.00  0.00    +0.000 N 
ENDROOT
BRANCH   7  10
ATOM     10  C   UNL     1       1.865   7.837  19.787  0.00  0.00    +0.000 C 
ATOM     11  O   UNL     1       2.124   8.356  18.703  0.00  0.00    +0.000 OA
ATOM     12  N   UNL     1       2.216   6.558  20.156  0.00  0.00    +0.000 N 
ATOM     13  H   UNL     1       1.800   6.166  20.990  0.00  0.00    +0.000 HD
BRANCH  12  14
ATOM     14  C   UNL     1       2.969   5.681  19.330  0.00  0.00    +0.000 A 
ATOM     15  C   UNL     1       4.372   5.621  19.355  0.00  0.00    +0.000 A 
ATOM     16  C   UNL     1       5.084   4.796  18.483  0.00  0.00    +0.000 A 
ATOM     17  C   UNL     1       4.398   3.998  17.578  0.00  0.00    +0.000 A 
ATOM     18  C   UNL     1       3.007   4.028  17.572  0.00  0.00    +0.000 A 
ATOM     19  F   UNL     1       2.343   3.260  16.698  0.00  0.00    +0.000 F 
ATOM     20  C   UNL     1       2.287   4.851  18.440  0.00  0.00    +0.000 A 
ENDBRANCH  12  14
ENDBRANCH   7  10
BRANCH   1  21
ATOM     21  S   UNL     1       1.303  13.037  20.083  0.00  0.00    +0.000 S 
BRANCH  21  22
ATOM     22  C   UNL     1       0.204  13.535  18.754  0.00  0.00    +0.000 C 
BRANCH  22  24
ATOM     23  N   UNL     1      -1.985  12.561  19.305  0.00  0.00    +0.000 N 
ATOM     24  C   UNL     1      -1.193  13.706  19.356  0.00  0.00    +0.000 C 
ATOM     25  O   UNL     1      -1.527  14.762  19.892  0.00  0.00    +0.000 OA
ATOM     26  H   UNL     1      -1.473  11.681  19.304  0.00  0.00    +0.000 HD
BRANCH  23  32
ATOM     27  C   UNL     1      -4.418  12.138  19.028  0.00  0.00    +0.000 A 
ATOM     28  C   UNL     1      -5.695  12.053  19.621  0.00  0.00    +0.000 A 
ATOM     29  C   UNL     1      -5.886  12.359  20.966  0.00  0.00    +0.000 A 
ATOM     30  C   UNL     1      -4.803  12.759  21.738  0.00  0.00    +0.000 A 
ATOM     31  C   UNL     1      -3.525  12.822  21.175  0.00  0.00    +0.000 A 
ATOM     32  C   UNL     1      -3.308  12.498  19.825  0.00  0.00    +0.000 A 
BRANCH  27  33
ATOM     33  C   UNL     1      -4.361  11.689  17.605  0.00  0.00    +0.000 C 
ATOM     34  O   UNL     1      -5.214  11.958  16.784  0.00  0.00    +0.000 OA
BRANCH  33  35
ATOM     35  O   UNL     1      -3.314  10.849  17.397  0.00  0.00    +0.000 OA
BRANCH  35  37
ATOM     36  C   UNL     1      -2.983   9.809  15.268  0.00  0.00    +0.000 C 
ATOM     37  C   UNL     1      -2.656  11.015  16.132  0.00  0.00    +0.000 C 
ENDBRANCH  35  37
ENDBRANCH  33  35
ENDBRANCH  27  33
ENDBRANCH  23  32
ENDBRANCH  22  24
ENDBRANCH  21  22
ENDBRANCH   1  21
TORSDOF 9
ENDMDL
MODEL 4
REMARK VINA RESULT:      -8.0      5.674      8.154
REMARK  Name = 
REMARK  10 active torsions:
REMARK  status: ('A' for Active; 'I' for Inactive)
REMARK    1  A    between atoms: C_1  and  C_2
REMARK    2  A    between atoms: C_2  and  O_3
REMARK    3  A    between atoms: O_3  and  C_4
REMARK    4  A    between atoms: C_4  and  C_6
REMARK    5  A    between atoms: C_11  and  N_12
REMARK    6  A    between atoms: C_13  and  C_15
REMARK    7  A    between atoms: C_15  and  S_16
REMARK    8  A    between atoms: S_16  and  C_17
REMARK    9  A    between atoms: C_23  and  C_24
REMARK   10  A    between atoms: N_26  and  C_27
REMARK                            x       y       z     vdW  Elec       q    Type
REMARK                         _______ _______ _______ _____ _____    ______ ____
ROOT
ATOM      1  C   UNL     1      -4.674  15.219  22.589  0.00  0.00    +0.000 A 
ATOM      2  N   UNL     1      -5.217  15.625  23.714  0.00  0.00    +0.000 NA
ATOM      3  N   UNL     1      -6.368  14.863  23.917  0.00  0.00    +0.000 NA
ATOM      4  C   UNL     1      -6.473  14.005  22.921  0.00  0.00    +0.000 A 
ATOM      5  C   UNL     1      -7.320  12.884  22.646  0.00  0.00    +0.000 A 
ATOM      6  C   UNL     1      -7.141  12.158  21.516  0.00  0.00    +0.000 A 
ATOM      7  C   UNL     1      -6.121  12.530  20.538  0.00  0.00    +0.000 A 
ATOM      8  C   UNL     1      -5.335  13.586  20.807  0.00  0.00    +0.000 A 
ATOM      9  N   UNL     1      -5.477  14.272  22.000  0.00  0.00    +0.000 N 
ENDROOT
BRANCH   7  10
ATOM     10  C   UNL     1      -5.656  11.747  19.351  0.00  0.00    +0.000 C 
ATOM     11  O   UNL     1      -6.361  10.815  18.971  0.00  0.00    +0.000 OA
ATOM     12  N   UNL     1      -4.435  12.086  18.815  0.00  0.00    +0.000 N 
ATOM     13  H   UNL     1      -3.857  12.748  19.314  0.00  0.00    +0.000 HD
BRANCH  12  14
ATOM     14  C   UNL     1      -3.848  11.412  17.710  0.00  0.00    +0.000 A 
ATOM     15  C   UNL     1      -4.394  11.444  16.416  0.00  0.00    +0.000 A 
ATOM     16  C   UNL     1      -3.829  10.716  15.368  0.00  0.00    +0.000 A 
ATOM     17  C   UNL     1      -2.690   9.955  15.594  0.00  0.00    +0.000 A 
ATOM     18  C   UNL     1      -2.126   9.948  16.866  0.00  0.00    +0.000 A 
ATOM     19  F   UNL     1      -1.028   9.213  17.086  0.00  0.00    +0.000 F 
ATOM     20  C   UNL     1      -2.685  10.672  17.920  0.00  0.00    +0.000 A 
ENDBRANCH  12  14
ENDBRANCH   7  10
BRANCH   1  21
ATOM     21  S   UNL     1      -3.080  15.480  21.974  0.00  0.00    +0.000 S 
BRANCH  21  22
ATOM     22  C   UNL     1      -1.942  15.213  23.335  0.00  0.00    +0.000 C 
BRANCH  22  24
ATOM     23  N   UNL     1      -1.752  12.872  22.609  0.00  0.00    +0.000 N 
ATOM     24  C   UNL     1      -1.053  14.024  22.963  0.00  0.00    +0.000 C 
ATOM     25  O   UNL     1       0.172  14.135  22.926  0.00  0.00    +0.000 OA
ATOM     26  H   UNL     1      -2.678  13.032  22.215  0.00  0.00    +0.000 HD
BRANCH  23  32
ATOM     27  C   UNL     1      -0.600  11.471  20.911  0.00  0.00    +0.000 A 
ATOM     28  C   UNL     1       0.052  10.261  20.599  0.00  0.00    +0.000 A 
ATOM     29  C   UNL     1       0.154   9.235  21.535  0.00  0.00    +0.000 A 
ATOM     30  C   UNL     1      -0.399   9.403  22.798  0.00  0.00    +0.000 A 
ATOM     31  C   UNL     1      -1.025  10.607  23.135  0.00  0.00    +0.000 A 
ATOM     32  C   UNL     1      -1.121  11.661  22.211  0.00  0.00    +0.000 A 
BRANCH  27  33
ATOM     33  C   UNL     1      -0.544  12.505  19.835  0.00  0.00    +0.000 C 
ATOM     34  O   UNL     1      -1.461  13.262  19.585  0.00  0.00    +0.000 OA
BRANCH  33  35
ATOM     35  O   UNL     1       0.598  12.395  19.108  0.00  0.00    +0.000 OA
BRANCH  35  37
ATOM     36  C   UNL     1       2.491  13.609  18.290  0.00  0.00    +0.000 C 
ATOM     37  C   UNL     1       1.654  13.279  19.515  0.00  0.00    +0.000 C 
ENDBRANCH  35  37
ENDBRANCH  33  35
ENDBRANCH  27  33
ENDBRANCH  23  32
ENDBRANCH  22  24
ENDBRANCH  21  22
ENDBRANCH   1  21
TORSDOF 9
ENDMDL
MODEL 5
REMARK VINA RESULT:      -7.8      1.630      2.953
REMARK  Name = 
REMARK  10 active torsions:
REMARK  status: ('A' for Active; 'I' for Inactive)
REMARK    1  A    between atoms: C_1  and  C_2
REMARK    2  A    between atoms: C_2  and  O_3
REMARK    3  A    between atoms: O_3  and  C_4
REMARK    4  A    between atoms: C_4  and  C_6
REMARK    5  A    between atoms: C_11  and  N_12
REMARK    6  A    between atoms: C_13  and  C_15
REMARK    7  A    between atoms: C_15  and  S_16
REMARK    8  A    between atoms: S_16  and  C_17
REMARK    9  A    between atoms: C_23  and  C_24
REMARK   10  A    between atoms: N_26  and  C_27
REMARK                            x       y       z     vdW  Elec       q    Type
REMARK                         _______ _______ _______ _____ _____    ______ ____
ROOT
ATOM      1  C   UNL     1       1.225   9.042  19.818  0.00  0.00    +0.000 A 
ATOM      2  N   UNL     1       1.143   8.175  20.801  0.00  0.00    +0.000 NA
ATOM      3  N   UNL     1       0.626   8.850  21.906  0.00  0.00    +0.000 NA
ATOM      4  C   UNL     1       0.390  10.098  21.552  0.00  0.00    +0.000 A 
ATOM      5  C   UNL     1      -0.266  11.211  22.170  0.00  0.00    +0.000 A 
ATOM      6  C   UNL     1      -0.381  12.386  21.506  0.00  0.00    +0.000 A 
ATOM      7  C   UNL     1       0.200  12.557  20.175  0.00  0.00    +0.000 A 
ATOM      8  C   UNL     1       0.815  11.506  19.609  0.00  0.00    +0.000 A 
ATOM      9  N   UNL     1       0.859  10.289  20.266  0.00  0.00    +0.000 N 
ENDROOT
BRANCH   7  10
ATOM     10  C   UNL     1       0.005  13.697  19.227  0.00  0.00    +0.000 C 
ATOM     11  O   UNL     1      -0.489  13.449  18.130  0.00  0.00    +0.000 OA
ATOM     12  N   UNL     1       0.460  14.932  19.630  0.00  0.00    +0.000 N 
ATOM     13  H   UNL     1       1.011  14.991  20.475  0.00  0.00    +0.000 HD
BRANCH  12  14
ATOM     14  C   UNL     1       0.376  16.100  18.825  0.00  0.00    +0.000 A 
ATOM     15  C   UNL     1      -0.790  16.876  18.721  0.00  0.00    +0.000 A 
ATOM     16  C   UNL     1      -0.860  17.980  17.869  0.00  0.00    +0.000 A 
ATOM     17  C   UNL     1       0.251  18.339  17.118  0.00  0.00    +0.000 A 
ATOM     18  C   UNL     1       1.419  17.595  17.244  0.00  0.00    +0.000 A 
ATOM     19  F   UNL     1       2.492  17.940  16.519  0.00  0.00    +0.000 F 
ATOM     20  C   UNL     1       1.497  16.489  18.093  0.00  0.00    +0.000 A 
ENDBRANCH  12  14
ENDBRANCH   7  10
BRANCH   1  21
ATOM     21  S   UNL     1       1.421   8.776  18.121  0.00  0.00    +0.000 S 
BRANCH  21  22
ATOM     22  C   UNL     1       3.085   8.149  17.877  0.00  0.00    +0.000 C 
BRANCH  22  24
ATOM     23  N   UNL     1       2.462   5.784  17.624  0.00  0.00    +0.000 N 
ATOM     24  C   UNL     1       3.119   6.718  18.421  0.00  0.00    +0.000 C 
ATOM     25  O   UNL     1       3.745   6.446  19.446  0.00  0.00    +0.000 OA
ATOM     26  H   UNL     1       2.426   6.011  16.632  0.00  0.00    +0.000 HD
BRANCH  23  32
ATOM     27  C   UNL     1       3.459   3.509  17.676  0.00  0.00    +0.000 A 
ATOM     28  C   UNL     1       3.336   2.155  18.052  0.00  0.00    +0.000 A 
ATOM     29  C   UNL     1       2.168   1.672  18.634  0.00  0.00    +0.000 A 
ATOM     30  C   UNL     1       1.100   2.535  18.847  0.00  0.00    +0.000 A 
ATOM     31  C   UNL     1       1.214   3.886  18.507  0.00  0.00    +0.000 A 
ATOM     32  C   UNL     1       2.392   4.397  17.936  0.00  0.00    +0.000 A 
BRANCH  27  33
ATOM     33  C   UNL     1       4.804   3.890  17.152  0.00  0.00    +0.000 C 
ATOM     34  O   UNL     1       5.771   4.076  17.863  0.00  0.00    +0.000 OA
BRANCH  33  35
ATOM     35  O   UNL     1       4.762   4.122  15.815  0.00  0.00    +0.000 OA
BRANCH  35  37
ATOM     36  C   UNL     1       6.285   4.074  13.970  0.00  0.00    +0.000 C 
ATOM     37  C   UNL     1       5.933   4.758  15.281  0.00  0.00    +0.000 C 
ENDBRANCH  35  37
ENDBRANCH  33  35
ENDBRANCH  27  33
ENDBRANCH  23  32
ENDBRANCH  22  24
ENDBRANCH  21  22
ENDBRANCH   1  21
TORSDOF 9
ENDMDL
MODEL 6
REMARK VINA RESULT:      -7.8      3.142      3.806
REMARK  Name = 
REMARK  10 active torsions:
REMARK  status: ('A' for Active; 'I' for Inactive)
REMARK    1  A    between atoms: C_1  and  C_2
REMARK    2  A    between atoms: C_2  and  O_3
REMARK    3  A    between atoms: O_3  and  C_4
REMARK    4  A    between atoms: C_4  and  C_6
REMARK    5  A    between atoms: C_11  and  N_12
REMARK    6  A    between atoms: C_13  and  C_15
REMARK    7  A    between atoms: C_15  and  S_16
REMARK    8  A    between atoms: S_16  and  C_17
REMARK    9  A    between atoms: C_23  and  C_24
REMARK   10  A    between atoms: N_26  and  C_27
REMARK                            x       y       z     vdW  Elec       q    Type
REMARK                         _______ _______ _______ _____ _____    ______ ____
ROOT
ATOM      1  C   UNL     1       0.375  10.391  18.475  0.00  0.00    +0.000 A 
ATOM      2  N   UNL     1      -0.890  10.236  18.158  0.00  0.00    +0.000 NA
ATOM      3  N   UNL     1      -1.481  11.499  18.181  0.00  0.00    +0.000 NA
ATOM      4  C   UNL     1      -0.550  12.382  18.490  0.00  0.00    +0.000 A 
ATOM      5  C   UNL     1      -0.492  13.812  18.517  0.00  0.00    +0.000 A 
ATOM      6  C   UNL     1       0.662  14.439  18.851  0.00  0.00    +0.000 A 
ATOM      7  C   UNL     1       1.848  13.675  19.235  0.00  0.00    +0.000 A 
ATOM      8  C   UNL     1       1.778  12.334  19.208  0.00  0.00    +0.000 A 
ATOM      9  N   UNL     1       0.618  11.706  18.792  0.00  0.00    +0.000 N 
ENDROOT
BRANCH   7  10
ATOM     10  C   UNL     1       3.240  14.181  19.439  0.00  0.00    +0.000 C 
ATOM     11  O   UNL     1       3.706  14.126  20.575  0.00  0.00    +0.000 OA
ATOM     12  N   UNL     1       3.872  14.737  18.350  0.00  0.00    +0.000 N 
ATOM     13  H   UNL     1       3.333  14.895  17.509  0.00  0.00    +0.000 HD
BRANCH  12  14
ATOM     14  C   UNL     1       5.180  15.289  18.399  0.00  0.00    +0.000 A 
ATOM     15  C   UNL     1       5.444  16.596  18.842  0.00  0.00    +0.000 A 
ATOM     16  C   UNL     1       6.733  17.130  18.814  0.00  0.00    +0.000 A 
ATOM     17  C   UNL     1       7.789  16.354  18.356  0.00  0.00    +0.000 A 
ATOM     18  C   UNL     1       7.538  15.048  17.949  0.00  0.00    +0.000 A 
ATOM     19  F   UNL     1       8.556  14.297  17.506  0.00  0.00    +0.000 F 
ATOM     20  C   UNL     1       6.252  14.506  17.973  0.00  0.00    +0.000 A 
ENDBRANCH  12  14
ENDBRANCH   7  10
BRANCH   1  21
ATOM     21  S   UNL     1       1.708   9.311  18.266  0.00  0.00    +0.000 S 
BRANCH  21  22
ATOM     22  C   UNL     1       1.676   8.163  19.646  0.00  0.00    +0.000 C 
BRANCH  22  24
ATOM     23  N   UNL     1       2.908   6.890  17.941  0.00  0.00    +0.000 N 
ATOM     24  C   UNL     1       2.612   7.003  19.298  0.00  0.00    +0.000 C 
ATOM     25  O   UNL     1       3.096   6.293  20.179  0.00  0.00    +0.000 OA
ATOM     26  H   UNL     1       2.868   7.761  17.416  0.00  0.00    +0.000 HD
BRANCH  23  32
ATOM     27  C   UNL     1       3.440   4.521  17.414  0.00  0.00    +0.000 A 
ATOM     28  C   UNL     1       4.326   3.593  16.827  0.00  0.00    +0.000 A 
ATOM     29  C   UNL     1       5.539   4.003  16.280  0.00  0.00    +0.000 A 
ATOM     30  C   UNL     1       5.887   5.347  16.314  0.00  0.00    +0.000 A 
ATOM     31  C   UNL     1       5.010   6.284  16.867  0.00  0.00    +0.000 A 
ATOM     32  C   UNL     1       3.773   5.894  17.407  0.00  0.00    +0.000 A 
BRANCH  27  33
ATOM     33  C   UNL     1       2.142   3.940  17.871  0.00  0.00    +0.000 C 
ATOM     34  O   UNL     1       1.084   4.145  17.311  0.00  0.00    +0.000 OA
BRANCH  33  35
ATOM     35  O   UNL     1       2.289   3.274  19.045  0.00  0.00    +0.000 OA
BRANCH  35  37
ATOM     36  C   UNL     1       1.400   2.670  21.183  0.00  0.00    +0.000 C 
ATOM     37  C   UNL     1       1.061   3.009  19.741  0.00  0.00    +0.000 C 
ENDBRANCH  35  37
ENDBRANCH  33  35
ENDBRANCH  27  33
ENDBRANCH  23  32
ENDBRANCH  22  24
ENDBRANCH  21  22
ENDBRANCH   1  21
TORSDOF 9
ENDMDL
MODEL 7
REMARK VINA RESULT:      -7.8      5.795      9.748
REMARK  Name = 
REMARK  10 active torsions:
REMARK  status: ('A' for Active; 'I' for Inactive)
REMARK    1  A    between atoms: C_1  and  C_2
REMARK    2  A    between atoms: C_2  and  O_3
REMARK    3  A    between atoms: O_3  and  C_4
REMARK    4  A    between atoms: C_4  and  C_6
REMARK    5  A    between atoms: C_11  and  N_12
REMARK    6  A    between atoms: C_13  and  C_15
REMARK    7  A    between atoms: C_15  and  S_16
REMARK    8  A    between atoms: S_16  and  C_17
REMARK    9  A    between atoms: C_23  and  C_24
REMARK   10  A    between atoms: N_26  and  C_27
REMARK                            x       y       z     vdW  Elec       q    Type
REMARK                         _______ _______ _______ _____ _____    ______ ____
ROOT
ATOM      1  C   UNL     1       6.842   6.201  17.152  0.00  0.00    +0.000 A 
ATOM      2  N   UNL     1       7.510   5.374  16.380  0.00  0.00    +0.000 NA
ATOM      3  N   UNL     1       6.747   4.212  16.262  0.00  0.00    +0.000 NA
ATOM      4  C   UNL     1       5.633   4.381  16.948  0.00  0.00    +0.000 A 
ATOM      5  C   UNL     1       4.415   3.640  17.083  0.00  0.00    +0.000 A 
ATOM      6  C   UNL     1       3.411   4.118  17.858  0.00  0.00    +0.000 A 
ATOM      7  C   UNL     1       3.568   5.365  18.605  0.00  0.00    +0.000 A 
ATOM      8  C   UNL     1       4.717   6.048  18.470  0.00  0.00    +0.000 A 
ATOM      9  N   UNL     1       5.704   5.588  17.616  0.00  0.00    +0.000 N 
ENDROOT
BRANCH   7  10
ATOM     10  C   UNL     1       2.517   6.133  19.341  0.00  0.00    +0.000 C 
ATOM     11  O   UNL     1       1.651   5.493  19.933  0.00  0.00    +0.000 OA
ATOM     12  N   UNL     1       2.558   7.505  19.241  0.00  0.00    +0.000 N 
ATOM     13  H   UNL     1       3.203   7.922  18.584  0.00  0.00    +0.000 HD
BRANCH  12  14
ATOM     14  C   UNL     1       1.609   8.366  19.856  0.00  0.00    +0.000 A 
ATOM     15  C   UNL     1       0.869   9.324  19.143  0.00  0.00    +0.000 A 
ATOM     16  C   UNL     1      -0.006  10.199  19.788  0.00  0.00    +0.000 A 
ATOM     17  C   UNL     1      -0.170  10.116  21.164  0.00  0.00    +0.000 A 
ATOM     18  C   UNL     1       0.534   9.146  21.870  0.00  0.00    +0.000 A 
ATOM     19  F   UNL     1       0.377   9.066  23.198  0.00  0.00    +0.000 F 
ATOM     20  C   UNL     1       1.412   8.268  21.233  0.00  0.00    +0.000 A 
ENDBRANCH  12  14
ENDBRANCH   7  10
BRANCH   1  21
ATOM     21  S   UNL     1       7.043   7.902  17.383  0.00  0.00    +0.000 S 
BRANCH  21  22
ATOM     22  C   UNL     1       8.316   8.116  18.629  0.00  0.00    +0.000 C 
BRANCH  22  24
ATOM     23  N   UNL     1       9.646   9.945  19.595  0.00  0.00    +0.000 N 
ATOM     24  C   UNL     1       8.762   9.580  18.582  0.00  0.00    +0.000 C 
ATOM     25  O   UNL     1       8.402  10.323  17.669  0.00  0.00    +0.000 OA
ATOM     26  H   UNL     1      10.224   9.189  19.958  0.00  0.00    +0.000 HD
BRANCH  23  32
ATOM     27  C   UNL     1       9.745  12.170  20.696  0.00  0.00    +0.000 A 
ATOM     28  C   UNL     1      10.368  13.432  20.795  0.00  0.00    +0.000 A 
ATOM     29  C   UNL     1      11.390  13.800  19.924  0.00  0.00    +0.000 A 
ATOM     30  C   UNL     1      11.803  12.914  18.937  0.00  0.00    +0.000 A 
ATOM     31  C   UNL     1      11.216  11.649  18.842  0.00  0.00    +0.000 A 
ATOM     32  C   UNL     1      10.197  11.250  19.724  0.00  0.00    +0.000 A 
BRANCH  27  33
ATOM     33  C   UNL     1       8.734  11.890  21.758  0.00  0.00    +0.000 C 
ATOM     34  O   UNL     1       8.511  10.778  22.193  0.00  0.00    +0.000 OA
BRANCH  33  35
ATOM     35  O   UNL     1       8.026  13.006  22.068  0.00  0.00    +0.000 OA
BRANCH  35  37
ATOM     36  C   UNL     1       5.857  12.997  23.080  0.00  0.00    +0.000 C 
ATOM     37  C   UNL     1       7.354  12.956  23.337  0.00  0.00    +0.000 C 
ENDBRANCH  35  37
ENDBRANCH  33  35
ENDBRANCH  27  33
ENDBRANCH  23  32
ENDBRANCH  22  24
ENDBRANCH  21  22
ENDBRANCH   1  21
TORSDOF 9
ENDMDL
MODEL 8
REMARK VINA RESULT:      -7.8      1.544      2.854
REMARK  Name = 
REMARK  10 active torsions:
REMARK  status: ('A' for Active; 'I' for Inactive)
REMARK    1  A    between atoms: C_1  and  C_2
REMARK    2  A    between atoms: C_2  and  O_3
REMARK    3  A    between atoms: O_3  and  C_4
REMARK    4  A    between atoms: C_4  and  C_6
REMARK    5  A    between atoms: C_11  and  N_12
REMARK    6  A    between atoms: C_13  and  C_15
REMARK    7  A    between atoms: C_15  and  S_16
REMARK    8  A    between atoms: S_16  and  C_17
REMARK    9  A    between atoms: C_23  and  C_24
REMARK   10  A    between atoms: N_26  and  C_27
REMARK                            x       y       z     vdW  Elec       q    Type
REMARK                         _______ _______ _______ _____ _____    ______ ____
ROOT
ATOM      1  C   UNL     1       0.739   9.417  20.236  0.00  0.00    +0.000 A 
ATOM      2  N   UNL     1       0.635   8.616  21.272  0.00  0.00    +0.000 NA
ATOM      3  N   UNL     1       0.174   9.382  22.343  0.00  0.00    +0.000 NA
ATOM      4  C   UNL     1      -0.007  10.617  21.917  0.00  0.00    +0.000 A 
ATOM      5  C   UNL     1      -0.595  11.796  22.476  0.00  0.00    +0.000 A 
ATOM      6  C   UNL     1      -0.667  12.933  21.743  0.00  0.00    +0.000 A 
ATOM      7  C   UNL     1      -0.106  12.994  20.394  0.00  0.00    +0.000 A 
ATOM      8  C   UNL     1       0.445  11.881  19.883  0.00  0.00    +0.000 A 
ATOM      9  N   UNL     1       0.443  10.705  20.613  0.00  0.00    +0.000 N 
ENDROOT
BRANCH   7  10
ATOM     10  C   UNL     1      -0.265  14.083  19.382  0.00  0.00    +0.000 C 
ATOM     11  O   UNL     1      -0.671  13.769  18.265  0.00  0.00    +0.000 OA
ATOM     12  N   UNL     1       0.125  15.349  19.756  0.00  0.00    +0.000 N 
ATOM     13  H   UNL     1       0.612  15.464  20.634  0.00  0.00    +0.000 HD
BRANCH  12  14
ATOM     14  C   UNL     1       0.065  16.476  18.892  0.00  0.00    +0.000 A 
ATOM     15  C   UNL     1      -1.086  17.267  18.743  0.00  0.00    +0.000 A 
ATOM     16  C   UNL     1      -1.132  18.326  17.836  0.00  0.00    +0.000 A 
ATOM     17  C   UNL     1      -0.012  18.626  17.072  0.00  0.00    +0.000 A 
ATOM     18  C   UNL     1       1.142  17.868  17.241  0.00  0.00    +0.000 A 
ATOM     19  F   UNL     1       2.223  18.155  16.503  0.00  0.00    +0.000 F 
ATOM     20  C   UNL     1       1.196  16.805  18.145  0.00  0.00    +0.000 A 
ENDBRANCH  12  14
ENDBRANCH   7  10
BRANCH   1  21
ATOM     21  S   UNL     1       0.887   9.039  18.556  0.00  0.00    +0.000 S 
BRANCH  21  22
ATOM     22  C   UNL     1       2.550   8.414  18.302  0.00  0.00    +0.000 C 
BRANCH  22  24
ATOM     23  N   UNL     1       3.067   6.454  19.694  0.00  0.00    +0.000 N 
ATOM     24  C   UNL     1       2.504   6.897  18.499  0.00  0.00    +0.000 C 
ATOM     25  O   UNL     1       1.946   6.168  17.679  0.00  0.00    +0.000 OA
ATOM     26  H   UNL     1       3.039   7.126  20.460  0.00  0.00    +0.000 HD
BRANCH  23  32
ATOM     27  C   UNL     1       4.085   4.191  19.591  0.00  0.00    +0.000 A 
ATOM     28  C   UNL     1       4.095   2.859  20.053  0.00  0.00    +0.000 A 
ATOM     29  C   UNL     1       3.136   2.402  20.953  0.00  0.00    +0.000 A 
ATOM     30  C   UNL     1       2.148   3.270  21.401  0.00  0.00    +0.000 A 
ATOM     31  C   UNL     1       2.139   4.601  20.975  0.00  0.00    +0.000 A 
ATOM     32  C   UNL     1       3.110   5.086  20.083  0.00  0.00    +0.000 A 
BRANCH  27  33
ATOM     33  C   UNL     1       5.232   4.551  18.705  0.00  0.00    +0.000 C 
ATOM     34  O   UNL     1       5.456   4.002  17.645  0.00  0.00    +0.000 OA
BRANCH  33  35
ATOM     35  O   UNL     1       6.042   5.465  19.298  0.00  0.00    +0.000 OA
BRANCH  35  37
ATOM     36  C   UNL     1       7.554   6.828  18.040  0.00  0.00    +0.000 C 
ATOM     37  C   UNL     1       7.379   5.509  18.774  0.00  0.00    +0.000 C 
ENDBRANCH  35  37
ENDBRANCH  33  35
ENDBRANCH  27  33
ENDBRANCH  23  32
ENDBRANCH  22  24
ENDBRANCH  21  22
ENDBRANCH   1  21
TORSDOF 9
ENDMDL
MODEL 9
REMARK VINA RESULT:      -7.7      3.537     10.511
REMARK  Name = 
REMARK  10 active torsions:
REMARK  status: ('A' for Active; 'I' for Inactive)
REMARK    1  A    between atoms: C_1  and  C_2
REMARK    2  A    between atoms: C_2  and  O_3
REMARK    3  A    between atoms: O_3  and  C_4
REMARK    4  A    between atoms: C_4  and  C_6
REMARK    5  A    between atoms: C_11  and  N_12
REMARK    6  A    between atoms: C_13  and  C_15
REMARK    7  A    between atoms: C_15  and  S_16
REMARK    8  A    between atoms: S_16  and  C_17
REMARK    9  A    between atoms: C_23  and  C_24
REMARK   10  A    between atoms: N_26  and  C_27
REMARK                            x       y       z     vdW  Elec       q    Type
REMARK                         _______ _______ _______ _____ _____    ______ ____
ROOT
ATOM      1  C   UNL     1       2.369   7.006  19.044  0.00  0.00    +0.000 A 
ATOM      2  N   UNL     1       1.847   7.068  20.247  0.00  0.00    +0.000 NA
ATOM      3  N   UNL     1       2.032   5.821  20.844  0.00  0.00    +0.000 NA
ATOM      4  C   UNL     1       2.680   5.050  19.991  0.00  0.00    +0.000 A 
ATOM      5  C   UNL     1       3.285   3.755  20.068  0.00  0.00    +0.000 A 
ATOM      6  C   UNL     1       3.931   3.242  18.993  0.00  0.00    +0.000 A 
ATOM      7  C   UNL     1       3.981   3.972  17.728  0.00  0.00    +0.000 A 
ATOM      8  C   UNL     1       3.406   5.185  17.669  0.00  0.00    +0.000 A 
ATOM      9  N   UNL     1       2.817   5.730  18.796  0.00  0.00    +0.000 N 
ENDROOT
BRANCH   7  10
ATOM     10  C   UNL     1       4.800   3.658  16.517  0.00  0.00    +0.000 C 
ATOM     11  O   UNL     1       5.355   2.562  16.472  0.00  0.00    +0.000 OA
ATOM     12  N   UNL     1       4.930   4.650  15.572  0.00  0.00    +0.000 N 
ATOM     13  H   UNL     1       4.582   5.573  15.792  0.00  0.00    +0.000 HD
BRANCH  12  14
ATOM     14  C   UNL     1       5.702   4.511  14.388  0.00  0.00    +0.000 A 
ATOM     15  C   UNL     1       5.331   3.670  13.326  0.00  0.00    +0.000 A 
ATOM     16  C   UNL     1       6.147   3.506  12.205  0.00  0.00    +0.000 A 
ATOM     17  C   UNL     1       7.347   4.199  12.120  0.00  0.00    +0.000 A 
ATOM     18  C   UNL     1       7.702   5.060  13.154  0.00  0.00    +0.000 A 
ATOM     19  F   UNL     1       8.860   5.729  13.074  0.00  0.00    +0.000 F 
ATOM     20  C   UNL     1       6.893   5.229  14.279  0.00  0.00    +0.000 A 
ENDBRANCH  12  14
ENDBRANCH   7  10
BRANCH   1  21
ATOM     21  S   UNL     1       2.800   8.280  17.958  0.00  0.00    +0.000 S 
BRANCH  21  22
ATOM     22  C   UNL     1       1.301   9.204  17.611  0.00  0.00    +0.000 C 
BRANCH  22  24
ATOM     23  N   UNL     1      -0.128   9.668  19.557  0.00  0.00    +0.000 N 
ATOM     24  C   UNL     1       0.999  10.065  18.841  0.00  0.00    +0.000 C 
ATOM     25  O   UNL     1       1.751  10.980  19.174  0.00  0.00    +0.000 OA
ATOM     26  H   UNL     1      -0.357   8.677  19.489  0.00  0.00    +0.000 HD
BRANCH  23  32
ATOM     27  C   UNL     1      -1.290  11.535  20.712  0.00  0.00    +0.000 A 
ATOM     28  C   UNL     1      -1.740  12.100  21.923  0.00  0.00    +0.000 A 
ATOM     29  C   UNL     1      -1.454  11.502  23.148  0.00  0.00    +0.000 A 
ATOM     30  C   UNL     1      -0.710  10.330  23.180  0.00  0.00    +0.000 A 
ATOM     31  C   UNL     1      -0.279   9.740  21.988  0.00  0.00    +0.000 A 
ATOM     32  C   UNL     1      -0.574  10.318  20.742  0.00  0.00    +0.000 A 
BRANCH  27  33
ATOM     33  C   UNL     1      -1.757  12.243  19.483  0.00  0.00    +0.000 C 
ATOM     34  O   UNL     1      -2.328  11.686  18.567  0.00  0.00    +0.000 OA
BRANCH  33  35
ATOM     35  O   UNL     1      -1.348  13.538  19.477  0.00  0.00    +0.000 OA
BRANCH  35  37
ATOM     36  C   UNL     1       0.809  14.575  19.490  0.00  0.00    +0.000 C 
ATOM     37  C   UNL     1      -0.197  13.798  18.658  0.00  0.00    +0.000 C 
ENDBRANCH  35  37
ENDBRANCH  33  35
ENDBRANCH  27  33
ENDBRANCH  23  32
ENDBRANCH  22  24
ENDBRANCH  21  22
ENDBRANCH   1  21
TORSDOF 9
ENDMDL
