MODEL 1
REMARK VINA RESULT:      -8.4      0.000      0.000
REMARK  Name = 
REMARK  3 active torsions:
REMARK  status: ('A' for Active; 'I' for Inactive)
REMARK    1  A    between atoms: N_3  and  C_4
REMARK    2  A    between atoms: N_10  and  C_11
REMARK    3  A    between atoms: C_18  and  C_19
REMARK                            x       y       z     vdW  Elec       q    Type
REMARK                         _______ _______ _______ _____ _____    ______ ____
ROOT
ATOM      1  C   UNL     1       0.830  10.159  19.741  0.00  0.00    +0.000 A 
ATOM      2  C   UNL     1       1.445  11.370  19.341  0.00  0.00    +0.000 A 
ATOM      3  C   UNL     1       0.730  12.375  18.698  0.00  0.00    +0.000 A 
ATOM      4  C   UNL     1      -0.605  12.130  18.506  0.00  0.00    +0.000 A 
ATOM      5  C   UNL     1      -1.297  11.129  19.186  0.00  0.00    +0.000 A 
ATOM      6  C   UNL     1      -0.576  10.073  19.741  0.00  0.00    +0.000 A 
ATOM      7  C   UNL     1      -2.674  11.132  18.639  0.00  0.00    +0.000 C 
ATOM      8  C   UNL     1      -3.606  12.020  19.072  0.00  0.00    +0.000 C 
ATOM      9  C   UNL     1      -2.398  11.597  17.217  0.00  0.00    +0.000 C 
ATOM     10  O   UNL     1      -2.932  11.174  16.218  0.00  0.00    +0.000 OA
ATOM     11  N   UNL     1      -1.311  12.463  17.343  0.00  0.00    +0.000 N 
ATOM     12  H   UNL     1      -0.874  12.855  16.523  0.00  0.00    +0.000 HD
ENDROOT
BRANCH   1  16
ATOM     13  O   UNL     1       1.918   8.399  17.769  0.00  0.00    +0.000 OA
ATOM     14  C   UNL     1       1.989   8.109  18.949  0.00  0.00    +0.000 C 
ATOM     15  N   UNL     1       2.433   6.884  19.422  0.00  0.00    +0.000 N 
ATOM     16  N   UNL     1       1.588   8.974  19.960  0.00  0.00    +0.000 N 
ATOM     17  H   UNL     1       2.196   6.616  20.363  0.00  0.00    +0.000 HD
ATOM     18  H   UNL     1       1.881   8.766  20.902  0.00  0.00    +0.000 HD
BRANCH  15  19
ATOM     19  C   UNL     1       2.899   5.843  18.569  0.00  0.00    +0.000 A 
ATOM     20  C   UNL     1       2.067   4.797  18.119  0.00  0.00    +0.000 A 
ATOM     21  C   UNL     1       2.564   3.741  17.377  0.00  0.00    +0.000 A 
ATOM     22  C   UNL     1       3.909   3.719  17.010  0.00  0.00    +0.000 A 
ATOM     23  C   UNL     1       4.734   4.771  17.381  0.00  0.00    +0.000 A 
ATOM     24  C   UNL     1       4.236   5.834  18.151  0.00  0.00    +0.000 A 
ENDBRANCH  15  19
ENDBRANCH   1  16
BRANCH   8  25
ATOM     25  C   UNL     1      -4.970  11.971  18.665  0.00  0.00    +0.000 A 
ATOM     26  C   UNL     1      -6.048  11.201  19.059  0.00  0.00    +0.000 A 
ATOM     27  C   UNL     1      -7.153  11.554  18.243  0.00  0.00    +0.000 A 
ATOM     28  C   UNL     1      -6.731  12.550  17.395  0.00  0.00    +0.000 A 
ATOM     29  N   UNL     1      -5.419  12.813  17.672  0.00  0.00    +0.000 N 
ATOM     30  H   UNL     1      -4.865  13.538  17.234  0.00  0.00    +0.000 HD
ENDBRANCH   8  25
TORSDOF 3
ENDMDL
MODEL 2
REMARK VINA RESULT:      -7.7      7.516      9.870
REMARK  Name = 
REMARK  3 active torsions:
REMARK  status: ('A' for Active; 'I' for Inactive)
REMARK    1  A    between atoms: N_3  and  C_4
REMARK    2  A    between atoms: N_10  and  C_11
REMARK    3  A    between atoms: C_18  and  C_19
REMARK                            x       y       z     vdW  Elec       q    Type
REMARK                         _______ _______ _______ _____ _____    ______ ____
ROOT
ATOM      1  C   UNL     1       7.326   7.157  17.718  0.00  0.00    +0.000 A 
ATOM      2  C   UNL     1       7.663   6.458  16.534  0.00  0.00    +0.000 A 
ATOM      3  C   UNL     1       6.973   5.316  16.137  0.00  0.00    +0.000 A 
ATOM      4  C   UNL     1       5.936   4.933  16.947  0.00  0.00    +0.000 A 
ATOM      5  C   UNL     1       5.367   5.777  17.900  0.00  0.00    +0.000 A 
ATOM      6  C   UNL     1       6.109   6.862  18.363  0.00  0.00    +0.000 A 
ATOM      7  C   UNL     1       4.350   4.969  18.614  0.00  0.00    +0.000 C 
ATOM      8  C   UNL     1       3.108   4.777  18.097  0.00  0.00    +0.000 C 
ATOM      9  C   UNL     1       4.979   3.589  18.508  0.00  0.00    +0.000 C 
ATOM     10  O   UNL     1       4.997   2.750  19.379  0.00  0.00    +0.000 OA
ATOM     11  N   UNL     1       5.641   3.606  17.280  0.00  0.00    +0.000 N 
ATOM     12  H   UNL     1       6.213   2.824  16.999  0.00  0.00    +0.000 HD
ENDROOT
BRANCH   1  16
ATOM     13  O   UNL     1       7.516  10.002  17.542  0.00  0.00    +0.000 OA
ATOM     14  C   UNL     1       8.360   9.373  18.152  0.00  0.00    +0.000 C 
ATOM     15  N   UNL     1       9.528   9.926  18.656  0.00  0.00    +0.000 N 
ATOM     16  N   UNL     1       8.261   8.005  18.375  0.00  0.00    +0.000 N 
ATOM     17  H   UNL     1      10.292   9.312  18.885  0.00  0.00    +0.000 HD
ATOM     18  H   UNL     1       8.867   7.596  19.069  0.00  0.00    +0.000 HD
BRANCH  15  19
ATOM     19  C   UNL     1       9.841  11.311  18.551  0.00  0.00    +0.000 A 
ATOM     20  C   UNL     1       9.292  12.285  19.410  0.00  0.00    +0.000 A 
ATOM     21  C   UNL     1       9.528  13.634  19.225  0.00  0.00    +0.000 A 
ATOM     22  C   UNL     1      10.371  14.060  18.199  0.00  0.00    +0.000 A 
ATOM     23  C   UNL     1      10.980  13.118  17.382  0.00  0.00    +0.000 A 
ATOM     24  C   UNL     1      10.726  11.749  17.556  0.00  0.00    +0.000 A 
ENDBRANCH  15  19
ENDBRANCH   1  16
BRANCH   8  25
ATOM     25  C   UNL     1       2.067   4.118  18.810  0.00  0.00    +0.000 A 
ATOM     26  C   UNL     1       1.485   4.330  20.045  0.00  0.00    +0.000 A 
ATOM     27  C   UNL     1       0.531   3.302  20.256  0.00  0.00    +0.000 A 
ATOM     28  C   UNL     1       0.532   2.508  19.134  0.00  0.00    +0.000 A 
ATOM     29  N   UNL     1       1.445   3.021  18.255  0.00  0.00    +0.000 N 
ATOM     30  H   UNL     1       1.619   2.667  17.324  0.00  0.00    +0.000 HD
ENDBRANCH   8  25
TORSDOF 3
ENDMDL
MODEL 3
REMARK VINA RESULT:      -7.6      2.065      9.434
REMARK  Name = 
REMARK  3 active torsions:
REMARK  status: ('A' for Active; 'I' for Inactive)
REMARK    1  A    between atoms: N_3  and  C_4
REMARK    2  A    between atoms: N_10  and  C_11
REMARK    3  A    between atoms: C_18  and  C_19
REMARK                            x       y       z     vdW  Elec       q    Type
REMARK                         _______ _______ _______ _____ _____    ______ ____
ROOT
ATOM      1  C   UNL     1       1.154   9.448  18.623  0.00  0.00    +0.000 A 
ATOM      2  C   UNL     1       1.113   9.025  19.974  0.00  0.00    +0.000 A 
ATOM      3  C   UNL     1       1.790   7.888  20.405  0.00  0.00    +0.000 A 
ATOM      4  C   UNL     1       2.517   7.228  19.449  0.00  0.00    +0.000 A 
ATOM      5  C   UNL     1       2.858   7.802  18.225  0.00  0.00    +0.000 A 
ATOM      6  C   UNL     1       2.107   8.879  17.757  0.00  0.00    +0.000 A 
ATOM      7  C   UNL     1       3.559   6.748  17.454  0.00  0.00    +0.000 C 
ATOM      8  C   UNL     1       4.876   6.482  17.654  0.00  0.00    +0.000 C 
ATOM      9  C   UNL     1       2.874   5.509  18.008  0.00  0.00    +0.000 C 
ATOM     10  O   UNL     1       2.540   4.539  17.368  0.00  0.00    +0.000 OA
ATOM     11  N   UNL     1       2.594   5.834  19.336  0.00  0.00    +0.000 N 
ATOM     12  H   UNL     1       2.064   5.201  19.914  0.00  0.00    +0.000 HD
ENDROOT
BRANCH   1  16
ATOM     13  O   UNL     1      -1.331  10.194  19.821  0.00  0.00    +0.000 OA
ATOM     14  C   UNL     1      -1.090  10.514  18.672  0.00  0.00    +0.000 C 
ATOM     15  N   UNL     1      -2.012  11.099  17.818  0.00  0.00    +0.000 N 
ATOM     16  N   UNL     1       0.144  10.287  18.073  0.00  0.00    +0.000 N 
ATOM     17  H   UNL     1      -1.839  11.068  16.827  0.00  0.00    +0.000 HD
ATOM     18  H   UNL     1       0.347  10.772  17.213  0.00  0.00    +0.000 HD
BRANCH  15  19
ATOM     19  C   UNL     1      -3.339  11.429  18.215  0.00  0.00    +0.000 A 
ATOM     20  C   UNL     1      -3.619  12.340  19.255  0.00  0.00    +0.000 A 
ATOM     21  C   UNL     1      -4.910  12.568  19.694  0.00  0.00    +0.000 A 
ATOM     22  C   UNL     1      -5.982  11.930  19.069  0.00  0.00    +0.000 A 
ATOM     23  C   UNL     1      -5.739  11.082  17.998  0.00  0.00    +0.000 A 
ATOM     24  C   UNL     1      -4.428  10.834  17.564  0.00  0.00    +0.000 A 
ENDBRANCH  15  19
ENDBRANCH   1  16
BRANCH   8  25
ATOM     25  C   UNL     1       5.613   5.570  16.847  0.00  0.00    +0.000 A 
ATOM     26  C   UNL     1       6.778   4.854  17.049  0.00  0.00    +0.000 A 
ATOM     27  C   UNL     1       7.070   4.154  15.851  0.00  0.00    +0.000 A 
ATOM     28  C   UNL     1       6.062   4.434  14.960  0.00  0.00    +0.000 A 
ATOM     29  N   UNL     1       5.173   5.270  15.576  0.00  0.00    +0.000 N 
ATOM     30  H   UNL     1       4.306   5.598  15.171  0.00  0.00    +0.000 HD
ENDBRANCH   8  25
TORSDOF 3
ENDMDL
MODEL 4
REMARK VINA RESULT:      -7.6      1.995      9.286
REMARK  Name = 
REMARK  3 active torsions:
REMARK  status: ('A' for Active; 'I' for Inactive)
REMARK    1  A    between atoms: N_3  and  C_4
REMARK    2  A    between atoms: N_10  and  C_11
REMARK    3  A    between atoms: C_18  and  C_19
REMARK                            x       y       z     vdW  Elec       q    Type
REMARK                         _______ _______ _______ _____ _____    ______ ____
ROOT
ATOM      1  C   UNL     1       1.026   9.687  18.711  0.00  0.00    +0.000 A 
ATOM      2  C   UNL     1       1.085   9.295  20.070  0.00  0.00    +0.000 A 
ATOM      3  C   UNL     1       1.744   8.135  20.469  0.00  0.00    +0.000 A 
ATOM      4  C   UNL     1       2.351   7.420  19.470  0.00  0.00    +0.000 A 
ATOM      5  C   UNL     1       2.609   7.950  18.207  0.00  0.00    +0.000 A 
ATOM      6  C   UNL     1       1.871   9.053  17.779  0.00  0.00    +0.000 A 
ATOM      7  C   UNL     1       3.188   6.847  17.404  0.00  0.00    +0.000 C 
ATOM      8  C   UNL     1       4.503   6.521  17.494  0.00  0.00    +0.000 C 
ATOM      9  C   UNL     1       2.497   5.655  18.048  0.00  0.00    +0.000 C 
ATOM     10  O   UNL     1       2.061   4.689  17.464  0.00  0.00    +0.000 OA
ATOM     11  N   UNL     1       2.352   6.022  19.386  0.00  0.00    +0.000 N 
ATOM     12  H   UNL     1       1.846   5.429  20.025  0.00  0.00    +0.000 HD
ENDROOT
BRANCH   1  16
ATOM     13  O   UNL     1      -1.562  10.135  19.836  0.00  0.00    +0.000 OA
ATOM     14  C   UNL     1      -1.266  10.643  18.771  0.00  0.00    +0.000 C 
ATOM     15  N   UNL     1      -2.162  11.320  17.957  0.00  0.00    +0.000 N 
ATOM     16  N   UNL     1       0.012  10.562  18.231  0.00  0.00    +0.000 N 
ATOM     17  H   UNL     1      -1.926  11.454  16.988  0.00  0.00    +0.000 HD
ATOM     18  H   UNL     1       0.243  11.186  17.473  0.00  0.00    +0.000 HD
BRANCH  15  19
ATOM     19  C   UNL     1      -3.525  11.531  18.309  0.00  0.00    +0.000 A 
ATOM     20  C   UNL     1      -4.595  10.955  17.592  0.00  0.00    +0.000 A 
ATOM     21  C   UNL     1      -5.912  11.256  17.885  0.00  0.00    +0.000 A 
ATOM     22  C   UNL     1      -6.213  12.108  18.948  0.00  0.00    +0.000 A 
ATOM     23  C   UNL     1      -5.181  12.633  19.713  0.00  0.00    +0.000 A 
ATOM     24  C   UNL     1      -3.843  12.344  19.404  0.00  0.00    +0.000 A 
ENDBRANCH  15  19
ENDBRANCH   1  16
BRANCH   8  25
ATOM     25  C   UNL     1       5.121   5.556  16.649  0.00  0.00    +0.000 A 
ATOM     26  C   UNL     1       5.472   4.231  16.824  0.00  0.00    +0.000 A 
ATOM     27  C   UNL     1       6.127   3.797  15.644  0.00  0.00    +0.000 A 
ATOM     28  C   UNL     1       6.133   4.856  14.768  0.00  0.00    +0.000 A 
ATOM     29  N   UNL     1       5.502   5.907  15.373  0.00  0.00    +0.000 N 
ATOM     30  H   UNL     1       5.316   6.802  14.939  0.00  0.00    +0.000 HD
ENDBRANCH   8  25
TORSDOF 3
ENDMDL
MODEL 5
REMARK VINA RESULT:      -7.5      3.246      9.460
REMARK  Name = 
REMARK  3 active torsions:
REMARK  status: ('A' for Active; 'I' for Inactive)
REMARK    1  A    between atoms: N_3  and  C_4
REMARK    2  A    between atoms: N_10  and  C_11
REMARK    3  A    between atoms: C_18  and  C_19
REMARK                            x       y       z     vdW  Elec       q    Type
REMARK                         _______ _______ _______ _____ _____    ______ ____
ROOT
ATOM      1  C   UNL     1       1.083   9.259  19.547  0.00  0.00    +0.000 A 
ATOM      2  C   UNL     1       1.083   8.630  20.816  0.00  0.00    +0.000 A 
ATOM      3  C   UNL     1       1.661   7.379  21.012  0.00  0.00    +0.000 A 
ATOM      4  C   UNL     1       2.251   6.814  19.911  0.00  0.00    +0.000 A 
ATOM      5  C   UNL     1       2.573   7.542  18.767  0.00  0.00    +0.000 A 
ATOM      6  C   UNL     1       1.914   8.747  18.531  0.00  0.00    +0.000 A 
ATOM      7  C   UNL     1       3.107   6.564  17.789  0.00  0.00    +0.000 C 
ATOM      8  C   UNL     1       4.398   6.145  17.841  0.00  0.00    +0.000 C 
ATOM      9  C   UNL     1       2.330   5.323  18.200  0.00  0.00    +0.000 C 
ATOM     10  O   UNL     1       1.854   4.505  17.447  0.00  0.00    +0.000 OA
ATOM     11  N   UNL     1       2.172   5.456  19.580  0.00  0.00    +0.000 N 
ATOM     12  H   UNL     1       1.614   4.792  20.095  0.00  0.00    +0.000 HD
ENDROOT
BRANCH   1  16
ATOM     13  O   UNL     1       1.427  12.091  19.711  0.00  0.00    +0.000 OA
ATOM     14  C   UNL     1       0.339  11.626  19.427  0.00  0.00    +0.000 C 
ATOM     15  N   UNL     1      -0.823  12.375  19.321  0.00  0.00    +0.000 N 
ATOM     16  N   UNL     1       0.136  10.267  19.214  0.00  0.00    +0.000 N 
ATOM     17  H   UNL     1      -1.708  11.900  19.371  0.00  0.00    +0.000 HD
ATOM     18  H   UNL     1      -0.722   9.983  18.767  0.00  0.00    +0.000 HD
BRANCH  15  19
ATOM     19  C   UNL     1      -0.855  13.788  19.492  0.00  0.00    +0.000 A 
ATOM     20  C   UNL     1      -1.539  14.412  20.556  0.00  0.00    +0.000 A 
ATOM     21  C   UNL     1      -1.645  15.787  20.646  0.00  0.00    +0.000 A 
ATOM     22  C   UNL     1      -1.022  16.598  19.697  0.00  0.00    +0.000 A 
ATOM     23  C   UNL     1      -0.284  16.011  18.679  0.00  0.00    +0.000 A 
ATOM     24  C   UNL     1      -0.192  14.614  18.575  0.00  0.00    +0.000 A 
ENDBRANCH  15  19
ENDBRANCH   1  16
BRANCH   8  25
ATOM     25  C   UNL     1       4.980   5.307  16.847  0.00  0.00    +0.000 A 
ATOM     26  C   UNL     1       5.304   3.964  16.813  0.00  0.00    +0.000 A 
ATOM     27  C   UNL     1       5.930   3.701  15.568  0.00  0.00    +0.000 A 
ATOM     28  C   UNL     1       5.944   4.881  14.862  0.00  0.00    +0.000 A 
ATOM     29  N   UNL     1       5.346   5.840  15.631  0.00  0.00    +0.000 N 
ATOM     30  H   UNL     1       5.173   6.794  15.341  0.00  0.00    +0.000 HD
ENDBRANCH   8  25
TORSDOF 3
ENDMDL
MODEL 6
REMARK VINA RESULT:      -7.4      7.513      9.722
REMARK  Name = 
REMARK  3 active torsions:
REMARK  status: ('A' for Active; 'I' for Inactive)
REMARK    1  A    between atoms: N_3  and  C_4
REMARK    2  A    between atoms: N_10  and  C_11
REMARK    3  A    between atoms: C_18  and  C_19
REMARK                            x       y       z     vdW  Elec       q    Type
REMARK                         _______ _______ _______ _____ _____    ______ ____
ROOT
ATOM      1  C   UNL     1       6.752   7.205  16.925  0.00  0.00    +0.000 A 
ATOM      2  C   UNL     1       7.582   6.137  16.504  0.00  0.00    +0.000 A 
ATOM      3  C   UNL     1       7.259   4.810  16.774  0.00  0.00    +0.000 A 
ATOM      4  C   UNL     1       6.079   4.606  17.442  0.00  0.00    +0.000 A 
ATOM      5  C   UNL     1       5.092   5.584  17.553  0.00  0.00    +0.000 A 
ATOM      6  C   UNL     1       5.449   6.920  17.378  0.00  0.00    +0.000 A 
ATOM      7  C   UNL     1       4.030   5.007  18.410  0.00  0.00    +0.000 C 
ATOM      8  C   UNL     1       3.090   4.167  17.904  0.00  0.00    +0.000 C 
ATOM      9  C   UNL     1       4.866   4.090  19.291  0.00  0.00    +0.000 C 
ATOM     10  O   UNL     1       4.712   3.916  20.478  0.00  0.00    +0.000 OA
ATOM     11  N   UNL     1       5.899   3.660  18.458  0.00  0.00    +0.000 N 
ATOM     12  H   UNL     1       6.648   3.093  18.827  0.00  0.00    +0.000 HD
ENDROOT
BRANCH   1  16
ATOM     13  O   UNL     1       8.851   8.072  18.659  0.00  0.00    +0.000 OA
ATOM     14  C   UNL     1       8.208   8.889  18.027  0.00  0.00    +0.000 C 
ATOM     15  N   UNL     1       8.311  10.261  18.199  0.00  0.00    +0.000 N 
ATOM     16  N   UNL     1       7.258   8.526  17.080  0.00  0.00    +0.000 N 
ATOM     17  H   UNL     1       7.564  10.847  17.863  0.00  0.00    +0.000 HD
ATOM     18  H   UNL     1       6.932   9.236  16.442  0.00  0.00    +0.000 HD
BRANCH  15  19
ATOM     19  C   UNL     1       9.223  10.864  19.111  0.00  0.00    +0.000 A 
ATOM     20  C   UNL     1       8.885  11.145  20.452  0.00  0.00    +0.000 A 
ATOM     21  C   UNL     1       9.748  11.825  21.291  0.00  0.00    +0.000 A 
ATOM     22  C   UNL     1      11.011  12.204  20.835  0.00  0.00    +0.000 A 
ATOM     23  C   UNL     1      11.393  11.878  19.542  0.00  0.00    +0.000 A 
ATOM     24  C   UNL     1      10.512  11.206  18.682  0.00  0.00    +0.000 A 
ENDBRANCH  15  19
ENDBRANCH   1  16
BRANCH   8  25
ATOM     25  C   UNL     1       1.984   3.695  18.666  0.00  0.00    +0.000 A 
ATOM     26  C   UNL     1       1.257   4.233  19.711  0.00  0.00    +0.000 A 
ATOM     27  C   UNL     1       0.302   3.266  20.117  0.00  0.00    +0.000 A 
ATOM     28  C   UNL     1       0.449   2.177  19.291  0.00  0.00    +0.000 A 
ATOM     29  N   UNL     1       1.449   2.454  18.402  0.00  0.00    +0.000 N 
ATOM     30  H   UNL     1       1.738   1.849  17.643  0.00  0.00    +0.000 HD
ENDBRANCH   8  25
TORSDOF 3
ENDMDL
MODEL 7
REMARK VINA RESULT:      -7.4      3.279      4.185
REMARK  Name = 
REMARK  3 active torsions:
REMARK  status: ('A' for Active; 'I' for Inactive)
REMARK    1  A    between atoms: N_3  and  C_4
REMARK    2  A    between atoms: N_10  and  C_11
REMARK    3  A    between atoms: C_18  and  C_19
REMARK                            x       y       z     vdW  Elec       q    Type
REMARK                         _______ _______ _______ _____ _____    ______ ____
ROOT
ATOM      1  C   UNL     1       0.745   8.990  21.156  0.00  0.00    +0.000 A 
ATOM      2  C   UNL     1      -0.197   8.901  22.210  0.00  0.00    +0.000 A 
ATOM      3  C   UNL     1      -0.900  10.015  22.657  0.00  0.00    +0.000 A 
ATOM      4  C   UNL     1      -0.645  11.188  21.996  0.00  0.00    +0.000 A 
ATOM      5  C   UNL     1      -0.007  11.237  20.758  0.00  0.00    +0.000 A 
ATOM      6  C   UNL     1       0.777  10.154  20.364  0.00  0.00    +0.000 A 
ATOM      7  C   UNL     1       0.154  12.673  20.430  0.00  0.00    +0.000 C 
ATOM      8  C   UNL     1      -0.863  13.396  19.893  0.00  0.00    +0.000 C 
ATOM      9  C   UNL     1       0.283  13.255  21.830  0.00  0.00    +0.000 C 
ATOM     10  O   UNL     1       1.040  14.137  22.163  0.00  0.00    +0.000 OA
ATOM     11  N   UNL     1      -0.528  12.437  22.618  0.00  0.00    +0.000 N 
ATOM     12  H   UNL     1      -0.558  12.563  23.618  0.00  0.00    +0.000 HD
ENDROOT
BRANCH   1  16
ATOM     13  O   UNL     1       1.723   7.875  18.714  0.00  0.00    +0.000 OA
ATOM     14  C   UNL     1       2.123   7.448  19.780  0.00  0.00    +0.000 C 
ATOM     15  N   UNL     1       2.926   6.325  19.915  0.00  0.00    +0.000 N 
ATOM     16  N   UNL     1       1.779   8.024  20.997  0.00  0.00    +0.000 N 
ATOM     17  H   UNL     1       2.975   5.873  20.813  0.00  0.00    +0.000 HD
ATOM     18  H   UNL     1       2.316   7.766  21.809  0.00  0.00    +0.000 HD
BRANCH  15  19
ATOM     19  C   UNL     1       3.407   5.575  18.805  0.00  0.00    +0.000 A 
ATOM     20  C   UNL     1       2.718   4.462  18.280  0.00  0.00    +0.000 A 
ATOM     21  C   UNL     1       3.253   3.685  17.269  0.00  0.00    +0.000 A 
ATOM     22  C   UNL     1       4.482   4.026  16.705  0.00  0.00    +0.000 A 
ATOM     23  C   UNL     1       5.149   5.157  17.156  0.00  0.00    +0.000 A 
ATOM     24  C   UNL     1       4.616   5.935  18.195  0.00  0.00    +0.000 A 
ENDBRANCH  15  19
ENDBRANCH   1  16
BRANCH   8  25
ATOM     25  C   UNL     1      -0.707  14.739  19.449  0.00  0.00    +0.000 A 
ATOM     26  C   UNL     1       0.252  15.378  18.686  0.00  0.00    +0.000 A 
ATOM     27  C   UNL     1      -0.087  16.754  18.627  0.00  0.00    +0.000 A 
ATOM     28  C   UNL     1      -1.258  16.915  19.329  0.00  0.00    +0.000 A 
ATOM     29  N   UNL     1      -1.639  15.690  19.801  0.00  0.00    +0.000 N 
ATOM     30  H   UNL     1      -2.493  15.503  20.310  0.00  0.00    +0.000 HD
ENDBRANCH   8  25
TORSDOF 3
ENDMDL
MODEL 8
REMARK VINA RESULT:      -7.3      3.650      4.658
REMARK  Name = 
REMARK  3 active torsions:
REMARK  status: ('A' for Active; 'I' for Inactive)
REMARK    1  A    between atoms: N_3  and  C_4
REMARK    2  A    between atoms: N_10  and  C_11
REMARK    3  A    between atoms: C_18  and  C_19
REMARK                            x       y       z     vdW  Elec       q    Type
REMARK                         _______ _______ _______ _____ _____    ______ ____
ROOT
ATOM      1  C   UNL     1       0.853   9.118  20.965  0.00  0.00    +0.000 A 
ATOM      2  C   UNL     1      -0.228   9.163  21.878  0.00  0.00    +0.000 A 
ATOM      3  C   UNL     1      -0.855  10.360  22.212  0.00  0.00    +0.000 A 
ATOM      4  C   UNL     1      -0.379  11.479  21.580  0.00  0.00    +0.000 A 
ATOM      5  C   UNL     1       0.423  11.424  20.442  0.00  0.00    +0.000 A 
ATOM      6  C   UNL     1       1.125  10.250  20.173  0.00  0.00    +0.000 A 
ATOM      7  C   UNL     1       0.791  12.824  20.125  0.00  0.00    +0.000 C 
ATOM      8  C   UNL     1      -0.055  13.641  19.444  0.00  0.00    +0.000 C 
ATOM      9  C   UNL     1       0.791  13.425  21.522  0.00  0.00    +0.000 C 
ATOM     10  O   UNL     1       1.591  14.226  21.948  0.00  0.00    +0.000 OA
ATOM     11  N   UNL     1      -0.207  12.723  22.199  0.00  0.00    +0.000 N 
ATOM     12  H   UNL     1      -0.360  12.878  23.184  0.00  0.00    +0.000 HD
ENDROOT
BRANCH   1  16
ATOM     13  O   UNL     1       1.989   7.809  18.694  0.00  0.00    +0.000 OA
ATOM     14  C   UNL     1       2.205   7.382  19.812  0.00  0.00    +0.000 C 
ATOM     15  N   UNL     1       2.853   6.185  20.076  0.00  0.00    +0.000 N 
ATOM     16  N   UNL     1       1.782   8.040  20.961  0.00  0.00    +0.000 N 
ATOM     17  H   UNL     1       2.740   5.765  20.984  0.00  0.00    +0.000 HD
ATOM     18  H   UNL     1       2.184   7.757  21.842  0.00  0.00    +0.000 HD
BRANCH  15  19
ATOM     19  C   UNL     1       3.378   5.344  19.054  0.00  0.00    +0.000 A 
ATOM     20  C   UNL     1       4.711   5.435  18.602  0.00  0.00    +0.000 A 
ATOM     21  C   UNL     1       5.171   4.681  17.538  0.00  0.00    +0.000 A 
ATOM     22  C   UNL     1       4.325   3.762  16.917  0.00  0.00    +0.000 A 
ATOM     23  C   UNL     1       3.029   3.603  17.388  0.00  0.00    +0.000 A 
ATOM     24  C   UNL     1       2.554   4.382  18.454  0.00  0.00    +0.000 A 
ENDBRANCH  15  19
ENDBRANCH   1  16
BRANCH   8  25
ATOM     25  C   UNL     1       0.312  14.947  19.011  0.00  0.00    +0.000 A 
ATOM     26  C   UNL     1      -0.417  16.064  18.650  0.00  0.00    +0.000 A 
ATOM     27  C   UNL     1       0.499  17.065  18.237  0.00  0.00    +0.000 A 
ATOM     28  C   UNL     1       1.763  16.545  18.385  0.00  0.00    +0.000 A 
ATOM     29  N   UNL     1       1.643  15.275  18.876  0.00  0.00    +0.000 N 
ATOM     30  H   UNL     1       2.416  14.674  19.129  0.00  0.00    +0.000 HD
ENDBRANCH   8  25
TORSDOF 3
ENDMDL
MODEL 9
REMARK VINA RESULT:      -7.2      2.606      9.522
REMARK  Name = 
REMARK  3 active torsions:
REMARK  status: ('A' for Active; 'I' for Inactive)
REMARK    1  A    between atoms: N_3  and  C_4
REMARK    2  A    between atoms: N_10  and  C_11
REMARK    3  A    between atoms: C_18  and  C_19
REMARK                            x       y       z     vdW  Elec       q    Type
REMARK                         _______ _______ _______ _____ _____    ______ ____
ROOT
ATOM      1  C   UNL     1       0.966   9.391  19.350  0.00  0.00    +0.000 A 
ATOM      2  C   UNL     1       1.045   8.827  20.647  0.00  0.00    +0.000 A 
ATOM      3  C   UNL     1       1.696   7.620  20.881  0.00  0.00    +0.000 A 
ATOM      4  C   UNL     1       2.278   7.033  19.788  0.00  0.00    +0.000 A 
ATOM      5  C   UNL     1       2.519   7.719  18.599  0.00  0.00    +0.000 A 
ATOM      6  C   UNL     1       1.787   8.874  18.330  0.00  0.00    +0.000 A 
ATOM      7  C   UNL     1       3.072   6.722  17.651  0.00  0.00    +0.000 C 
ATOM      8  C   UNL     1       4.385   6.375  17.674  0.00  0.00    +0.000 C 
ATOM      9  C   UNL     1       2.378   5.464  18.149  0.00  0.00    +0.000 C 
ATOM     10  O   UNL     1       1.921   4.585  17.455  0.00  0.00    +0.000 OA
ATOM     11  N   UNL     1       2.261   5.658  19.526  0.00  0.00    +0.000 N 
ATOM     12  H   UNL     1       1.758   4.992  20.093  0.00  0.00    +0.000 HD
ENDROOT
BRANCH   1  16
ATOM     13  O   UNL     1       0.129  11.676  20.848  0.00  0.00    +0.000 OA
ATOM     14  C   UNL     1      -0.473  11.356  19.841  0.00  0.00    +0.000 C 
ATOM     15  N   UNL     1      -1.663  11.937  19.428  0.00  0.00    +0.000 N 
ATOM     16  N   UNL     1      -0.046  10.331  19.005  0.00  0.00    +0.000 N 
ATOM     17  H   UNL     1      -2.238  11.440  18.768  0.00  0.00    +0.000 HD
ATOM     18  H   UNL     1      -0.455  10.270  18.086  0.00  0.00    +0.000 HD
BRANCH  15  19
ATOM     19  C   UNL     1      -2.287  13.010  20.125  0.00  0.00    +0.000 A 
ATOM     20  C   UNL     1      -1.658  14.256  20.326  0.00  0.00    +0.000 A 
ATOM     21  C   UNL     1      -2.239  15.248  21.094  0.00  0.00    +0.000 A 
ATOM     22  C   UNL     1      -3.502  15.049  21.651  0.00  0.00    +0.000 A 
ATOM     23  C   UNL     1      -4.172  13.858  21.411  0.00  0.00    +0.000 A 
ATOM     24  C   UNL     1      -3.576  12.842  20.648  0.00  0.00    +0.000 A 
ENDBRANCH  15  19
ENDBRANCH   1  16
BRANCH   8  25
ATOM     25  C   UNL     1       4.976   5.521  16.701  0.00  0.00    +0.000 A 
ATOM     26  C   UNL     1       5.271   4.171  16.680  0.00  0.00    +0.000 A 
ATOM     27  C   UNL     1       5.927   3.888  15.455  0.00  0.00    +0.000 A 
ATOM     28  C   UNL     1       5.988   5.064  14.746  0.00  0.00    +0.000 A 
ATOM     29  N   UNL     1       5.390   6.040  15.494  0.00  0.00    +0.000 N 
ATOM     30  H   UNL     1       5.247   6.996  15.196  0.00  0.00    +0.000 HD
ENDBRANCH   8  25
TORSDOF 3
ENDMDL
