MODEL 1
REMARK VINA RESULT:      -8.5      0.000      0.000
REMARK  Name = 
REMARK  8 active torsions:
REMARK  status: ('A' for Active; 'I' for Inactive)
REMARK    1  A    between atoms: C_1  and  C_2
REMARK    2  A    between atoms: C_5  and  N_6
REMARK    3  A    between atoms: C_7  and  C_9
REMARK    4  A    between atoms: C_9  and  O_10
REMARK    5  A    between atoms: O_10  and  C_11
REMARK    6  A    between atoms: C_15  and  C_16
REMARK    7  A    between atoms: C_16  and  C_17
REMARK    8  A    between atoms: C_26  and  O_27
REMARK                            x       y       z     vdW  Elec       q    Type
REMARK                         _______ _______ _______ _____ _____    ______ ____
ROOT
ATOM      1  C   UNL     1       1.577   8.313  20.313  0.00  0.00    +0.000 A 
ATOM      2  C   UNL     1       1.284   9.313  19.387  0.00  0.00    +0.000 A 
ATOM      3  C   UNL     1       1.715   9.206  18.069  0.00  0.00    +0.000 A 
ATOM      4  C   UNL     1       2.428   8.081  17.654  0.00  0.00    +0.000 A 
ATOM      5  C   UNL     1       2.716   7.042  18.554  0.00  0.00    +0.000 A 
ATOM      6  C   UNL     1       2.301   7.192  19.899  0.00  0.00    +0.000 A 
ENDROOT
BRANCH   5   7
ATOM      7  C   UNL     1       3.481   5.761  18.152  0.00  0.00    +0.000 C 
ATOM      8  C   UNL     1       2.543   4.583  17.782  0.00  0.00    +0.000 C 
ATOM      9  C   UNL     1       4.322   5.297  19.362  0.00  0.00    +0.000 C 
ATOM     10  C   UNL     1       5.834   5.235  19.281  0.00  0.00    +0.000 C 
ATOM     11  S   UNL     1       6.630   5.264  17.685  0.00  0.00    +0.000 S 
ATOM     12  C   UNL     1       5.428   5.951  16.671  0.00  0.00    +0.000 C 
ATOM     13  N   UNL     1       5.912   6.338  15.466  0.00  0.00    +0.000 N 
ATOM     14  N   UNL     1       4.193   6.081  16.926  0.00  0.00    +0.000 NA
ATOM     15  H   UNL     1       6.781   5.902  15.189  0.00  0.00    +0.000 HD
ATOM     16  H   UNL     1       5.202   6.385  14.746  0.00  0.00    +0.000 HD
ENDBRANCH   5   7
BRANCH   1  17
ATOM     17  O   UNL     1       1.096   8.551  21.565  0.00  0.00    +0.000 OA
BRANCH  17  18
ATOM     18  C   UNL     1      -0.292   8.850  21.685  0.00  0.00    +0.000 C 
BRANCH  18  20
ATOM     19  N   UNL     1      -1.378  10.951  22.271  0.00  0.00    +0.000 N 
ATOM     20  C   UNL     1      -0.504   9.968  22.707  0.00  0.00    +0.000 C 
ATOM     21  O   UNL     1       0.068   9.925  23.795  0.00  0.00    +0.000 OA
ATOM     22  H   UNL     1      -1.751  10.800  21.338  0.00  0.00    +0.000 HD
BRANCH  19  27
ATOM     23  C   UNL     1      -3.171  15.648  25.032  0.00  0.00    +0.000 C 
ATOM     24  C   UNL     1      -2.699  14.414  24.321  0.00  0.00    +0.000 A 
ATOM     25  C   UNL     1      -1.444  14.400  23.708  0.00  0.00    +0.000 A 
ATOM     26  C   UNL     1      -0.992  13.264  23.033  0.00  0.00    +0.000 A 
ATOM     27  C   UNL     1      -1.781  12.118  22.952  0.00  0.00    +0.000 A 
ATOM     28  C   UNL     1      -3.040  12.121  23.571  0.00  0.00    +0.000 A 
ATOM     29  C   UNL     1      -3.486  13.263  24.247  0.00  0.00    +0.000 A 
BRANCH  29  30
ATOM     30  O   UNL     1      -4.713  13.278  24.852  0.00  0.00    +0.000 OA
ATOM     31  H   UNL     1      -4.977  12.368  25.061  0.00  0.00    +0.000 HD
ENDBRANCH  29  30
ENDBRANCH  19  27
ENDBRANCH  18  20
ENDBRANCH  17  18
ENDBRANCH   1  17
TORSDOF 6
ENDMDL
MODEL 2
REMARK VINA RESULT:      -8.4      7.272      9.330
REMARK  Name = 
REMARK  8 active torsions:
REMARK  status: ('A' for Active; 'I' for Inactive)
REMARK    1  A    between atoms: C_1  and  C_2
REMARK    2  A    between atoms: C_5  and  N_6
REMARK    3  A    between atoms: C_7  and  C_9
REMARK    4  A    between atoms: C_9  and  O_10
REMARK    5  A    between atoms: O_10  and  C_11
REMARK    6  A    between atoms: C_15  and  C_16
REMARK    7  A    between atoms: C_16  and  C_17
REMARK    8  A    between atoms: C_26  and  O_27
REMARK                            x       y       z     vdW  Elec       q    Type
REMARK                         _______ _______ _______ _____ _____    ______ ____
ROOT
ATOM      1  C   UNL     1       6.337   6.004  16.864  0.00  0.00    +0.000 A 
ATOM      2  C   UNL     1       6.590   4.912  16.035  0.00  0.00    +0.000 A 
ATOM      3  C   UNL     1       5.687   3.858  15.957  0.00  0.00    +0.000 A 
ATOM      4  C   UNL     1       4.502   3.893  16.694  0.00  0.00    +0.000 A 
ATOM      5  C   UNL     1       4.203   4.990  17.517  0.00  0.00    +0.000 A 
ATOM      6  C   UNL     1       5.156   6.033  17.610  0.00  0.00    +0.000 A 
ENDROOT
BRANCH   5   7
ATOM      7  C   UNL     1       2.899   5.101  18.340  0.00  0.00    +0.000 C 
ATOM      8  C   UNL     1       1.988   6.270  17.882  0.00  0.00    +0.000 C 
ATOM      9  C   UNL     1       3.276   5.381  19.811  0.00  0.00    +0.000 C 
ATOM     10  C   UNL     1       2.912   4.401  20.907  0.00  0.00    +0.000 C 
ATOM     11  S   UNL     1       1.677   3.152  20.595  0.00  0.00    +0.000 S 
ATOM     12  C   UNL     1       1.656   3.057  18.882  0.00  0.00    +0.000 C 
ATOM     13  N   UNL     1       0.998   1.965  18.422  0.00  0.00    +0.000 N 
ATOM     14  N   UNL     1       2.140   3.893  18.061  0.00  0.00    +0.000 NA
ATOM     15  H   UNL     1       0.349   1.545  19.073  0.00  0.00    +0.000 HD
ATOM     16  H   UNL     1       0.651   2.076  17.477  0.00  0.00    +0.000 HD
ENDBRANCH   5   7
BRANCH   1  17
ATOM     17  O   UNL     1       7.307   6.959  16.843  0.00  0.00    +0.000 OA
BRANCH  17  18
ATOM     18  C   UNL     1       7.911   7.304  18.087  0.00  0.00    +0.000 C 
BRANCH  18  20
ATOM     19  N   UNL     1       9.081   9.174  19.122  0.00  0.00    +0.000 N 
ATOM     20  C   UNL     1       8.160   8.812  18.152  0.00  0.00    +0.000 C 
ATOM     21  O   UNL     1       7.574   9.568  17.379  0.00  0.00    +0.000 OA
ATOM     22  H   UNL     1       9.458   8.397  19.658  0.00  0.00    +0.000 HD
BRANCH  19  27
ATOM     23  C   UNL     1      10.989  14.445  20.340  0.00  0.00    +0.000 C 
ATOM     24  C   UNL     1      10.479  13.071  20.017  0.00  0.00    +0.000 A 
ATOM     25  C   UNL     1       9.899  12.289  21.018  0.00  0.00    +0.000 A 
ATOM     26  C   UNL     1       9.428  11.004  20.738  0.00  0.00    +0.000 A 
ATOM     27  C   UNL     1       9.527  10.470  19.455  0.00  0.00    +0.000 A 
ATOM     28  C   UNL     1      10.103  11.251  18.441  0.00  0.00    +0.000 A 
ATOM     29  C   UNL     1      10.571  12.538  18.729  0.00  0.00    +0.000 A 
BRANCH  29  30
ATOM     30  O   UNL     1      11.136  13.308  17.750  0.00  0.00    +0.000 OA
ATOM     31  H   UNL     1      12.005  12.943  17.518  0.00  0.00    +0.000 HD
ENDBRANCH  29  30
ENDBRANCH  19  27
ENDBRANCH  18  20
ENDBRANCH  17  18
ENDBRANCH   1  17
TORSDOF 6
ENDMDL
MODEL 3
REMARK VINA RESULT:      -8.3      1.978      2.637
REMARK  Name = 
REMARK  8 active torsions:
REMARK  status: ('A' for Active; 'I' for Inactive)
REMARK    1  A    between atoms: C_1  and  C_2
REMARK    2  A    between atoms: C_5  and  N_6
REMARK    3  A    between atoms: C_7  and  C_9
REMARK    4  A    between atoms: C_9  and  O_10
REMARK    5  A    between atoms: O_10  and  C_11
REMARK    6  A    between atoms: C_15  and  C_16
REMARK    7  A    between atoms: C_16  and  C_17
REMARK    8  A    between atoms: C_26  and  O_27
REMARK                            x       y       z     vdW  Elec       q    Type
REMARK                         _______ _______ _______ _____ _____    ______ ____
ROOT
ATOM      1  C   UNL     1       1.646   8.250  20.290  0.00  0.00    +0.000 A 
ATOM      2  C   UNL     1       1.509   8.990  19.116  0.00  0.00    +0.000 A 
ATOM      3  C   UNL     1       1.963   8.483  17.903  0.00  0.00    +0.000 A 
ATOM      4  C   UNL     1       2.541   7.215  17.846  0.00  0.00    +0.000 A 
ATOM      5  C   UNL     1       2.669   6.433  19.004  0.00  0.00    +0.000 A 
ATOM      6  C   UNL     1       2.236   6.986  20.233  0.00  0.00    +0.000 A 
ENDROOT
BRANCH   5   7
ATOM      7  C   UNL     1       3.280   5.012  19.004  0.00  0.00    +0.000 C 
ATOM      8  C   UNL     1       4.827   5.014  18.894  0.00  0.00    +0.000 C 
ATOM      9  C   UNL     1       2.746   4.254  17.768  0.00  0.00    +0.000 C 
ATOM     10  C   UNL     1       1.909   3.002  17.926  0.00  0.00    +0.000 C 
ATOM     11  S   UNL     1       1.898   2.142  19.489  0.00  0.00    +0.000 S 
ATOM     12  C   UNL     1       2.423   3.349  20.591  0.00  0.00    +0.000 C 
ATOM     13  N   UNL     1       2.215   3.007  21.886  0.00  0.00    +0.000 N 
ATOM     14  N   UNL     1       2.990   4.447  20.312  0.00  0.00    +0.000 NA
ATOM     15  H   UNL     1       2.100   2.018  22.058  0.00  0.00    +0.000 HD
ATOM     16  H   UNL     1       2.827   3.491  22.530  0.00  0.00    +0.000 HD
ENDBRANCH   5   7
BRANCH   1  17
ATOM     17  O   UNL     1       1.161   8.870  21.402  0.00  0.00    +0.000 OA
BRANCH  17  18
ATOM     18  C   UNL     1      -0.224   9.206  21.410  0.00  0.00    +0.000 C 
BRANCH  18  20
ATOM     19  N   UNL     1      -1.320  11.266  22.113  0.00  0.00    +0.000 N 
ATOM     20  C   UNL     1      -0.515  10.215  22.523  0.00  0.00    +0.000 C 
ATOM     21  O   UNL     1      -0.057  10.038  23.650  0.00  0.00    +0.000 OA
ATOM     22  H   UNL     1      -1.600  11.228  21.137  0.00  0.00    +0.000 HD
BRANCH  19  27
ATOM     23  C   UNL     1      -3.285  15.688  25.193  0.00  0.00    +0.000 C 
ATOM     24  C   UNL     1      -2.767  14.525  24.398  0.00  0.00    +0.000 A 
ATOM     25  C   UNL     1      -1.493  14.581  23.830  0.00  0.00    +0.000 A 
ATOM     26  C   UNL     1      -0.999  13.512  23.078  0.00  0.00    +0.000 A 
ATOM     27  C   UNL     1      -1.765  12.366  22.875  0.00  0.00    +0.000 A 
ATOM     28  C   UNL     1      -3.044  12.299  23.448  0.00  0.00    +0.000 A 
ATOM     29  C   UNL     1      -3.531  13.373  24.201  0.00  0.00    +0.000 A 
BRANCH  29  30
ATOM     30  O   UNL     1      -4.778  13.320  24.762  0.00  0.00    +0.000 OA
ATOM     31  H   UNL     1      -4.808  13.917  25.528  0.00  0.00    +0.000 HD
ENDBRANCH  29  30
ENDBRANCH  19  27
ENDBRANCH  18  20
ENDBRANCH  17  18
ENDBRANCH   1  17
TORSDOF 6
ENDMDL
MODEL 4
REMARK VINA RESULT:      -8.3      0.954      1.327
REMARK  Name = 
REMARK  8 active torsions:
REMARK  status: ('A' for Active; 'I' for Inactive)
REMARK    1  A    between atoms: C_1  and  C_2
REMARK    2  A    between atoms: C_5  and  N_6
REMARK    3  A    between atoms: C_7  and  C_9
REMARK    4  A    between atoms: C_9  and  O_10
REMARK    5  A    between atoms: O_10  and  C_11
REMARK    6  A    between atoms: C_15  and  C_16
REMARK    7  A    between atoms: C_16  and  C_17
REMARK    8  A    between atoms: C_26  and  O_27
REMARK                            x       y       z     vdW  Elec       q    Type
REMARK                         _______ _______ _______ _____ _____    ______ ____
ROOT
ATOM      1  C   UNL     1       1.604   8.261  20.308  0.00  0.00    +0.000 A 
ATOM      2  C   UNL     1       1.325   9.269  19.386  0.00  0.00    +0.000 A 
ATOM      3  C   UNL     1       1.758   9.163  18.069  0.00  0.00    +0.000 A 
ATOM      4  C   UNL     1       2.461   8.032  17.651  0.00  0.00    +0.000 A 
ATOM      5  C   UNL     1       2.735   6.986  18.547  0.00  0.00    +0.000 A 
ATOM      6  C   UNL     1       2.318   7.135  19.891  0.00  0.00    +0.000 A 
ENDROOT
BRANCH   5   7
ATOM      7  C   UNL     1       3.487   5.698  18.141  0.00  0.00    +0.000 C 
ATOM      8  C   UNL     1       2.537   4.524  17.789  0.00  0.00    +0.000 C 
ATOM      9  C   UNL     1       4.341   5.236  19.342  0.00  0.00    +0.000 C 
ATOM     10  C   UNL     1       5.851   5.165  19.242  0.00  0.00    +0.000 C 
ATOM     11  S   UNL     1       6.627   5.181  17.636  0.00  0.00    +0.000 S 
ATOM     12  C   UNL     1       5.415   5.871  16.634  0.00  0.00    +0.000 C 
ATOM     13  N   UNL     1       5.886   6.250  15.421  0.00  0.00    +0.000 N 
ATOM     14  N   UNL     1       4.185   6.009  16.904  0.00  0.00    +0.000 NA
ATOM     15  H   UNL     1       6.748   5.807  15.135  0.00  0.00    +0.000 HD
ATOM     16  H   UNL     1       5.167   6.297  14.710  0.00  0.00    +0.000 HD
ENDBRANCH   5   7
BRANCH   1  17
ATOM     17  O   UNL     1       1.122   8.498  21.560  0.00  0.00    +0.000 OA
BRANCH  17  18
ATOM     18  C   UNL     1      -0.270   8.779  21.681  0.00  0.00    +0.000 C 
BRANCH  18  20
ATOM     19  N   UNL     1      -1.373  10.877  22.248  0.00  0.00    +0.000 N 
ATOM     20  C   UNL     1      -0.495   9.903  22.694  0.00  0.00    +0.000 C 
ATOM     21  O   UNL     1       0.074   9.872  23.785  0.00  0.00    +0.000 OA
ATOM     22  H   UNL     1      -1.741  10.717  21.314  0.00  0.00    +0.000 HD
BRANCH  19  27
ATOM     23  C   UNL     1      -2.900  15.673  24.999  0.00  0.00    +0.000 C 
ATOM     24  C   UNL     1      -2.503  14.424  24.268  0.00  0.00    +0.000 A 
ATOM     25  C   UNL     1      -3.407  13.365  24.157  0.00  0.00    +0.000 A 
ATOM     26  C   UNL     1      -3.051  12.191  23.489  0.00  0.00    +0.000 A 
ATOM     27  C   UNL     1      -1.787  12.046  22.919  0.00  0.00    +0.000 A 
ATOM     28  C   UNL     1      -0.876  13.108  23.021  0.00  0.00    +0.000 A 
ATOM     29  C   UNL     1      -1.240  14.282  23.690  0.00  0.00    +0.000 A 
BRANCH  29  30
ATOM     30  O   UNL     1      -0.359  15.323  23.797  0.00  0.00    +0.000 OA
ATOM     31  H   UNL     1      -0.086  15.603  22.908  0.00  0.00    +0.000 HD
ENDBRANCH  29  30
ENDBRANCH  19  27
ENDBRANCH  18  20
ENDBRANCH  17  18
ENDBRANCH   1  17
TORSDOF 6
ENDMDL
MODEL 5
REMARK VINA RESULT:      -8.2      7.146      9.277
REMARK  Name = 
REMARK  8 active torsions:
REMARK  status: ('A' for Active; 'I' for Inactive)
REMARK    1  A    between atoms: C_1  and  C_2
REMARK    2  A    between atoms: C_5  and  N_6
REMARK    3  A    between atoms: C_7  and  C_9
REMARK    4  A    between atoms: C_9  and  O_10
REMARK    5  A    between atoms: O_10  and  C_11
REMARK    6  A    between atoms: C_15  and  C_16
REMARK    7  A    between atoms: C_16  and  C_17
REMARK    8  A    between atoms: C_26  and  O_27
REMARK                            x       y       z     vdW  Elec       q    Type
REMARK                         _______ _______ _______ _____ _____    ______ ____
ROOT
ATOM      1  C   UNL     1       6.942   4.977  17.338  0.00  0.00    +0.000 A 
ATOM      2  C   UNL     1       7.126   4.672  15.990  0.00  0.00    +0.000 A 
ATOM      3  C   UNL     1       6.078   4.166  15.229  0.00  0.00    +0.000 A 
ATOM      4  C   UNL     1       4.820   3.979  15.804  0.00  0.00    +0.000 A 
ATOM      5  C   UNL     1       4.593   4.303  17.151  0.00  0.00    +0.000 A 
ATOM      6  C   UNL     1       5.686   4.779  17.915  0.00  0.00    +0.000 A 
ENDROOT
BRANCH   5   7
ATOM      7  C   UNL     1       3.220   4.141  17.841  0.00  0.00    +0.000 C 
ATOM      8  C   UNL     1       2.167   3.439  16.945  0.00  0.00    +0.000 C 
ATOM      9  C   UNL     1       2.667   5.549  18.158  0.00  0.00    +0.000 C 
ATOM     10  C   UNL     1       2.411   5.980  19.587  0.00  0.00    +0.000 C 
ATOM     11  S   UNL     1       2.318   4.749  20.874  0.00  0.00    +0.000 S 
ATOM     12  C   UNL     1       3.142   3.411  20.182  0.00  0.00    +0.000 C 
ATOM     13  N   UNL     1       3.450   2.453  21.090  0.00  0.00    +0.000 N 
ATOM     14  N   UNL     1       3.432   3.238  18.960  0.00  0.00    +0.000 NA
ATOM     15  H   UNL     1       2.902   2.472  21.940  0.00  0.00    +0.000 HD
ATOM     16  H   UNL     1       3.578   1.538  20.678  0.00  0.00    +0.000 HD
ENDBRANCH   5   7
BRANCH   1  17
ATOM     17  O   UNL     1       8.053   5.461  17.959  0.00  0.00    +0.000 OA
BRANCH  17  18
ATOM     18  C   UNL     1       7.873   6.538  18.875  0.00  0.00    +0.000 C 
BRANCH  18  20
ATOM     19  N   UNL     1       8.758   8.803  19.021  0.00  0.00    +0.000 N 
ATOM     20  C   UNL     1       8.164   7.872  18.185  0.00  0.00    +0.000 C 
ATOM     21  O   UNL     1       7.883   8.026  16.998  0.00  0.00    +0.000 OA
ATOM     22  H   UNL     1       8.913   8.480  19.972  0.00  0.00    +0.000 HD
BRANCH  19  27
ATOM     23  C   UNL     1      10.214  14.179  17.647  0.00  0.00    +0.000 C 
ATOM     24  C   UNL     1       9.826  12.777  18.016  0.00  0.00    +0.000 A 
ATOM     25  C   UNL     1      10.703  11.984  18.760  0.00  0.00    +0.000 A 
ATOM     26  C   UNL     1      10.363  10.674  19.104  0.00  0.00    +0.000 A 
ATOM     27  C   UNL     1       9.143  10.124  18.713  0.00  0.00    +0.000 A 
ATOM     28  C   UNL     1       8.254  10.916  17.971  0.00  0.00    +0.000 A 
ATOM     29  C   UNL     1       8.601  12.229  17.631  0.00  0.00    +0.000 A 
BRANCH  29  30
ATOM     30  O   UNL     1       7.743  13.010  16.906  0.00  0.00    +0.000 OA
ATOM     31  H   UNL     1       7.028  12.456  16.553  0.00  0.00    +0.000 HD
ENDBRANCH  29  30
ENDBRANCH  19  27
ENDBRANCH  18  20
ENDBRANCH  17  18
ENDBRANCH   1  17
TORSDOF 6
ENDMDL
MODEL 6
REMARK VINA RESULT:      -8.2      7.472      9.321
REMARK  Name = 
REMARK  8 active torsions:
REMARK  status: ('A' for Active; 'I' for Inactive)
REMARK    1  A    between atoms: C_1  and  C_2
REMARK    2  A    between atoms: C_5  and  N_6
REMARK    3  A    between atoms: C_7  and  C_9
REMARK    4  A    between atoms: C_9  and  O_10
REMARK    5  A    between atoms: O_10  and  C_11
REMARK    6  A    between atoms: C_15  and  C_16
REMARK    7  A    between atoms: C_16  and  C_17
REMARK    8  A    between atoms: C_26  and  O_27
REMARK                            x       y       z     vdW  Elec       q    Type
REMARK                         _______ _______ _______ _____ _____    ______ ____
ROOT
ATOM      1  C   UNL     1       6.709   5.022  17.452  0.00  0.00    +0.000 A 
ATOM      2  C   UNL     1       6.711   4.395  16.207  0.00  0.00    +0.000 A 
ATOM      3  C   UNL     1       5.534   3.883  15.672  0.00  0.00    +0.000 A 
ATOM      4  C   UNL     1       4.332   4.012  16.368  0.00  0.00    +0.000 A 
ATOM      5  C   UNL     1       4.291   4.663  17.611  0.00  0.00    +0.000 A 
ATOM      6  C   UNL     1       5.507   5.141  18.154  0.00  0.00    +0.000 A 
ENDROOT
BRANCH   5   7
ATOM      7  C   UNL     1       2.989   4.860  18.422  0.00  0.00    +0.000 C 
ATOM      8  C   UNL     1       2.151   6.073  17.942  0.00  0.00    +0.000 C 
ATOM      9  C   UNL     1       3.370   5.136  19.893  0.00  0.00    +0.000 C 
ATOM     10  C   UNL     1       2.941   4.192  20.998  0.00  0.00    +0.000 C 
ATOM     11  S   UNL     1       1.638   3.013  20.691  0.00  0.00    +0.000 S 
ATOM     12  C   UNL     1       1.625   2.898  18.978  0.00  0.00    +0.000 C 
ATOM     13  N   UNL     1       0.908   1.840  18.526  0.00  0.00    +0.000 N 
ATOM     14  N   UNL     1       2.163   3.694  18.152  0.00  0.00    +0.000 NA
ATOM     15  H   UNL     1       0.232   1.467  19.178  0.00  0.00    +0.000 HD
ATOM     16  H   UNL     1       0.576   1.958  17.577  0.00  0.00    +0.000 HD
ENDBRANCH   5   7
BRANCH   1  17
ATOM     17  O   UNL     1       7.931   5.472  17.853  0.00  0.00    +0.000 OA
BRANCH  17  18
ATOM     18  C   UNL     1       7.957   6.483  18.858  0.00  0.00    +0.000 C 
BRANCH  18  20
ATOM     19  N   UNL     1       8.740   8.780  19.073  0.00  0.00    +0.000 N 
ATOM     20  C   UNL     1       8.157   7.857  18.219  0.00  0.00    +0.000 C 
ATOM     21  O   UNL     1       7.821   8.049  17.051  0.00  0.00    +0.000 OA
ATOM     22  H   UNL     1       8.948   8.423  20.001  0.00  0.00    +0.000 HD
BRANCH  19  27
ATOM     23  C   UNL     1      10.071  14.283  18.153  0.00  0.00    +0.000 C 
ATOM     24  C   UNL     1       9.733  12.840  18.386  0.00  0.00    +0.000 A 
ATOM     25  C   UNL     1       8.732  12.228  17.629  0.00  0.00    +0.000 A 
ATOM     26  C   UNL     1       8.397  10.888  17.840  0.00  0.00    +0.000 A 
ATOM     27  C   UNL     1       9.050  10.130  18.810  0.00  0.00    +0.000 A 
ATOM     28  C   UNL     1      10.062  10.736  19.570  0.00  0.00    +0.000 A 
ATOM     29  C   UNL     1      10.393  12.078  19.353  0.00  0.00    +0.000 A 
BRANCH  29  30
ATOM     30  O   UNL     1      11.376  12.681  20.089  0.00  0.00    +0.000 OA
ATOM     31  H   UNL     1      12.119  12.064  20.195  0.00  0.00    +0.000 HD
ENDBRANCH  29  30
ENDBRANCH  19  27
ENDBRANCH  18  20
ENDBRANCH  17  18
ENDBRANCH   1  17
TORSDOF 6
ENDMDL
MODEL 7
REMARK VINA RESULT:      -8.1      1.722      2.033
REMARK  Name = 
REMARK  8 active torsions:
REMARK  status: ('A' for Active; 'I' for Inactive)
REMARK    1  A    between atoms: C_1  and  C_2
REMARK    2  A    between atoms: C_5  and  N_6
REMARK    3  A    between atoms: C_7  and  C_9
REMARK    4  A    between atoms: C_9  and  O_10
REMARK    5  A    between atoms: O_10  and  C_11
REMARK    6  A    between atoms: C_15  and  C_16
REMARK    7  A    between atoms: C_16  and  C_17
REMARK    8  A    between atoms: C_26  and  O_27
REMARK                            x       y       z     vdW  Elec       q    Type
REMARK                         _______ _______ _______ _____ _____    ______ ____
ROOT
ATOM      1  C   UNL     1       1.670   8.278  20.148  0.00  0.00    +0.000 A 
ATOM      2  C   UNL     1       2.003   9.024  19.018  0.00  0.00    +0.000 A 
ATOM      3  C   UNL     1       2.413   8.393  17.849  0.00  0.00    +0.000 A 
ATOM      4  C   UNL     1       2.473   7.000  17.788  0.00  0.00    +0.000 A 
ATOM      5  C   UNL     1       2.118   6.218  18.899  0.00  0.00    +0.000 A 
ATOM      6  C   UNL     1       1.742   6.885  20.090  0.00  0.00    +0.000 A 
ENDROOT
BRANCH   5   7
ATOM      7  C   UNL     1       2.142   4.672  18.889  0.00  0.00    +0.000 C 
ATOM      8  C   UNL     1       1.398   4.060  17.674  0.00  0.00    +0.000 C 
ATOM      9  C   UNL     1       1.416   4.168  20.156  0.00  0.00    +0.000 C 
ATOM     10  C   UNL     1       2.150   3.352  21.200  0.00  0.00    +0.000 C 
ATOM     11  S   UNL     1       3.710   2.592  20.785  0.00  0.00    +0.000 S 
ATOM     12  C   UNL     1       4.232   3.510  19.432  0.00  0.00    +0.000 C 
ATOM     13  N   UNL     1       5.536   3.300  19.124  0.00  0.00    +0.000 N 
ATOM     14  N   UNL     1       3.533   4.289  18.718  0.00  0.00    +0.000 NA
ATOM     15  H   UNL     1       5.930   2.440  19.479  0.00  0.00    +0.000 HD
ATOM     16  H   UNL     1       5.757   3.512  18.159  0.00  0.00    +0.000 HD
ENDBRANCH   5   7
BRANCH   1  17
ATOM     17  O   UNL     1       1.289   9.027  21.221  0.00  0.00    +0.000 OA
BRANCH  17  18
ATOM     18  C   UNL     1      -0.054   8.882  21.675  0.00  0.00    +0.000 C 
BRANCH  18  20
ATOM     19  N   UNL     1      -1.204  10.955  22.237  0.00  0.00    +0.000 N 
ATOM     20  C   UNL     1      -0.376   9.953  22.718  0.00  0.00    +0.000 C 
ATOM     21  O   UNL     1       0.080   9.862  23.856  0.00  0.00    +0.000 OA
ATOM     22  H   UNL     1      -1.477  10.847  21.265  0.00  0.00    +0.000 HD
BRANCH  19  27
ATOM     23  C   UNL     1      -3.295  15.516  25.018  0.00  0.00    +0.000 C 
ATOM     24  C   UNL     1      -2.744  14.318  24.302  0.00  0.00    +0.000 A 
ATOM     25  C   UNL     1      -1.478  14.377  23.716  0.00  0.00    +0.000 A 
ATOM     26  C   UNL     1      -0.954  13.274  23.037  0.00  0.00    +0.000 A 
ATOM     27  C   UNL     1      -1.680  12.090  22.924  0.00  0.00    +0.000 A 
ATOM     28  C   UNL     1      -2.951  12.021  23.515  0.00  0.00    +0.000 A 
ATOM     29  C   UNL     1      -3.469  13.128  24.196  0.00  0.00    +0.000 A 
BRANCH  29  30
ATOM     30  O   UNL     1      -4.708  13.073  24.775  0.00  0.00    +0.000 OA
ATOM     31  H   UNL     1      -4.685  13.544  25.623  0.00  0.00    +0.000 HD
ENDBRANCH  29  30
ENDBRANCH  19  27
ENDBRANCH  18  20
ENDBRANCH  17  18
ENDBRANCH   1  17
TORSDOF 6
ENDMDL
MODEL 8
REMARK VINA RESULT:      -8.1      2.102      2.847
REMARK  Name = 
REMARK  8 active torsions:
REMARK  status: ('A' for Active; 'I' for Inactive)
REMARK    1  A    between atoms: C_1  and  C_2
REMARK    2  A    between atoms: C_5  and  N_6
REMARK    3  A    between atoms: C_7  and  C_9
REMARK    4  A    between atoms: C_9  and  O_10
REMARK    5  A    between atoms: O_10  and  C_11
REMARK    6  A    between atoms: C_15  and  C_16
REMARK    7  A    between atoms: C_16  and  C_17
REMARK    8  A    between atoms: C_26  and  O_27
REMARK                            x       y       z     vdW  Elec       q    Type
REMARK                         _______ _______ _______ _____ _____    ______ ____
ROOT
ATOM      1  C   UNL     1       1.602   8.136  20.307  0.00  0.00    +0.000 A 
ATOM      2  C   UNL     1       1.512   8.940  19.172  0.00  0.00    +0.000 A 
ATOM      3  C   UNL     1       2.103   8.546  17.977  0.00  0.00    +0.000 A 
ATOM      4  C   UNL     1       2.775   7.325  17.896  0.00  0.00    +0.000 A 
ATOM      5  C   UNL     1       2.860   6.479  19.013  0.00  0.00    +0.000 A 
ATOM      6  C   UNL     1       2.285   6.920  20.228  0.00  0.00    +0.000 A 
ENDROOT
BRANCH   5   7
ATOM      7  C   UNL     1       3.569   5.105  18.983  0.00  0.00    +0.000 C 
ATOM      8  C   UNL     1       5.108   5.212  19.139  0.00  0.00    +0.000 C 
ATOM      9  C   UNL     1       3.304   4.452  17.609  0.00  0.00    +0.000 C 
ATOM     10  C   UNL     1       2.550   3.142  17.503  0.00  0.00    +0.000 C 
ATOM     11  S   UNL     1       2.350   2.123  18.953  0.00  0.00    +0.000 S 
ATOM     12  C   UNL     1       2.594   3.236  20.237  0.00  0.00    +0.000 C 
ATOM     13  N   UNL     1       2.204   2.747  21.440  0.00  0.00    +0.000 N 
ATOM     14  N   UNL     1       3.114   4.389  20.163  0.00  0.00    +0.000 NA
ATOM     15  H   UNL     1       2.139   1.740  21.496  0.00  0.00    +0.000 HD
ATOM     16  H   UNL     1       2.664   3.196  22.222  0.00  0.00    +0.000 HD
ENDBRANCH   5   7
BRANCH   1  17
ATOM     17  O   UNL     1       0.980   8.648  21.406  0.00  0.00    +0.000 OA
BRANCH  17  18
ATOM     18  C   UNL     1      -0.248   9.341  21.199  0.00  0.00    +0.000 C 
BRANCH  18  20
ATOM     19  N   UNL     1      -1.358  11.345  22.028  0.00  0.00    +0.000 N 
ATOM     20  C   UNL     1      -0.518  10.295  22.363  0.00  0.00    +0.000 C 
ATOM     21  O   UNL     1      -0.015  10.081  23.465  0.00  0.00    +0.000 OA
ATOM     22  H   UNL     1      -1.673  11.342  21.062  0.00  0.00    +0.000 HD
BRANCH  19  27
ATOM     23  C   UNL     1      -2.988  15.686  25.404  0.00  0.00    +0.000 C 
ATOM     24  C   UNL     1      -2.565  14.558  24.511  0.00  0.00    +0.000 A 
ATOM     25  C   UNL     1      -3.442  13.500  24.260  0.00  0.00    +0.000 A 
ATOM     26  C   UNL     1      -3.061  12.436  23.439  0.00  0.00    +0.000 A 
ATOM     27  C   UNL     1      -1.797  12.401  22.852  0.00  0.00    +0.000 A 
ATOM     28  C   UNL     1      -0.912  13.463  23.093  0.00  0.00    +0.000 A 
ATOM     29  C   UNL     1      -1.301  14.526  23.916  0.00  0.00    +0.000 A 
BRANCH  29  30
ATOM     30  O   UNL     1      -0.446  15.566  24.160  0.00  0.00    +0.000 OA
ATOM     31  H   UNL     1      -0.574  15.877  25.071  0.00  0.00    +0.000 HD
ENDBRANCH  29  30
ENDBRANCH  19  27
ENDBRANCH  18  20
ENDBRANCH  17  18
ENDBRANCH   1  17
TORSDOF 6
ENDMDL
MODEL 9
REMARK VINA RESULT:      -8.0      7.656     10.073
REMARK  Name = 
REMARK  8 active torsions:
REMARK  status: ('A' for Active; 'I' for Inactive)
REMARK    1  A    between atoms: C_1  and  C_2
REMARK    2  A    between atoms: C_5  and  N_6
REMARK    3  A    between atoms: C_7  and  C_9
REMARK    4  A    between atoms: C_9  and  O_10
REMARK    5  A    between atoms: O_10  and  C_11
REMARK    6  A    between atoms: C_15  and  C_16
REMARK    7  A    between atoms: C_16  and  C_17
REMARK    8  A    between atoms: C_26  and  O_27
REMARK                            x       y       z     vdW  Elec       q    Type
REMARK                         _______ _______ _______ _____ _____    ______ ____
ROOT
ATOM      1  C   UNL     1       7.534   7.818  17.872  0.00  0.00    +0.000 A 
ATOM      2  C   UNL     1       8.341   7.124  18.772  0.00  0.00    +0.000 A 
ATOM      3  C   UNL     1       8.045   5.811  19.120  0.00  0.00    +0.000 A 
ATOM      4  C   UNL     1       6.946   5.165  18.551  0.00  0.00    +0.000 A 
ATOM      5  C   UNL     1       6.129   5.826  17.621  0.00  0.00    +0.000 A 
ATOM      6  C   UNL     1       6.427   7.175  17.312  0.00  0.00    +0.000 A 
ENDROOT
BRANCH   5   7
ATOM      7  C   UNL     1       4.912   5.161  16.938  0.00  0.00    +0.000 C 
ATOM      8  C   UNL     1       5.048   5.083  15.395  0.00  0.00    +0.000 C 
ATOM      9  C   UNL     1       3.661   6.018  17.233  0.00  0.00    +0.000 C 
ATOM     10  C   UNL     1       2.494   5.447  18.012  0.00  0.00    +0.000 C 
ATOM     11  S   UNL     1       2.350   3.681  18.212  0.00  0.00    +0.000 S 
ATOM     12  C   UNL     1       3.952   3.133  17.930  0.00  0.00    +0.000 C 
ATOM     13  N   UNL     1       4.146   1.847  18.314  0.00  0.00    +0.000 N 
ATOM     14  N   UNL     1       4.899   3.779  17.390  0.00  0.00    +0.000 NA
ATOM     15  H   UNL     1       3.306   1.291  18.397  0.00  0.00    +0.000 HD
ATOM     16  H   UNL     1       4.917   1.399  17.835  0.00  0.00    +0.000 HD
ENDBRANCH   5   7
BRANCH   1  17
ATOM     17  O   UNL     1       7.940   9.095  17.626  0.00  0.00    +0.000 OA
BRANCH  17  18
ATOM     18  C   UNL     1       8.875   9.670  18.536  0.00  0.00    +0.000 C 
BRANCH  18  20
ATOM     19  N   UNL     1      10.254  11.671  18.713  0.00  0.00    +0.000 N 
ATOM     20  C   UNL     1       9.060  11.157  18.232  0.00  0.00    +0.000 C 
ATOM     21  O   UNL     1       8.197  11.771  17.607  0.00  0.00    +0.000 OA
ATOM     22  H   UNL     1      10.836  10.997  19.203  0.00  0.00    +0.000 HD
BRANCH  19  27
ATOM     23  C   UNL     1      12.210  17.035  18.170  0.00  0.00    +0.000 C 
ATOM     24  C   UNL     1      11.687  15.637  18.312  0.00  0.00    +0.000 A 
ATOM     25  C   UNL     1      11.671  15.022  19.566  0.00  0.00    +0.000 A 
ATOM     26  C   UNL     1      11.196  13.717  19.716  0.00  0.00    +0.000 A 
ATOM     27  C   UNL     1      10.729  12.995  18.619  0.00  0.00    +0.000 A 
ATOM     28  C   UNL     1      10.735  13.607  17.357  0.00  0.00    +0.000 A 
ATOM     29  C   UNL     1      11.210  14.916  17.215  0.00  0.00    +0.000 A 
BRANCH  29  30
ATOM     30  O   UNL     1      11.223  15.523  15.989  0.00  0.00    +0.000 OA
ATOM     31  H   UNL     1      11.603  16.412  16.076  0.00  0.00    +0.000 HD
ENDBRANCH  29  30
ENDBRANCH  19  27
ENDBRANCH  18  20
ENDBRANCH  17  18
ENDBRANCH   1  17
TORSDOF 6
ENDMDL
