MODEL 1
REMARK VINA RESULT:      -7.9      0.000      0.000
REMARK  Name = 
REMARK  11 active torsions:
REMARK  status: ('A' for Active; 'I' for Inactive)
REMARK    1  A    between atoms: C_1  and  C_2
REMARK    2  A    between atoms: C_2  and  N_3
REMARK    3  A    between atoms: N_3  and  C_4
REMARK    4  A    between atoms: N_3  and  C_24
REMARK    5  A    between atoms: C_4  and  C_5
REMARK    6  A    between atoms: C_5  and  C_6
REMARK    7  A    between atoms: C_6  and  O_7
REMARK    8  A    between atoms: C_6  and  C_18
REMARK    9  A    between atoms: O_7  and  C_8
REMARK   10  A    between atoms: C_11  and  C_12
REMARK   11  A    between atoms: C_24  and  C_25
REMARK                            x       y       z     vdW  Elec       q    Type
REMARK                         _______ _______ _______ _____ _____    ______ ____
ROOT
ATOM      1  C   UNL     1       3.608   5.695  19.490  0.00  0.00    +0.000 C 
ENDROOT
BRANCH   1   2
ATOM      2  C   UNL     1       2.566   4.581  19.566  0.00  0.00    +0.000 A 
ATOM      3  C   UNL     1       2.290   3.947  20.784  0.00  0.00    +0.000 A 
ATOM      4  C   UNL     1       1.414   2.860  20.840  0.00  0.00    +0.000 A 
ATOM      5  C   UNL     1       0.814   2.381  19.676  0.00  0.00    +0.000 A 
ATOM      6  C   UNL     1       1.072   2.996  18.456  0.00  0.00    +0.000 A 
ATOM      7  C   UNL     1       1.947   4.086  18.398  0.00  0.00    +0.000 A 
ENDBRANCH   1   2
BRANCH   1   8
ATOM      8  C   UNL     1       4.975   5.008  19.321  0.00  0.00    +0.000 C 
BRANCH   8   9
ATOM      9  C   UNL     1       5.239   4.317  17.972  0.00  0.00    +0.000 C 
BRANCH   9  10
ATOM     10  N   UNL     1       6.462   4.889  17.356  0.00  0.00    +0.000 NA
BRANCH  10  12
ATOM     11  C   UNL     1       7.464   7.250  17.561  0.00  0.00    +0.000 C 
ATOM     12  C   UNL     1       7.126   5.913  18.212  0.00  0.00    +0.000 C 
ENDBRANCH  10  12
BRANCH  10  13
ATOM     13  C   UNL     1       6.145   5.586  16.059  0.00  0.00    +0.000 C 
BRANCH  13  14
ATOM     14  C   UNL     1       6.860   4.872  14.881  0.00  0.00    +0.000 C 
ATOM     15  O   UNL     1       7.874   5.417  14.395  0.00  0.00    +0.000 OA
ATOM     16  O   UNL     1       6.268   3.790  14.530  0.00  0.00    +0.000 OA
ENDBRANCH  13  14
ENDBRANCH  10  13
ENDBRANCH   9  10
ENDBRANCH   8   9
ENDBRANCH   1   8
BRANCH   1  17
ATOM     17  O   UNL     1       3.321   6.567  18.388  0.00  0.00    +0.000 OA
BRANCH  17  18
ATOM     18  C   UNL     1       2.519   7.661  18.628  0.00  0.00    +0.000 A 
ATOM     19  C   UNL     1       2.141   8.621  17.685  0.00  0.00    +0.000 A 
ATOM     20  C   UNL     1       1.234   9.625  18.016  0.00  0.00    +0.000 A 
ATOM     21  C   UNL     1       0.689   9.711  19.296  0.00  0.00    +0.000 A 
ATOM     22  C   UNL     1       1.122   8.795  20.273  0.00  0.00    +0.000 A 
ATOM     23  C   UNL     1       2.022   7.776  19.934  0.00  0.00    +0.000 A 
BRANCH  21  24
ATOM     24  C   UNL     1      -0.369  10.738  19.619  0.00  0.00    +0.000 C 
ATOM     25  F   UNL     1      -0.517  10.959  20.954  0.00  0.00    +0.000 F 
ATOM     26  F   UNL     1      -0.091  11.953  19.072  0.00  0.00    +0.000 F 
ATOM     27  F   UNL     1      -1.603  10.394  19.158  0.00  0.00    +0.000 F 
ENDBRANCH  21  24
ENDBRANCH  17  18
ENDBRANCH   1  17
TORSDOF 10
ENDMDL
MODEL 2
REMARK VINA RESULT:      -7.9      0.478      1.598
REMARK  Name = 
REMARK  11 active torsions:
REMARK  status: ('A' for Active; 'I' for Inactive)
REMARK    1  A    between atoms: C_1  and  C_2
REMARK    2  A    between atoms: C_2  and  N_3
REMARK    3  A    between atoms: N_3  and  C_4
REMARK    4  A    between atoms: N_3  and  C_24
REMARK    5  A    between atoms: C_4  and  C_5
REMARK    6  A    between atoms: C_5  and  C_6
REMARK    7  A    between atoms: C_6  and  O_7
REMARK    8  A    between atoms: C_6  and  C_18
REMARK    9  A    between atoms: O_7  and  C_8
REMARK   10  A    between atoms: C_11  and  C_12
REMARK   11  A    between atoms: C_24  and  C_25
REMARK                            x       y       z     vdW  Elec       q    Type
REMARK                         _______ _______ _______ _____ _____    ______ ____
ROOT
ATOM      1  C   UNL     1       3.891   5.458  19.526  0.00  0.00    +0.000 C 
ENDROOT
BRANCH   1   2
ATOM      2  C   UNL     1       2.821   4.376  19.643  0.00  0.00    +0.000 A 
ATOM      3  C   UNL     1       2.192   3.869  18.499  0.00  0.00    +0.000 A 
ATOM      4  C   UNL     1       1.142   2.954  18.608  0.00  0.00    +0.000 A 
ATOM      5  C   UNL     1       0.694   2.545  19.864  0.00  0.00    +0.000 A 
ATOM      6  C   UNL     1       1.304   3.033  21.014  0.00  0.00    +0.000 A 
ATOM      7  C   UNL     1       2.357   3.948  20.907  0.00  0.00    +0.000 A 
ENDBRANCH   1   2
BRANCH   1   8
ATOM      8  C   UNL     1       5.223   4.733  19.257  0.00  0.00    +0.000 C 
BRANCH   8   9
ATOM      9  C   UNL     1       5.434   4.183  17.836  0.00  0.00    +0.000 C 
BRANCH   9  10
ATOM     10  N   UNL     1       6.607   4.849  17.218  0.00  0.00    +0.000 NA
BRANCH  10  12
ATOM     11  C   UNL     1       7.401   7.282  17.492  0.00  0.00    +0.000 C 
ATOM     12  C   UNL     1       7.217   5.891  18.093  0.00  0.00    +0.000 C 
ENDBRANCH  10  12
BRANCH  10  13
ATOM     13  C   UNL     1       6.224   5.559  15.946  0.00  0.00    +0.000 C 
BRANCH  13  14
ATOM     14  C   UNL     1       6.892   4.867  14.728  0.00  0.00    +0.000 C 
ATOM     15  O   UNL     1       7.896   5.414  14.222  0.00  0.00    +0.000 OA
ATOM     16  O   UNL     1       6.278   3.799  14.371  0.00  0.00    +0.000 OA
ENDBRANCH  13  14
ENDBRANCH  10  13
ENDBRANCH   9  10
ENDBRANCH   8   9
ENDBRANCH   1   8
BRANCH   1  17
ATOM     17  O   UNL     1       3.565   6.365  18.463  0.00  0.00    +0.000 OA
BRANCH  17  18
ATOM     18  C   UNL     1       2.674   7.379  18.737  0.00  0.00    +0.000 A 
ATOM     19  C   UNL     1       2.062   7.620  19.970  0.00  0.00    +0.000 A 
ATOM     20  C   UNL     1       1.262   8.743  20.161  0.00  0.00    +0.000 A 
ATOM     21  C   UNL     1       1.037   9.652  19.127  0.00  0.00    +0.000 A 
ATOM     22  C   UNL     1       1.587   9.377  17.861  0.00  0.00    +0.000 A 
ATOM     23  C   UNL     1       2.404   8.254  17.675  0.00  0.00    +0.000 A 
BRANCH  21  24
ATOM     24  C   UNL     1       0.254  10.919  19.369  0.00  0.00    +0.000 C 
ATOM     25  F   UNL     1      -0.407  11.364  18.265  0.00  0.00    +0.000 F 
ATOM     26  F   UNL     1      -0.697  10.761  20.330  0.00  0.00    +0.000 F 
ATOM     27  F   UNL     1       1.034  11.957  19.780  0.00  0.00    +0.000 F 
ENDBRANCH  21  24
ENDBRANCH  17  18
ENDBRANCH   1  17
TORSDOF 10
ENDMDL
MODEL 3
REMARK VINA RESULT:      -7.7      0.611      1.351
REMARK  Name = 
REMARK  11 active torsions:
REMARK  status: ('A' for Active; 'I' for Inactive)
REMARK    1  A    between atoms: C_1  and  C_2
REMARK    2  A    between atoms: C_2  and  N_3
REMARK    3  A    between atoms: N_3  and  C_4
REMARK    4  A    between atoms: N_3  and  C_24
REMARK    5  A    between atoms: C_4  and  C_5
REMARK    6  A    between atoms: C_5  and  C_6
REMARK    7  A    between atoms: C_6  and  O_7
REMARK    8  A    between atoms: C_6  and  C_18
REMARK    9  A    between atoms: O_7  and  C_8
REMARK   10  A    between atoms: C_11  and  C_12
REMARK   11  A    between atoms: C_24  and  C_25
REMARK                            x       y       z     vdW  Elec       q    Type
REMARK                         _______ _______ _______ _____ _____    ______ ____
ROOT
ATOM      1  C   UNL     1       3.717   5.848  19.013  0.00  0.00    +0.000 C 
ENDROOT
BRANCH   1   2
ATOM      2  C   UNL     1       2.630   4.798  19.229  0.00  0.00    +0.000 A 
ATOM      3  C   UNL     1       2.262   4.411  20.524  0.00  0.00    +0.000 A 
ATOM      4  C   UNL     1       1.342   3.379  20.725  0.00  0.00    +0.000 A 
ATOM      5  C   UNL     1       0.790   2.707  19.635  0.00  0.00    +0.000 A 
ATOM      6  C   UNL     1       1.140   3.075  18.341  0.00  0.00    +0.000 A 
ATOM      7  C   UNL     1       2.058   4.110  18.136  0.00  0.00    +0.000 A 
ENDBRANCH   1   2
BRANCH   1   8
ATOM      8  C   UNL     1       4.923   5.113  18.398  0.00  0.00    +0.000 C 
BRANCH   8   9
ATOM      9  C   UNL     1       6.313   5.706  18.687  0.00  0.00    +0.000 C 
BRANCH   9  10
ATOM     10  N   UNL     1       6.970   6.068  17.407  0.00  0.00    +0.000 NA
BRANCH  10  12
ATOM     11  C   UNL     1       8.288   8.036  18.413  0.00  0.00    +0.000 C 
ATOM     12  C   UNL     1       7.352   7.507  17.331  0.00  0.00    +0.000 C 
ENDBRANCH  10  12
BRANCH  10  13
ATOM     13  C   UNL     1       6.054   5.827  16.236  0.00  0.00    +0.000 C 
BRANCH  13  14
ATOM     14  C   UNL     1       6.718   4.846  15.233  0.00  0.00    +0.000 C 
ATOM     15  O   UNL     1       6.264   3.684  15.163  0.00  0.00    +0.000 OA
ATOM     16  O   UNL     1       7.705   5.375  14.608  0.00  0.00    +0.000 OA
ENDBRANCH  13  14
ENDBRANCH  10  13
ENDBRANCH   9  10
ENDBRANCH   8   9
ENDBRANCH   1   8
BRANCH   1  17
ATOM     17  O   UNL     1       3.239   6.885  18.144  0.00  0.00    +0.000 OA
BRANCH  17  18
ATOM     18  C   UNL     1       2.330   7.783  18.659  0.00  0.00    +0.000 A 
ATOM     19  C   UNL     1       1.943   7.878  19.998  0.00  0.00    +0.000 A 
ATOM     20  C   UNL     1       1.098   8.900  20.424  0.00  0.00    +0.000 A 
ATOM     21  C   UNL     1       0.603   9.846  19.528  0.00  0.00    +0.000 A 
ATOM     22  C   UNL     1       0.926   9.713  18.165  0.00  0.00    +0.000 A 
ATOM     23  C   UNL     1       1.789   8.694  17.741  0.00  0.00    +0.000 A 
BRANCH  21  24
ATOM     24  C   UNL     1      -0.229  11.009  20.013  0.00  0.00    +0.000 C 
ATOM     25  F   UNL     1      -0.539  10.934  21.337  0.00  0.00    +0.000 F 
ATOM     26  F   UNL     1       0.407  12.201  19.850  0.00  0.00    +0.000 F 
ATOM     27  F   UNL     1      -1.416  11.125  19.357  0.00  0.00    +0.000 F 
ENDBRANCH  21  24
ENDBRANCH  17  18
ENDBRANCH   1  17
TORSDOF 10
ENDMDL
MODEL 4
REMARK VINA RESULT:      -7.7      2.250      4.595
REMARK  Name = 
REMARK  11 active torsions:
REMARK  status: ('A' for Active; 'I' for Inactive)
REMARK    1  A    between atoms: C_1  and  C_2
REMARK    2  A    between atoms: C_2  and  N_3
REMARK    3  A    between atoms: N_3  and  C_4
REMARK    4  A    between atoms: N_3  and  C_24
REMARK    5  A    between atoms: C_4  and  C_5
REMARK    6  A    between atoms: C_5  and  C_6
REMARK    7  A    between atoms: C_6  and  O_7
REMARK    8  A    between atoms: C_6  and  C_18
REMARK    9  A    between atoms: O_7  and  C_8
REMARK   10  A    between atoms: C_11  and  C_12
REMARK   11  A    between atoms: C_24  and  C_25
REMARK                            x       y       z     vdW  Elec       q    Type
REMARK                         _______ _______ _______ _____ _____    ______ ____
ROOT
ATOM      1  C   UNL     1       3.842   5.692  17.867  0.00  0.00    +0.000 C 
ENDROOT
BRANCH   1   2
ATOM      2  C   UNL     1       5.330   6.007  18.000  0.00  0.00    +0.000 A 
ATOM      3  C   UNL     1       6.105   5.378  18.982  0.00  0.00    +0.000 A 
ATOM      4  C   UNL     1       7.442   5.737  19.173  0.00  0.00    +0.000 A 
ATOM      5  C   UNL     1       8.017   6.744  18.398  0.00  0.00    +0.000 A 
ATOM      6  C   UNL     1       7.266   7.381  17.417  0.00  0.00    +0.000 A 
ATOM      7  C   UNL     1       5.929   7.021  17.221  0.00  0.00    +0.000 A 
ENDBRANCH   1   2
BRANCH   1   8
ATOM      8  C   UNL     1       3.730   4.170  17.666  0.00  0.00    +0.000 C 
BRANCH   8   9
ATOM      9  C   UNL     1       2.331   3.553  17.831  0.00  0.00    +0.000 C 
BRANCH   9  10
ATOM     10  N   UNL     1       2.305   2.707  19.050  0.00  0.00    +0.000 NA
BRANCH  10  12
ATOM     11  C   UNL     1       1.359   3.226  21.386  0.00  0.00    +0.000 C 
ATOM     12  C   UNL     1       1.109   2.950  19.906  0.00  0.00    +0.000 C 
ENDBRANCH  10  12
BRANCH  10  13
ATOM     13  C   UNL     1       3.498   2.980  19.928  0.00  0.00    +0.000 C 
BRANCH  13  14
ATOM     14  C   UNL     1       4.430   1.740  19.962  0.00  0.00    +0.000 C 
ATOM     15  O   UNL     1       4.379   0.943  19.001  0.00  0.00    +0.000 OA
ATOM     16  O   UNL     1       5.134   1.683  21.033  0.00  0.00    +0.000 OA
ENDBRANCH  13  14
ENDBRANCH  10  13
ENDBRANCH   9  10
ENDBRANCH   8   9
ENDBRANCH   1   8
BRANCH   1  17
ATOM     17  O   UNL     1       3.138   6.118  19.042  0.00  0.00    +0.000 OA
BRANCH  17  18
ATOM     18  C   UNL     1       2.486   7.330  18.996  0.00  0.00    +0.000 A 
ATOM     19  C   UNL     1       2.381   8.160  17.875  0.00  0.00    +0.000 A 
ATOM     20  C   UNL     1       1.602   9.313  17.914  0.00  0.00    +0.000 A 
ATOM     21  C   UNL     1       0.917   9.681  19.071  0.00  0.00    +0.000 A 
ATOM     22  C   UNL     1       1.078   8.894  20.226  0.00  0.00    +0.000 A 
ATOM     23  C   UNL     1       1.850   7.725  20.181  0.00  0.00    +0.000 A 
BRANCH  21  24
ATOM     24  C   UNL     1      -0.007  10.876  19.076  0.00  0.00    +0.000 C 
ATOM     25  F   UNL     1      -0.456  11.205  20.318  0.00  0.00    +0.000 F 
ATOM     26  F   UNL     1       0.598  11.996  18.593  0.00  0.00    +0.000 F 
ATOM     27  F   UNL     1      -1.119  10.692  18.313  0.00  0.00    +0.000 F 
ENDBRANCH  21  24
ENDBRANCH  17  18
ENDBRANCH   1  17
TORSDOF 10
ENDMDL
MODEL 5
REMARK VINA RESULT:      -7.6      1.659      2.235
REMARK  Name = 
REMARK  11 active torsions:
REMARK  status: ('A' for Active; 'I' for Inactive)
REMARK    1  A    between atoms: C_1  and  C_2
REMARK    2  A    between atoms: C_2  and  N_3
REMARK    3  A    between atoms: N_3  and  C_4
REMARK    4  A    between atoms: N_3  and  C_24
REMARK    5  A    between atoms: C_4  and  C_5
REMARK    6  A    between atoms: C_5  and  C_6
REMARK    7  A    between atoms: C_6  and  O_7
REMARK    8  A    between atoms: C_6  and  C_18
REMARK    9  A    between atoms: O_7  and  C_8
REMARK   10  A    between atoms: C_11  and  C_12
REMARK   11  A    between atoms: C_24  and  C_25
REMARK                            x       y       z     vdW  Elec       q    Type
REMARK                         _______ _______ _______ _____ _____    ______ ____
ROOT
ATOM      1  C   UNL     1       3.337   6.024  19.006  0.00  0.00    +0.000 C 
ENDROOT
BRANCH   1   2
ATOM      2  C   UNL     1       2.364   4.866  19.215  0.00  0.00    +0.000 A 
ATOM      3  C   UNL     1       1.966   4.495  20.506  0.00  0.00    +0.000 A 
ATOM      4  C   UNL     1       1.158   3.374  20.708  0.00  0.00    +0.000 A 
ATOM      5  C   UNL     1       0.748   2.597  19.624  0.00  0.00    +0.000 A 
ATOM      6  C   UNL     1       1.130   2.948  18.333  0.00  0.00    +0.000 A 
ATOM      7  C   UNL     1       1.937   4.072  18.128  0.00  0.00    +0.000 A 
ENDBRANCH   1   2
BRANCH   1   8
ATOM      8  C   UNL     1       4.634   5.413  18.443  0.00  0.00    +0.000 C 
BRANCH   8   9
ATOM      9  C   UNL     1       5.376   6.233  17.375  0.00  0.00    +0.000 C 
BRANCH   9  10
ATOM     10  N   UNL     1       6.598   5.505  16.954  0.00  0.00    +0.000 NA
BRANCH  10  12
ATOM     11  C   UNL     1       5.677   4.855  14.641  0.00  0.00    +0.000 C 
ATOM     12  C   UNL     1       6.327   4.432  15.955  0.00  0.00    +0.000 C 
ENDBRANCH  10  12
BRANCH  10  13
ATOM     13  C   UNL     1       7.252   4.816  18.123  0.00  0.00    +0.000 C 
BRANCH  13  14
ATOM     14  C   UNL     1       7.795   5.868  19.127  0.00  0.00    +0.000 C 
ATOM     15  O   UNL     1       8.260   6.932  18.664  0.00  0.00    +0.000 OA
ATOM     16  O   UNL     1       7.717   5.473  20.344  0.00  0.00    +0.000 OA
ENDBRANCH  13  14
ENDBRANCH  10  13
ENDBRANCH   9  10
ENDBRANCH   8   9
ENDBRANCH   1   8
BRANCH   1  17
ATOM     17  O   UNL     1       2.777   6.986  18.102  0.00  0.00    +0.000 OA
BRANCH  17  18
ATOM     18  C   UNL     1       2.076   8.041  18.643  0.00  0.00    +0.000 A 
ATOM     19  C   UNL     1       1.544   9.121  17.931  0.00  0.00    +0.000 A 
ATOM     20  C   UNL     1       0.757  10.076  18.569  0.00  0.00    +0.000 A 
ATOM     21  C   UNL     1       0.488   9.992  19.935  0.00  0.00    +0.000 A 
ATOM     22  C   UNL     1       1.081   8.952  20.673  0.00  0.00    +0.000 A 
ATOM     23  C   UNL     1       1.861   7.983  20.027  0.00  0.00    +0.000 A 
BRANCH  21  24
ATOM     24  C   UNL     1      -0.449  10.972  20.599  0.00  0.00    +0.000 C 
ATOM     25  F   UNL     1       0.118  12.189  20.828  0.00  0.00    +0.000 F 
ATOM     26  F   UNL     1      -1.556  11.217  19.846  0.00  0.00    +0.000 F 
ATOM     27  F   UNL     1      -0.905  10.539  21.806  0.00  0.00    +0.000 F 
ENDBRANCH  21  24
ENDBRANCH  17  18
ENDBRANCH   1  17
TORSDOF 10
ENDMDL
MODEL 6
REMARK VINA RESULT:      -7.6      0.750      1.348
REMARK  Name = 
REMARK  11 active torsions:
REMARK  status: ('A' for Active; 'I' for Inactive)
REMARK    1  A    between atoms: C_1  and  C_2
REMARK    2  A    between atoms: C_2  and  N_3
REMARK    3  A    between atoms: N_3  and  C_4
REMARK    4  A    between atoms: N_3  and  C_24
REMARK    5  A    between atoms: C_4  and  C_5
REMARK    6  A    between atoms: C_5  and  C_6
REMARK    7  A    between atoms: C_6  and  O_7
REMARK    8  A    between atoms: C_6  and  C_18
REMARK    9  A    between atoms: O_7  and  C_8
REMARK   10  A    between atoms: C_11  and  C_12
REMARK   11  A    between atoms: C_24  and  C_25
REMARK                            x       y       z     vdW  Elec       q    Type
REMARK                         _______ _______ _______ _____ _____    ______ ____
ROOT
ATOM      1  C   UNL     1       3.847   5.282  19.356  0.00  0.00    +0.000 C 
ENDROOT
BRANCH   1   2
ATOM      2  C   UNL     1       2.770   4.217  19.550  0.00  0.00    +0.000 A 
ATOM      3  C   UNL     1       2.116   3.657  18.445  0.00  0.00    +0.000 A 
ATOM      4  C   UNL     1       1.061   2.758  18.622  0.00  0.00    +0.000 A 
ATOM      5  C   UNL     1       0.633   2.420  19.905  0.00  0.00    +0.000 A 
ATOM      6  C   UNL     1       1.268   2.963  21.017  0.00  0.00    +0.000 A 
ATOM      7  C   UNL     1       2.327   3.861  20.843  0.00  0.00    +0.000 A 
ENDBRANCH   1   2
BRANCH   1   8
ATOM      8  C   UNL     1       5.169   4.532  19.110  0.00  0.00    +0.000 C 
BRANCH   8   9
ATOM      9  C   UNL     1       6.458   5.368  19.171  0.00  0.00    +0.000 C 
BRANCH   9  10
ATOM     10  N   UNL     1       6.981   5.569  17.796  0.00  0.00    +0.000 NA
BRANCH  10  12
ATOM     11  C   UNL     1       7.691   8.028  17.533  0.00  0.00    +0.000 C 
ATOM     12  C   UNL     1       6.680   6.921  17.247  0.00  0.00    +0.000 C 
ENDBRANCH  10  12
BRANCH  10  13
ATOM     13  C   UNL     1       6.364   4.591  16.830  0.00  0.00    +0.000 C 
BRANCH  13  14
ATOM     14  C   UNL     1       6.598   5.064  15.371  0.00  0.00    +0.000 C 
ATOM     15  O   UNL     1       7.773   5.294  15.011  0.00  0.00    +0.000 OA
ATOM     16  O   UNL     1       5.505   5.190  14.713  0.00  0.00    +0.000 OA
ENDBRANCH  13  14
ENDBRANCH  10  13
ENDBRANCH   9  10
ENDBRANCH   8   9
ENDBRANCH   1   8
BRANCH   1  17
ATOM     17  O   UNL     1       3.512   6.129  18.247  0.00  0.00    +0.000 OA
BRANCH  17  18
ATOM     18  C   UNL     1       2.811   7.284  18.512  0.00  0.00    +0.000 A 
ATOM     19  C   UNL     1       2.597   8.335  17.615  0.00  0.00    +0.000 A 
ATOM     20  C   UNL     1       1.776   9.407  17.957  0.00  0.00    +0.000 A 
ATOM     21  C   UNL     1       1.157   9.471  19.205  0.00  0.00    +0.000 A 
ATOM     22  C   UNL     1       1.428   8.456  20.142  0.00  0.00    +0.000 A 
ATOM     23  C   UNL     1       2.241   7.371  19.790  0.00  0.00    +0.000 A 
BRANCH  21  24
ATOM     24  C   UNL     1       0.189  10.582  19.531  0.00  0.00    +0.000 C 
ATOM     25  F   UNL     1      -1.068  10.138  19.810  0.00  0.00    +0.000 F 
ATOM     26  F   UNL     1       0.577  11.300  20.621  0.00  0.00    +0.000 F 
ATOM     27  F   UNL     1       0.051  11.482  18.520  0.00  0.00    +0.000 F 
ENDBRANCH  21  24
ENDBRANCH  17  18
ENDBRANCH   1  17
TORSDOF 10
ENDMDL
MODEL 7
REMARK VINA RESULT:      -7.6      1.192      1.801
REMARK  Name = 
REMARK  11 active torsions:
REMARK  status: ('A' for Active; 'I' for Inactive)
REMARK    1  A    between atoms: C_1  and  C_2
REMARK    2  A    between atoms: C_2  and  N_3
REMARK    3  A    between atoms: N_3  and  C_4
REMARK    4  A    between atoms: N_3  and  C_24
REMARK    5  A    between atoms: C_4  and  C_5
REMARK    6  A    between atoms: C_5  and  C_6
REMARK    7  A    between atoms: C_6  and  O_7
REMARK    8  A    between atoms: C_6  and  C_18
REMARK    9  A    between atoms: O_7  and  C_8
REMARK   10  A    between atoms: C_11  and  C_12
REMARK   11  A    between atoms: C_24  and  C_25
REMARK                            x       y       z     vdW  Elec       q    Type
REMARK                         _______ _______ _______ _____ _____    ______ ____
ROOT
ATOM      1  C   UNL     1       3.011   6.454  19.033  0.00  0.00    +0.000 C 
ENDROOT
BRANCH   1   2
ATOM      2  C   UNL     1       2.300   5.123  19.265  0.00  0.00    +0.000 A 
ATOM      3  C   UNL     1       1.786   4.393  18.186  0.00  0.00    +0.000 A 
ATOM      4  C   UNL     1       1.047   3.227  18.401  0.00  0.00    +0.000 A 
ATOM      5  C   UNL     1       0.796   2.784  19.699  0.00  0.00    +0.000 A 
ATOM      6  C   UNL     1       1.298   3.492  20.786  0.00  0.00    +0.000 A 
ATOM      7  C   UNL     1       2.040   4.658  20.573  0.00  0.00    +0.000 A 
ENDBRANCH   1   2
BRANCH   1   8
ATOM      8  C   UNL     1       4.237   6.151  18.152  0.00  0.00    +0.000 C 
BRANCH   8   9
ATOM      9  C   UNL     1       5.474   5.579  18.864  0.00  0.00    +0.000 C 
BRANCH   9  10
ATOM     10  N   UNL     1       6.648   5.665  17.959  0.00  0.00    +0.000 NA
BRANCH  10  12
ATOM     11  C   UNL     1       7.804   7.944  17.659  0.00  0.00    +0.000 C 
ATOM     12  C   UNL     1       7.679   6.633  18.430  0.00  0.00    +0.000 C 
ENDBRANCH  10  12
BRANCH  10  13
ATOM     13  C   UNL     1       6.245   6.134  16.586  0.00  0.00    +0.000 C 
BRANCH  13  14
ATOM     14  C   UNL     1       6.629   5.069  15.525  0.00  0.00    +0.000 C 
ATOM     15  O   UNL     1       7.804   4.644  15.522  0.00  0.00    +0.000 OA
ATOM     16  O   UNL     1       5.656   4.781  14.741  0.00  0.00    +0.000 OA
ENDBRANCH  13  14
ENDBRANCH  10  13
ENDBRANCH   9  10
ENDBRANCH   8   9
ENDBRANCH   1   8
BRANCH   1  17
ATOM     17  O   UNL     1       2.125   7.385  18.395  0.00  0.00    +0.000 OA
BRANCH  17  18
ATOM     18  C   UNL     1       1.618   8.413  19.157  0.00  0.00    +0.000 A 
ATOM     19  C   UNL     1       1.174   9.648  18.674  0.00  0.00    +0.000 A 
ATOM     20  C   UNL     1       0.576  10.572  19.527  0.00  0.00    +0.000 A 
ATOM     21  C   UNL     1       0.416  10.302  20.885  0.00  0.00    +0.000 A 
ATOM     22  C   UNL     1       0.929   9.094  21.394  0.00  0.00    +0.000 A 
ATOM     23  C   UNL     1       1.516   8.158  20.532  0.00  0.00    +0.000 A 
BRANCH  21  24
ATOM     24  C   UNL     1      -0.323  11.264  21.783  0.00  0.00    +0.000 C 
ATOM     25  F   UNL     1       0.231  12.508  21.813  0.00  0.00    +0.000 F 
ATOM     26  F   UNL     1      -1.614  11.445  21.391  0.00  0.00    +0.000 F 
ATOM     27  F   UNL     1      -0.380  10.849  23.078  0.00  0.00    +0.000 F 
ENDBRANCH  21  24
ENDBRANCH  17  18
ENDBRANCH   1  17
TORSDOF 10
ENDMDL
MODEL 8
REMARK VINA RESULT:      -7.6      4.533      7.462
REMARK  Name = 
REMARK  11 active torsions:
REMARK  status: ('A' for Active; 'I' for Inactive)
REMARK    1  A    between atoms: C_1  and  C_2
REMARK    2  A    between atoms: C_2  and  N_3
REMARK    3  A    between atoms: N_3  and  C_4
REMARK    4  A    between atoms: N_3  and  C_24
REMARK    5  A    between atoms: C_4  and  C_5
REMARK    6  A    between atoms: C_5  and  C_6
REMARK    7  A    between atoms: C_6  and  O_7
REMARK    8  A    between atoms: C_6  and  C_18
REMARK    9  A    between atoms: O_7  and  C_8
REMARK   10  A    between atoms: C_11  and  C_12
REMARK   11  A    between atoms: C_24  and  C_25
REMARK                            x       y       z     vdW  Elec       q    Type
REMARK                         _______ _______ _______ _____ _____    ______ ____
ROOT
ATOM      1  C   UNL     1       2.342   6.322  19.328  0.00  0.00    +0.000 C 
ENDROOT
BRANCH   1   2
ATOM      2  C   UNL     1       1.988   4.875  19.662  0.00  0.00    +0.000 A 
ATOM      3  C   UNL     1       1.456   4.028  18.680  0.00  0.00    +0.000 A 
ATOM      4  C   UNL     1       1.036   2.736  19.006  0.00  0.00    +0.000 A 
ATOM      5  C   UNL     1       1.124   2.278  20.320  0.00  0.00    +0.000 A 
ATOM      6  C   UNL     1       1.649   3.101  21.310  0.00  0.00    +0.000 A 
ATOM      7  C   UNL     1       2.073   4.394  20.987  0.00  0.00    +0.000 A 
ENDBRANCH   1   2
BRANCH   1   8
ATOM      8  C   UNL     1       1.731   7.193  20.441  0.00  0.00    +0.000 C 
BRANCH   8   9
ATOM      9  C   UNL     1       1.865   8.716  20.276  0.00  0.00    +0.000 C 
BRANCH   9  10
ATOM     10  N   UNL     1       0.515   9.321  20.164  0.00  0.00    +0.000 NA
BRANCH  10  12
ATOM     11  C   UNL     1      -1.031  10.204  18.305  0.00  0.00    +0.000 C 
ATOM     12  C   UNL     1       0.352  10.168  18.948  0.00  0.00    +0.000 C 
ENDBRANCH  10  12
BRANCH  10  13
ATOM     13  C   UNL     1       0.223  10.226  21.332  0.00  0.00    +0.000 C 
BRANCH  13  14
ATOM     14  C   UNL     1      -0.153   9.381  22.579  0.00  0.00    +0.000 C 
ATOM     15  O   UNL     1      -0.914   8.404  22.415  0.00  0.00    +0.000 OA
ATOM     16  O   UNL     1       0.365   9.840  23.658  0.00  0.00    +0.000 OA
ENDBRANCH  13  14
ENDBRANCH  10  13
ENDBRANCH   9  10
ENDBRANCH   8   9
ENDBRANCH   1   8
BRANCH   1  17
ATOM     17  O   UNL     1       3.767   6.481  19.262  0.00  0.00    +0.000 OA
BRANCH  17  18
ATOM     18  C   UNL     1       4.420   5.956  18.169  0.00  0.00    +0.000 A 
ATOM     19  C   UNL     1       4.961   4.670  18.080  0.00  0.00    +0.000 A 
ATOM     20  C   UNL     1       5.504   4.208  16.883  0.00  0.00    +0.000 A 
ATOM     21  C   UNL     1       5.535   5.015  15.747  0.00  0.00    +0.000 A 
ATOM     22  C   UNL     1       5.062   6.337  15.849  0.00  0.00    +0.000 A 
ATOM     23  C   UNL     1       4.503   6.795  17.049  0.00  0.00    +0.000 A 
BRANCH  21  24
ATOM     24  C   UNL     1       6.030   4.474  14.427  0.00  0.00    +0.000 C 
ATOM     25  F   UNL     1       6.647   3.265  14.538  0.00  0.00    +0.000 F 
ATOM     26  F   UNL     1       5.019   4.291  13.534  0.00  0.00    +0.000 F 
ATOM     27  F   UNL     1       6.926   5.296  13.816  0.00  0.00    +0.000 F 
ENDBRANCH  21  24
ENDBRANCH  17  18
ENDBRANCH   1  17
TORSDOF 10
ENDMDL
MODEL 9
REMARK VINA RESULT:      -7.5      1.634      2.795
REMARK  Name = 
REMARK  11 active torsions:
REMARK  status: ('A' for Active; 'I' for Inactive)
REMARK    1  A    between atoms: C_1  and  C_2
REMARK    2  A    between atoms: C_2  and  N_3
REMARK    3  A    between atoms: N_3  and  C_4
REMARK    4  A    between atoms: N_3  and  C_24
REMARK    5  A    between atoms: C_4  and  C_5
REMARK    6  A    between atoms: C_5  and  C_6
REMARK    7  A    between atoms: C_6  and  O_7
REMARK    8  A    between atoms: C_6  and  C_18
REMARK    9  A    between atoms: O_7  and  C_8
REMARK   10  A    between atoms: C_11  and  C_12
REMARK   11  A    between atoms: C_24  and  C_25
REMARK                            x       y       z     vdW  Elec       q    Type
REMARK                         _______ _______ _______ _____ _____    ______ ____
ROOT
ATOM      1  C   UNL     1       4.331   4.188  18.569  0.00  0.00    +0.000 C 
ENDROOT
BRANCH   1   2
ATOM      2  C   UNL     1       3.037   3.563  19.085  0.00  0.00    +0.000 A 
ATOM      3  C   UNL     1       1.931   3.414  18.239  0.00  0.00    +0.000 A 
ATOM      4  C   UNL     1       0.714   2.938  18.733  0.00  0.00    +0.000 A 
ATOM      5  C   UNL     1       0.580   2.620  20.085  0.00  0.00    +0.000 A 
ATOM      6  C   UNL     1       1.666   2.759  20.943  0.00  0.00    +0.000 A 
ATOM      7  C   UNL     1       2.886   3.232  20.450  0.00  0.00    +0.000 A 
ENDBRANCH   1   2
BRANCH   1   8
ATOM      8  C   UNL     1       4.173   4.328  17.043  0.00  0.00    +0.000 C 
BRANCH   8   9
ATOM      9  C   UNL     1       5.336   3.811  16.179  0.00  0.00    +0.000 C 
BRANCH   9  10
ATOM     10  N   UNL     1       6.239   4.940  15.841  0.00  0.00    +0.000 NA
BRANCH  10  12
ATOM     11  C   UNL     1       6.199   3.805  13.532  0.00  0.00    +0.000 C 
ATOM     12  C   UNL     1       6.816   4.838  14.470  0.00  0.00    +0.000 C 
ENDBRANCH  10  12
BRANCH  10  13
ATOM     13  C   UNL     1       7.418   4.994  16.777  0.00  0.00    +0.000 C 
BRANCH  13  14
ATOM     14  C   UNL     1       7.417   6.334  17.559  0.00  0.00    +0.000 C 
ATOM     15  O   UNL     1       7.819   6.321  18.742  0.00  0.00    +0.000 OA
ATOM     16  O   UNL     1       6.954   7.308  16.865  0.00  0.00    +0.000 OA
ENDBRANCH  13  14
ENDBRANCH  10  13
ENDBRANCH   9  10
ENDBRANCH   8   9
ENDBRANCH   1   8
BRANCH   1  17
ATOM     17  O   UNL     1       4.549   5.462  19.191  0.00  0.00    +0.000 OA
BRANCH  17  18
ATOM     18  C   UNL     1       3.562   6.414  19.067  0.00  0.00    +0.000 A 
ATOM     19  C   UNL     1       2.590   6.714  20.025  0.00  0.00    +0.000 A 
ATOM     20  C   UNL     1       1.708   7.775  19.836  0.00  0.00    +0.000 A 
ATOM     21  C   UNL     1       1.760   8.559  18.684  0.00  0.00    +0.000 A 
ATOM     22  C   UNL     1       2.684   8.217  17.680  0.00  0.00    +0.000 A 
ATOM     23  C   UNL     1       3.581   7.158  17.879  0.00  0.00    +0.000 A 
BRANCH  21  24
ATOM     24  C   UNL     1       0.870   9.769  18.532  0.00  0.00    +0.000 C 
ATOM     25  F   UNL     1      -0.084   9.620  17.572  0.00  0.00    +0.000 F 
ATOM     26  F   UNL     1       0.197  10.060  19.679  0.00  0.00    +0.000 F 
ATOM     27  F   UNL     1       1.557  10.897  18.204  0.00  0.00    +0.000 F 
ENDBRANCH  21  24
ENDBRANCH  17  18
ENDBRANCH   1  17
TORSDOF 10
ENDMDL
