MODEL 1
REMARK VINA RESULT:      -7.6      0.000      0.000
REMARK  Name = 
REMARK  5 active torsions:
REMARK  status: ('A' for Active; 'I' for Inactive)
REMARK    1  A    between atoms: C_1  and  C_2
REMARK    2  A    between atoms: C_2  and  C_3
REMARK    3  A    between atoms: C_3  and  S_4
REMARK    4  A    between atoms: S_4  and  C_7
REMARK    5  A    between atoms: C_17  and  C_18
REMARK                            x       y       z     vdW  Elec       q    Type
REMARK                         _______ _______ _______ _____ _____    ______ ____
ROOT
ATOM      1  C   UNL     1       2.769   5.926  18.838  0.00  0.00    +0.000 A 
ATOM      2  C   UNL     1       2.196   5.578  20.068  0.00  0.00    +0.000 A 
ATOM      3  C   UNL     1       1.539   6.538  20.849  0.00  0.00    +0.000 A 
ATOM      4  C   UNL     1       1.485   7.831  20.331  0.00  0.00    +0.000 A 
ATOM      5  N   UNL     1       0.942   8.999  20.803  0.00  0.00    +0.000 N 
ATOM      6  C   UNL     1       1.112   9.978  19.856  0.00  0.00    +0.000 A 
ATOM      7  N   UNL     1       0.558  11.206  19.968  0.00  0.00    +0.000 N 
ATOM      8  C   UNL     1       0.039  11.815  21.186  0.00  0.00    +0.000 C 
ATOM      9  C   UNL     1      -1.257  12.609  20.910  0.00  0.00    +0.000 C 
ATOM     10  O   UNL     1      -1.246  13.405  19.713  0.00  0.00    +0.000 OA
ATOM     11  C   UNL     1      -0.824  12.657  18.543  0.00  0.00    +0.000 C 
ATOM     12  C   UNL     1       0.602  12.114  18.813  0.00  0.00    +0.000 C 
ATOM     13  N   UNL     1       1.793   9.511  18.833  0.00  0.00    +0.000 NA
ATOM     14  C   UNL     1       2.034   8.190  19.107  0.00  0.00    +0.000 A 
ATOM     15  C   UNL     1       2.704   7.233  18.337  0.00  0.00    +0.000 A 
ATOM     16  H   UNL     1       0.434   9.099  21.664  0.00  0.00    +0.000 HD
ENDROOT
BRANCH  11  17
ATOM     17  C   UNL     1      -1.868  11.632  18.092  0.00  0.00    +0.000 A 
ATOM     18  C   UNL     1      -1.481  10.494  17.365  0.00  0.00    +0.000 A 
ATOM     19  C   UNL     1      -2.430   9.569  16.916  0.00  0.00    +0.000 A 
ATOM     20  C   UNL     1      -3.779   9.749  17.211  0.00  0.00    +0.000 A 
ATOM     21  C   UNL     1      -4.177  10.845  17.967  0.00  0.00    +0.000 A 
ATOM     22  C   UNL     1      -3.232  11.770  18.411  0.00  0.00    +0.000 A 
ENDBRANCH  11  17
BRANCH   1  23
ATOM     23  S   UNL     1       3.631   4.697  17.886  0.00  0.00    +0.000 S 
ATOM     24  O   UNL     1       4.395   3.888  18.818  0.00  0.00    +0.000 OA
ATOM     25  O   UNL     1       4.281   5.396  16.796  0.00  0.00    +0.000 OA
BRANCH  23  26
ATOM     26  C   UNL     1       2.334   3.671  17.216  0.00  0.00    +0.000 C 
BRANCH  26  28
ATOM     27  C   UNL     1       0.895   2.373  18.817  0.00  0.00    +0.000 C 
ATOM     28  C   UNL     1       2.184   2.380  18.012  0.00  0.00    +0.000 C 
ENDBRANCH  26  28
ENDBRANCH  23  26
ENDBRANCH   1  23
TORSDOF 4
ENDMDL
MODEL 2
REMARK VINA RESULT:      -7.5      3.103      8.305
REMARK  Name = 
REMARK  5 active torsions:
REMARK  status: ('A' for Active; 'I' for Inactive)
REMARK    1  A    between atoms: C_1  and  C_2
REMARK    2  A    between atoms: C_2  and  C_3
REMARK    3  A    between atoms: C_3  and  S_4
REMARK    4  A    between atoms: S_4  and  C_7
REMARK    5  A    between atoms: C_17  and  C_18
REMARK                            x       y       z     vdW  Elec       q    Type
REMARK                         _______ _______ _______ _____ _____    ______ ____
ROOT
ATOM      1  C   UNL     1       0.917  10.380  19.911  0.00  0.00    +0.000 A 
ATOM      2  C   UNL     1       1.085   9.982  21.243  0.00  0.00    +0.000 A 
ATOM      3  C   UNL     1       1.550   8.697  21.554  0.00  0.00    +0.000 A 
ATOM      4  C   UNL     1       1.837   7.861  20.475  0.00  0.00    +0.000 A 
ATOM      5  N   UNL     1       2.297   6.571  20.396  0.00  0.00    +0.000 N 
ATOM      6  C   UNL     1       2.473   6.246  19.075  0.00  0.00    +0.000 A 
ATOM      7  N   UNL     1       3.051   5.091  18.678  0.00  0.00    +0.000 N 
ATOM      8  C   UNL     1       3.235   3.891  19.484  0.00  0.00    +0.000 C 
ATOM      9  C   UNL     1       4.604   3.232  19.210  0.00  0.00    +0.000 C 
ATOM     10  O   UNL     1       4.992   3.177  17.827  0.00  0.00    +0.000 OA
ATOM     11  C   UNL     1       4.878   4.460  17.158  0.00  0.00    +0.000 C 
ATOM     12  C   UNL     1       3.403   4.922  17.261  0.00  0.00    +0.000 C 
ATOM     13  N   UNL     1       2.088   7.240  18.305  0.00  0.00    +0.000 NA
ATOM     14  C   UNL     1       1.691   8.244  19.149  0.00  0.00    +0.000 A 
ATOM     15  C   UNL     1       1.210   9.522  18.842  0.00  0.00    +0.000 A 
ATOM     16  H   UNL     1       2.539   5.989  21.179  0.00  0.00    +0.000 HD
ENDROOT
BRANCH  11  17
ATOM     17  C   UNL     1       5.939   5.463  17.624  0.00  0.00    +0.000 A 
ATOM     18  C   UNL     1       5.970   6.763  17.095  0.00  0.00    +0.000 A 
ATOM     19  C   UNL     1       6.955   7.676  17.486  0.00  0.00    +0.000 A 
ATOM     20  C   UNL     1       7.909   7.315  18.434  0.00  0.00    +0.000 A 
ATOM     21  C   UNL     1       7.868   6.048  19.002  0.00  0.00    +0.000 A 
ATOM     22  C   UNL     1       6.888   5.135  18.609  0.00  0.00    +0.000 A 
ENDBRANCH  11  17
BRANCH   1  23
ATOM     23  S   UNL     1       0.288  12.001  19.546  0.00  0.00    +0.000 S 
ATOM     24  O   UNL     1       0.859  12.408  18.275  0.00  0.00    +0.000 OA
ATOM     25  O   UNL     1       0.479  12.800  20.740  0.00  0.00    +0.000 OA
BRANCH  23  26
ATOM     26  C   UNL     1      -1.460  11.750  19.299  0.00  0.00    +0.000 C 
BRANCH  26  28
ATOM     27  C   UNL     1      -2.069  10.202  17.414  0.00  0.00    +0.000 C 
ATOM     28  C   UNL     1      -1.799  11.642  17.817  0.00  0.00    +0.000 C 
ENDBRANCH  26  28
ENDBRANCH  23  26
ENDBRANCH   1  23
TORSDOF 4
ENDMDL
MODEL 3
REMARK VINA RESULT:      -7.5      1.372      1.829
REMARK  Name = 
REMARK  5 active torsions:
REMARK  status: ('A' for Active; 'I' for Inactive)
REMARK    1  A    between atoms: C_1  and  C_2
REMARK    2  A    between atoms: C_2  and  C_3
REMARK    3  A    between atoms: C_3  and  S_4
REMARK    4  A    between atoms: S_4  and  C_7
REMARK    5  A    between atoms: C_17  and  C_18
REMARK                            x       y       z     vdW  Elec       q    Type
REMARK                         _______ _______ _______ _____ _____    ______ ____
ROOT
ATOM      1  C   UNL     1       2.621   5.371  18.747  0.00  0.00    +0.000 A 
ATOM      2  C   UNL     1       2.050   5.058  19.987  0.00  0.00    +0.000 A 
ATOM      3  C   UNL     1       1.508   6.062  20.800  0.00  0.00    +0.000 A 
ATOM      4  C   UNL     1       1.564   7.364  20.302  0.00  0.00    +0.000 A 
ATOM      5  N   UNL     1       1.146   8.569  20.806  0.00  0.00    +0.000 N 
ATOM      6  C   UNL     1       1.383   9.544  19.869  0.00  0.00    +0.000 A 
ATOM      7  N   UNL     1       0.951  10.816  20.014  0.00  0.00    +0.000 N 
ATOM      8  C   UNL     1       0.525  11.452  21.255  0.00  0.00    +0.000 C 
ATOM      9  C   UNL     1      -0.697  12.368  21.027  0.00  0.00    +0.000 C 
ATOM     10  O   UNL     1      -0.642  13.180  19.842  0.00  0.00    +0.000 OA
ATOM     11  C   UNL     1      -0.324  12.416  18.649  0.00  0.00    +0.000 C 
ATOM     12  C   UNL     1       1.050  11.736  18.872  0.00  0.00    +0.000 C 
ATOM     13  N   UNL     1       1.990   9.032  18.821  0.00  0.00    +0.000 NA
ATOM     14  C   UNL     1       2.112   7.690  19.069  0.00  0.00    +0.000 A 
ATOM     15  C   UNL     1       2.667   6.687  18.267  0.00  0.00    +0.000 A 
ATOM     16  H   UNL     1       0.673   8.703  21.683  0.00  0.00    +0.000 HD
ENDROOT
BRANCH  11  17
ATOM     17  C   UNL     1      -1.472  11.501  18.213  0.00  0.00    +0.000 A 
ATOM     18  C   UNL     1      -1.215  10.348  17.454  0.00  0.00    +0.000 A 
ATOM     19  C   UNL     1      -2.259   9.524  17.019  0.00  0.00    +0.000 A 
ATOM     20  C   UNL     1      -3.576   9.823  17.359  0.00  0.00    +0.000 A 
ATOM     21  C   UNL     1      -3.847  10.935  18.147  0.00  0.00    +0.000 A 
ATOM     22  C   UNL     1      -2.807  11.760  18.577  0.00  0.00    +0.000 A 
ENDBRANCH  11  17
BRANCH   1  23
ATOM     23  S   UNL     1       3.337   4.083  17.753  0.00  0.00    +0.000 S 
ATOM     24  O   UNL     1       2.270   3.519  16.946  0.00  0.00    +0.000 OA
ATOM     25  O   UNL     1       4.116   3.251  18.648  0.00  0.00    +0.000 OA
BRANCH  23  26
ATOM     26  C   UNL     1       4.450   4.942  16.655  0.00  0.00    +0.000 C 
BRANCH  26  28
ATOM     27  C   UNL     1       5.834   4.136  14.717  0.00  0.00    +0.000 C 
ATOM     28  C   UNL     1       5.597   4.040  16.215  0.00  0.00    +0.000 C 
ENDBRANCH  26  28
ENDBRANCH  23  26
ENDBRANCH   1  23
TORSDOF 4
ENDMDL
MODEL 4
REMARK VINA RESULT:      -7.5      1.398      1.940
REMARK  Name = 
REMARK  5 active torsions:
REMARK  status: ('A' for Active; 'I' for Inactive)
REMARK    1  A    between atoms: C_1  and  C_2
REMARK    2  A    between atoms: C_2  and  C_3
REMARK    3  A    between atoms: C_3  and  S_4
REMARK    4  A    between atoms: S_4  and  C_7
REMARK    5  A    between atoms: C_17  and  C_18
REMARK                            x       y       z     vdW  Elec       q    Type
REMARK                         _______ _______ _______ _____ _____    ______ ____
ROOT
ATOM      1  C   UNL     1       2.881   6.031  18.661  0.00  0.00    +0.000 A 
ATOM      2  C   UNL     1       2.259   5.517  19.806  0.00  0.00    +0.000 A 
ATOM      3  C   UNL     1       1.517   6.351  20.653  0.00  0.00    +0.000 A 
ATOM      4  C   UNL     1       1.431   7.694  20.286  0.00  0.00    +0.000 A 
ATOM      5  N   UNL     1       0.810   8.775  20.857  0.00  0.00    +0.000 N 
ATOM      6  C   UNL     1       0.984   9.865  20.042  0.00  0.00    +0.000 A 
ATOM      7  N   UNL     1       0.368  11.048  20.262  0.00  0.00    +0.000 N 
ATOM      8  C   UNL     1      -0.243  11.488  21.509  0.00  0.00    +0.000 C 
ATOM      9  C   UNL     1      -1.558  12.256  21.252  0.00  0.00    +0.000 C 
ATOM     10  O   UNL     1      -1.520  13.188  20.158  0.00  0.00    +0.000 OA
ATOM     11  C   UNL     1      -1.000  12.601  18.936  0.00  0.00    +0.000 C 
ATOM     12  C   UNL     1       0.432  12.087  19.224  0.00  0.00    +0.000 C 
ATOM     13  N   UNL     1       1.740   9.550  19.013  0.00  0.00    +0.000 NA
ATOM     14  C   UNL     1       2.028   8.216  19.147  0.00  0.00    +0.000 A 
ATOM     15  C   UNL     1       2.782   7.385  18.312  0.00  0.00    +0.000 A 
ATOM     16  H   UNL     1       0.252   8.753  21.693  0.00  0.00    +0.000 HD
ENDROOT
BRANCH  11  17
ATOM     17  C   UNL     1      -1.971  11.595  18.309  0.00  0.00    +0.000 A 
ATOM     18  C   UNL     1      -1.489  10.546  17.509  0.00  0.00    +0.000 A 
ATOM     19  C   UNL     1      -2.367   9.642  16.901  0.00  0.00    +0.000 A 
ATOM     20  C   UNL     1      -3.740   9.754  17.105  0.00  0.00    +0.000 A 
ATOM     21  C   UNL     1      -4.234  10.758  17.929  0.00  0.00    +0.000 A 
ATOM     22  C   UNL     1      -3.358  11.663  18.532  0.00  0.00    +0.000 A 
ENDBRANCH  11  17
BRANCH   1  23
ATOM     23  S   UNL     1       3.849   4.959  17.625  0.00  0.00    +0.000 S 
ATOM     24  O   UNL     1       4.470   5.788  16.608  0.00  0.00    +0.000 OA
ATOM     25  O   UNL     1       2.993   3.847  17.262  0.00  0.00    +0.000 OA
BRANCH  23  26
ATOM     26  C   UNL     1       5.141   4.360  18.699  0.00  0.00    +0.000 C 
BRANCH  26  28
ATOM     27  C   UNL     1       7.486   4.703  17.859  0.00  0.00    +0.000 C 
ATOM     28  C   UNL     1       6.349   5.289  18.680  0.00  0.00    +0.000 C 
ENDBRANCH  26  28
ENDBRANCH  23  26
ENDBRANCH   1  23
TORSDOF 4
ENDMDL
MODEL 5
REMARK VINA RESULT:      -7.5      3.095      8.250
REMARK  Name = 
REMARK  5 active torsions:
REMARK  status: ('A' for Active; 'I' for Inactive)
REMARK    1  A    between atoms: C_1  and  C_2
REMARK    2  A    between atoms: C_2  and  C_3
REMARK    3  A    between atoms: C_3  and  S_4
REMARK    4  A    between atoms: S_4  and  C_7
REMARK    5  A    between atoms: C_17  and  C_18
REMARK                            x       y       z     vdW  Elec       q    Type
REMARK                         _______ _______ _______ _____ _____    ______ ____
ROOT
ATOM      1  C   UNL     1       0.907  10.505  19.600  0.00  0.00    +0.000 A 
ATOM      2  C   UNL     1       1.069  10.180  20.953  0.00  0.00    +0.000 A 
ATOM      3  C   UNL     1       1.535   8.915  21.334  0.00  0.00    +0.000 A 
ATOM      4  C   UNL     1       1.830   8.023  20.304  0.00  0.00    +0.000 A 
ATOM      5  N   UNL     1       2.293   6.732  20.297  0.00  0.00    +0.000 N 
ATOM      6  C   UNL     1       2.479   6.337  18.996  0.00  0.00    +0.000 A 
ATOM      7  N   UNL     1       3.061   5.164  18.665  0.00  0.00    +0.000 N 
ATOM      8  C   UNL     1       3.243   4.010  19.535  0.00  0.00    +0.000 C 
ATOM      9  C   UNL     1       4.616   3.341  19.305  0.00  0.00    +0.000 C 
ATOM     10  O   UNL     1       5.013   3.212  17.929  0.00  0.00    +0.000 OA
ATOM     11  C   UNL     1       4.899   4.458  17.192  0.00  0.00    +0.000 C 
ATOM     12  C   UNL     1       3.423   4.920  17.261  0.00  0.00    +0.000 C 
ATOM     13  N   UNL     1       2.095   7.287  18.171  0.00  0.00    +0.000 NA
ATOM     14  C   UNL     1       1.691   8.334  18.958  0.00  0.00    +0.000 A 
ATOM     15  C   UNL     1       1.209   9.592  18.580  0.00  0.00    +0.000 A 
ATOM     16  H   UNL     1       2.532   6.194  21.112  0.00  0.00    +0.000 HD
ENDROOT
BRANCH  11  17
ATOM     17  C   UNL     1       5.954   5.487  17.610  0.00  0.00    +0.000 A 
ATOM     18  C   UNL     1       6.944   5.150  18.548  0.00  0.00    +0.000 A 
ATOM     19  C   UNL     1       7.891   6.091  18.965  0.00  0.00    +0.000 A 
ATOM     20  C   UNL     1       7.884   7.377  18.431  0.00  0.00    +0.000 A 
ATOM     21  C   UNL     1       6.940   7.717  17.469  0.00  0.00    +0.000 A 
ATOM     22  C   UNL     1       5.993   6.779  17.056  0.00  0.00    +0.000 A 
ENDBRANCH  11  17
BRANCH   1  23
ATOM     23  S   UNL     1       0.277  12.104  19.145  0.00  0.00    +0.000 S 
ATOM     24  O   UNL     1       1.332  12.794  18.426  0.00  0.00    +0.000 OA
ATOM     25  O   UNL     1      -0.310  12.675  20.339  0.00  0.00    +0.000 OA
BRANCH  23  26
ATOM     26  C   UNL     1      -1.027  11.746  17.981  0.00  0.00    +0.000 C 
BRANCH  26  28
ATOM     27  C   UNL     1      -2.682   9.870  17.734  0.00  0.00    +0.000 C 
ATOM     28  C   UNL     1      -2.161  10.972  18.642  0.00  0.00    +0.000 C 
ENDBRANCH  26  28
ENDBRANCH  23  26
ENDBRANCH   1  23
TORSDOF 4
ENDMDL
MODEL 6
REMARK VINA RESULT:      -7.4      1.595      2.220
REMARK  Name = 
REMARK  5 active torsions:
REMARK  status: ('A' for Active; 'I' for Inactive)
REMARK    1  A    between atoms: C_1  and  C_2
REMARK    2  A    between atoms: C_2  and  C_3
REMARK    3  A    between atoms: C_3  and  S_4
REMARK    4  A    between atoms: S_4  and  C_7
REMARK    5  A    between atoms: C_17  and  C_18
REMARK                            x       y       z     vdW  Elec       q    Type
REMARK                         _______ _______ _______ _____ _____    ______ ____
ROOT
ATOM      1  C   UNL     1       2.830   5.302  18.827  0.00  0.00    +0.000 A 
ATOM      2  C   UNL     1       2.061   4.748  19.859  0.00  0.00    +0.000 A 
ATOM      3  C   UNL     1       1.332   5.569  20.728  0.00  0.00    +0.000 A 
ATOM      4  C   UNL     1       1.411   6.943  20.501  0.00  0.00    +0.000 A 
ATOM      5  N   UNL     1       0.849   8.023  21.133  0.00  0.00    +0.000 N 
ATOM      6  C   UNL     1       1.202   9.163  20.455  0.00  0.00    +0.000 A 
ATOM      7  N   UNL     1       0.688  10.377  20.750  0.00  0.00    +0.000 N 
ATOM      8  C   UNL     1       0.013  10.756  21.985  0.00  0.00    +0.000 C 
ATOM      9  C   UNL     1      -1.192  11.681  21.708  0.00  0.00    +0.000 C 
ATOM     10  O   UNL     1      -0.965  12.706  20.726  0.00  0.00    +0.000 OA
ATOM     11  C   UNL     1      -0.399  12.189  19.493  0.00  0.00    +0.000 C 
ATOM     12  C   UNL     1       0.945  11.500  19.837  0.00  0.00    +0.000 C 
ATOM     13  N   UNL     1       2.012   8.870  19.461  0.00  0.00    +0.000 NA
ATOM     14  C   UNL     1       2.155   7.507  19.474  0.00  0.00    +0.000 A 
ATOM     15  C   UNL     1       2.896   6.686  18.617  0.00  0.00    +0.000 A 
ATOM     16  H   UNL     1       0.220   7.978  21.915  0.00  0.00    +0.000 HD
ENDROOT
BRANCH  11  17
ATOM     17  C   UNL     1      -1.403  11.359  18.688  0.00  0.00    +0.000 A 
ATOM     18  C   UNL     1      -2.774  11.660  18.733  0.00  0.00    +0.000 A 
ATOM     19  C   UNL     1      -3.705  10.887  18.032  0.00  0.00    +0.000 A 
ATOM     20  C   UNL     1      -3.280   9.816  17.249  0.00  0.00    +0.000 A 
ATOM     21  C   UNL     1      -1.923   9.528  17.157  0.00  0.00    +0.000 A 
ATOM     22  C   UNL     1      -0.995  10.297  17.860  0.00  0.00    +0.000 A 
ENDBRANCH  11  17
BRANCH   1  23
ATOM     23  S   UNL     1       3.777   4.239  17.763  0.00  0.00    +0.000 S 
ATOM     24  O   UNL     1       2.833   3.465  16.977  0.00  0.00    +0.000 OA
ATOM     25  O   UNL     1       4.765   3.587  18.598  0.00  0.00    +0.000 OA
BRANCH  23  26
ATOM     26  C   UNL     1       4.613   5.359  16.655  0.00  0.00    +0.000 C 
BRANCH  26  28
ATOM     27  C   UNL     1       6.894   4.594  15.925  0.00  0.00    +0.000 C 
ATOM     28  C   UNL     1       5.409   4.601  15.600  0.00  0.00    +0.000 C 
ENDBRANCH  26  28
ENDBRANCH  23  26
ENDBRANCH   1  23
TORSDOF 4
ENDMDL
MODEL 7
REMARK VINA RESULT:      -7.3      1.045      1.155
REMARK  Name = 
REMARK  5 active torsions:
REMARK  status: ('A' for Active; 'I' for Inactive)
REMARK    1  A    between atoms: C_1  and  C_2
REMARK    2  A    between atoms: C_2  and  C_3
REMARK    3  A    between atoms: C_3  and  S_4
REMARK    4  A    between atoms: S_4  and  C_7
REMARK    5  A    between atoms: C_17  and  C_18
REMARK                            x       y       z     vdW  Elec       q    Type
REMARK                         _______ _______ _______ _____ _____    ______ ____
ROOT
ATOM      1  C   UNL     1       2.683   6.116  18.744  0.00  0.00    +0.000 A 
ATOM      2  C   UNL     1       2.197   5.793  20.018  0.00  0.00    +0.000 A 
ATOM      3  C   UNL     1       1.593   6.769  20.821  0.00  0.00    +0.000 A 
ATOM      4  C   UNL     1       1.500   8.051  20.281  0.00  0.00    +0.000 A 
ATOM      5  N   UNL     1       0.987   9.228  20.765  0.00  0.00    +0.000 N 
ATOM      6  C   UNL     1       1.088  10.187  19.789  0.00  0.00    +0.000 A 
ATOM      7  N   UNL     1       0.540  11.416  19.912  0.00  0.00    +0.000 N 
ATOM      8  C   UNL     1       0.105  12.051  21.150  0.00  0.00    +0.000 C 
ATOM      9  C   UNL     1      -1.209  12.836  20.948  0.00  0.00    +0.000 C 
ATOM     10  O   UNL     1      -1.283  13.607  19.737  0.00  0.00    +0.000 OA
ATOM     11  C   UNL     1      -0.940  12.835  18.556  0.00  0.00    +0.000 C 
ATOM     12  C   UNL     1       0.502  12.299  18.738  0.00  0.00    +0.000 C 
ATOM     13  N   UNL     1       1.699   9.699  18.731  0.00  0.00    +0.000 NA
ATOM     14  C   UNL     1       1.962   8.384  19.016  0.00  0.00    +0.000 A 
ATOM     15  C   UNL     1       2.580   7.412  18.222  0.00  0.00    +0.000 A 
ATOM     16  H   UNL     1       0.540   9.346  21.657  0.00  0.00    +0.000 HD
ENDROOT
BRANCH  11  17
ATOM     17  C   UNL     1      -2.011  11.799  18.200  0.00  0.00    +0.000 A 
ATOM     18  C   UNL     1      -1.667  10.633  17.496  0.00  0.00    +0.000 A 
ATOM     19  C   UNL     1      -2.641   9.697  17.133  0.00  0.00    +0.000 A 
ATOM     20  C   UNL     1      -3.971   9.894  17.493  0.00  0.00    +0.000 A 
ATOM     21  C   UNL     1      -4.325  11.019  18.229  0.00  0.00    +0.000 A 
ATOM     22  C   UNL     1      -3.354  11.956  18.587  0.00  0.00    +0.000 A 
ENDBRANCH  11  17
BRANCH   1  23
ATOM     23  S   UNL     1       3.480   4.868  17.761  0.00  0.00    +0.000 S 
ATOM     24  O   UNL     1       4.324   5.553  16.798  0.00  0.00    +0.000 OA
ATOM     25  O   UNL     1       2.443   3.954  17.327  0.00  0.00    +0.000 OA
BRANCH  23  26
ATOM     26  C   UNL     1       4.548   4.019  18.910  0.00  0.00    +0.000 C 
BRANCH  26  28
ATOM     27  C   UNL     1       3.388   2.495  20.538  0.00  0.00    +0.000 C 
ATOM     28  C   UNL     1       4.057   2.602  19.177  0.00  0.00    +0.000 C 
ENDBRANCH  26  28
ENDBRANCH  23  26
ENDBRANCH   1  23
TORSDOF 4
ENDMDL
MODEL 8
REMARK VINA RESULT:      -7.3      0.791      1.293
REMARK  Name = 
REMARK  5 active torsions:
REMARK  status: ('A' for Active; 'I' for Inactive)
REMARK    1  A    between atoms: C_1  and  C_2
REMARK    2  A    between atoms: C_2  and  C_3
REMARK    3  A    between atoms: C_3  and  S_4
REMARK    4  A    between atoms: S_4  and  C_7
REMARK    5  A    between atoms: C_17  and  C_18
REMARK                            x       y       z     vdW  Elec       q    Type
REMARK                         _______ _______ _______ _____ _____    ______ ____
ROOT
ATOM      1  C   UNL     1       2.536   5.827  18.695  0.00  0.00    +0.000 A 
ATOM      2  C   UNL     1       2.073   5.554  19.989  0.00  0.00    +0.000 A 
ATOM      3  C   UNL     1       1.555   6.575  20.795  0.00  0.00    +0.000 A 
ATOM      4  C   UNL     1       1.522   7.853  20.237  0.00  0.00    +0.000 A 
ATOM      5  N   UNL     1       1.097   9.065  20.717  0.00  0.00    +0.000 N 
ATOM      6  C   UNL     1       1.224  10.003  19.722  0.00  0.00    +0.000 A 
ATOM      7  N   UNL     1       0.755  11.264  19.842  0.00  0.00    +0.000 N 
ATOM      8  C   UNL     1       0.398  11.942  21.082  0.00  0.00    +0.000 C 
ATOM      9  C   UNL     1      -0.872  12.803  20.908  0.00  0.00    +0.000 C 
ATOM     10  O   UNL     1      -0.938  13.559  19.688  0.00  0.00    +0.000 OA
ATOM     11  C   UNL     1      -0.681  12.750  18.510  0.00  0.00    +0.000 C 
ATOM     12  C   UNL     1       0.731  12.131  18.656  0.00  0.00    +0.000 C 
ATOM     13  N   UNL     1       1.769   9.463  18.654  0.00  0.00    +0.000 NA
ATOM     14  C   UNL     1       1.962   8.139  18.952  0.00  0.00    +0.000 A 
ATOM     15  C   UNL     1       2.494   7.120  18.155  0.00  0.00    +0.000 A 
ATOM     16  H   UNL     1       0.686   9.224  21.620  0.00  0.00    +0.000 HD
ENDROOT
BRANCH  11  17
ATOM     17  C   UNL     1      -1.823  11.776  18.205  0.00  0.00    +0.000 A 
ATOM     18  C   UNL     1      -3.135  12.068  18.610  0.00  0.00    +0.000 A 
ATOM     19  C   UNL     1      -4.180  11.170  18.371  0.00  0.00    +0.000 A 
ATOM     20  C   UNL     1      -3.938   9.977  17.695  0.00  0.00    +0.000 A 
ATOM     21  C   UNL     1      -2.655   9.689  17.246  0.00  0.00    +0.000 A 
ATOM     22  C   UNL     1      -1.611  10.583  17.490  0.00  0.00    +0.000 A 
ENDBRANCH  11  17
BRANCH   1  23
ATOM     23  S   UNL     1       3.224   4.519  17.708  0.00  0.00    +0.000 S 
ATOM     24  O   UNL     1       4.372   5.067  17.008  0.00  0.00    +0.000 OA
ATOM     25  O   UNL     1       2.122   3.922  16.982  0.00  0.00    +0.000 OA
BRANCH  23  26
ATOM     26  C   UNL     1       3.830   3.340  18.902  0.00  0.00    +0.000 C 
BRANCH  26  28
ATOM     27  C   UNL     1       1.841   2.001  19.658  0.00  0.00    +0.000 C 
ATOM     28  C   UNL     1       3.089   2.013  18.792  0.00  0.00    +0.000 C 
ENDBRANCH  26  28
ENDBRANCH  23  26
ENDBRANCH   1  23
TORSDOF 4
ENDMDL
MODEL 9
REMARK VINA RESULT:      -7.3      3.115      8.453
REMARK  Name = 
REMARK  5 active torsions:
REMARK  status: ('A' for Active; 'I' for Inactive)
REMARK    1  A    between atoms: C_1  and  C_2
REMARK    2  A    between atoms: C_2  and  C_3
REMARK    3  A    between atoms: C_3  and  S_4
REMARK    4  A    between atoms: S_4  and  C_7
REMARK    5  A    between atoms: C_17  and  C_18
REMARK                            x       y       z     vdW  Elec       q    Type
REMARK                         _______ _______ _______ _____ _____    ______ ____
ROOT
ATOM      1  C   UNL     1       0.925  10.422  19.756  0.00  0.00    +0.000 A 
ATOM      2  C   UNL     1       1.109  10.076  21.100  0.00  0.00    +0.000 A 
ATOM      3  C   UNL     1       1.578   8.805  21.455  0.00  0.00    +0.000 A 
ATOM      4  C   UNL     1       1.853   7.927  20.407  0.00  0.00    +0.000 A 
ATOM      5  N   UNL     1       2.312   6.635  20.373  0.00  0.00    +0.000 N 
ATOM      6  C   UNL     1       2.474   6.259  19.063  0.00  0.00    +0.000 A 
ATOM      7  N   UNL     1       3.047   5.089  18.705  0.00  0.00    +0.000 N 
ATOM      8  C   UNL     1       3.241   3.921  19.556  0.00  0.00    +0.000 C 
ATOM      9  C   UNL     1       4.608   3.253  19.292  0.00  0.00    +0.000 C 
ATOM     10  O   UNL     1       4.980   3.143  17.908  0.00  0.00    +0.000 OA
ATOM     11  C   UNL     1       4.858   4.400  17.190  0.00  0.00    +0.000 C 
ATOM     12  C   UNL     1       3.384   4.865  17.292  0.00  0.00    +0.000 C 
ATOM     13  N   UNL     1       2.079   7.222  18.260  0.00  0.00    +0.000 NA
ATOM     14  C   UNL     1       1.691   8.258  19.069  0.00  0.00    +0.000 A 
ATOM     15  C   UNL     1       1.207   9.523  18.718  0.00  0.00    +0.000 A 
ATOM     16  H   UNL     1       2.564   6.084  21.176  0.00  0.00    +0.000 HD
ENDROOT
BRANCH  11  17
ATOM     17  C   UNL     1       5.923   5.419  17.605  0.00  0.00    +0.000 A 
ATOM     18  C   UNL     1       6.910   5.076  18.543  0.00  0.00    +0.000 A 
ATOM     19  C   UNL     1       7.866   6.009  18.958  0.00  0.00    +0.000 A 
ATOM     20  C   UNL     1       7.871   7.294  18.420  0.00  0.00    +0.000 A 
ATOM     21  C   UNL     1       6.930   7.640  17.457  0.00  0.00    +0.000 A 
ATOM     22  C   UNL     1       5.973   6.710  17.047  0.00  0.00    +0.000 A 
ENDBRANCH  11  17
BRANCH   1  23
ATOM     23  S   UNL     1       0.292  12.028  19.335  0.00  0.00    +0.000 S 
ATOM     24  O   UNL     1      -0.968  11.826  18.642  0.00  0.00    +0.000 OA
ATOM     25  O   UNL     1       1.379  12.754  18.710  0.00  0.00    +0.000 OA
BRANCH  23  26
ATOM     26  C   UNL     1      -0.071  12.784  20.910  0.00  0.00    +0.000 C 
BRANCH  26  28
ATOM     27  C   UNL     1      -1.564  12.010  22.779  0.00  0.00    +0.000 C 
ATOM     28  C   UNL     1      -1.505  12.499  21.341  0.00  0.00    +0.000 C 
ENDBRANCH  26  28
ENDBRANCH  23  26
ENDBRANCH   1  23
TORSDOF 4
ENDMDL
