MODEL 1
REMARK VINA RESULT:      -7.8      0.000      0.000
REMARK  Name = 
REMARK  4 active torsions:
REMARK  status: ('A' for Active; 'I' for Inactive)
REMARK    1  A    between atoms: C_1  and  O_2
REMARK    2  A    between atoms: O_2  and  C_3
REMARK    3  A    between atoms: C_7  and  C_8
REMARK    4  A    between atoms: N_18  and  C_19
REMARK                            x       y       z     vdW  Elec       q    Type
REMARK                         _______ _______ _______ _____ _____    ______ ____
ROOT
ATOM      1  C   UNL     1       2.199   6.541  19.519  0.00  0.00    +0.000 A 
ATOM      2  C   UNL     1       2.580   6.991  18.272  0.00  0.00    +0.000 A 
ATOM      3  S   UNL     1       2.217   8.648  18.116  0.00  0.00    +0.000 S 
ATOM      4  C   UNL     1       1.550   8.667  19.719  0.00  0.00    +0.000 A 
ATOM      5  N   UNL     1       1.003   9.785  20.268  0.00  0.00    +0.000 N 
ATOM      6  C   UNL     1       0.373  10.829  19.457  0.00  0.00    +0.000 C 
ATOM      7  C   UNL     1      -1.055  11.069  19.959  0.00  0.00    +0.000 C 
ATOM      8  N   UNL     1      -1.051  11.411  21.386  0.00  0.00    +0.000 N 
ATOM      9  C   UNL     1      -1.682  12.582  21.756  0.00  0.00    +0.000 C 
ATOM     10  O   UNL     1      -2.218  13.287  20.899  0.00  0.00    +0.000 OA
ATOM     11  N   UNL     1      -1.650  12.911  23.090  0.00  0.00    +0.000 N 
ATOM     12  C   UNL     1      -0.436  10.369  22.228  0.00  0.00    +0.000 C 
ATOM     13  C   UNL     1       0.978   9.983  21.723  0.00  0.00    +0.000 C 
ATOM     14  N   UNL     1       1.637   7.510  20.340  0.00  0.00    +0.000 NA
ATOM     15  H   UNL     1      -0.898  12.522  23.634  0.00  0.00    +0.000 HD
ENDROOT
BRANCH  11  16
ATOM     16  C   UNL     1      -2.343  14.008  23.666  0.00  0.00    +0.000 A 
ATOM     17  C   UNL     1      -3.740  14.068  23.749  0.00  0.00    +0.000 A 
ATOM     18  C   UNL     1      -4.385  15.186  24.283  0.00  0.00    +0.000 A 
ATOM     19  C   UNL     1      -3.633  16.251  24.764  0.00  0.00    +0.000 A 
ATOM     20 CL   UNL     1      -4.427  17.630  25.415  0.00  0.00    +0.000 Cl
ATOM     21  C   UNL     1      -2.242  16.197  24.723  0.00  0.00    +0.000 A 
ATOM     22  C   UNL     1      -1.598  15.075  24.181  0.00  0.00    +0.000 A 
ENDBRANCH  11  16
BRANCH   1  27
ATOM     23  C   UNL     1       3.678   3.131  20.084  0.00  0.00    +0.000 A 
ATOM     24  C   UNL     1       2.638   2.496  20.766  0.00  0.00    +0.000 A 
ATOM     25  C   UNL     1       1.453   3.174  21.045  0.00  0.00    +0.000 A 
ATOM     26  C   UNL     1       1.299   4.498  20.636  0.00  0.00    +0.000 A 
ATOM     27  C   UNL     1       2.333   5.155  19.953  0.00  0.00    +0.000 A 
ATOM     28  C   UNL     1       3.524   4.460  19.684  0.00  0.00    +0.000 A 
BRANCH  23  30
ATOM     29  C   UNL     1       5.094   1.389  20.872  0.00  0.00    +0.000 C 
ATOM     30  O   UNL     1       4.776   2.344  19.867  0.00  0.00    +0.000 OA
ENDBRANCH  23  30
ENDBRANCH   1  27
TORSDOF 3
ENDMDL
MODEL 2
REMARK VINA RESULT:      -7.5      0.924      1.293
REMARK  Name = 
REMARK  4 active torsions:
REMARK  status: ('A' for Active; 'I' for Inactive)
REMARK    1  A    between atoms: C_1  and  O_2
REMARK    2  A    between atoms: O_2  and  C_3
REMARK    3  A    between atoms: C_7  and  C_8
REMARK    4  A    between atoms: N_18  and  C_19
REMARK                            x       y       z     vdW  Elec       q    Type
REMARK                         _______ _______ _______ _____ _____    ______ ____
ROOT
ATOM      1  C   UNL     1       2.187   7.240  19.186  0.00  0.00    +0.000 A 
ATOM      2  C   UNL     1       2.569   7.734  17.957  0.00  0.00    +0.000 A 
ATOM      3  S   UNL     1       2.151   9.381  17.837  0.00  0.00    +0.000 S 
ATOM      4  C   UNL     1       1.463   9.338  19.431  0.00  0.00    +0.000 A 
ATOM      5  N   UNL     1       0.871  10.421  19.999  0.00  0.00    +0.000 N 
ATOM      6  C   UNL     1       0.216  11.464  19.206  0.00  0.00    +0.000 C 
ATOM      7  C   UNL     1      -1.226  11.642  19.694  0.00  0.00    +0.000 C 
ATOM      8  N   UNL     1      -1.253  11.948  21.129  0.00  0.00    +0.000 N 
ATOM      9  C   UNL     1      -1.928  13.087  21.519  0.00  0.00    +0.000 C 
ATOM     10  O   UNL     1      -2.477  13.795  20.673  0.00  0.00    +0.000 OA
ATOM     11  N   UNL     1      -1.925  13.382  22.862  0.00  0.00    +0.000 N 
ATOM     12  C   UNL     1      -0.613  10.907  21.954  0.00  0.00    +0.000 C 
ATOM     13  C   UNL     1       0.820  10.582  21.458  0.00  0.00    +0.000 C 
ATOM     14  N   UNL     1       1.582   8.169  20.024  0.00  0.00    +0.000 NA
ATOM     15  H   UNL     1      -1.167  13.006  23.406  0.00  0.00    +0.000 HD
ENDROOT
BRANCH  11  16
ATOM     16  C   UNL     1      -2.663  14.441  23.454  0.00  0.00    +0.000 A 
ATOM     17  C   UNL     1      -2.064  15.615  23.928  0.00  0.00    +0.000 A 
ATOM     18  C   UNL     1      -2.821  16.614  24.545  0.00  0.00    +0.000 A 
ATOM     19  C   UNL     1      -4.195  16.458  24.673  0.00  0.00    +0.000 A 
ATOM     20 CL   UNL     1      -5.125  17.684  25.438  0.00  0.00    +0.000 Cl
ATOM     21  C   UNL     1      -4.816  15.313  24.177  0.00  0.00    +0.000 A 
ATOM     22  C   UNL     1      -4.052  14.309  23.563  0.00  0.00    +0.000 A 
ENDBRANCH  11  16
BRANCH   1  27
ATOM     23  C   UNL     1       3.308   3.652  19.140  0.00  0.00    +0.000 A 
ATOM     24  C   UNL     1       2.730   3.174  20.317  0.00  0.00    +0.000 A 
ATOM     25  C   UNL     1       1.973   4.016  21.130  0.00  0.00    +0.000 A 
ATOM     26  C   UNL     1       1.788   5.348  20.765  0.00  0.00    +0.000 A 
ATOM     27  C   UNL     1       2.364   5.849  19.588  0.00  0.00    +0.000 A 
ATOM     28  C   UNL     1       3.127   4.989  18.781  0.00  0.00    +0.000 A 
BRANCH  23  30
ATOM     29  C   UNL     1       3.601   1.360  18.573  0.00  0.00    +0.000 C 
ATOM     30  O   UNL     1       4.011   2.715  18.433  0.00  0.00    +0.000 OA
ENDBRANCH  23  30
ENDBRANCH   1  27
TORSDOF 3
ENDMDL
MODEL 3
REMARK VINA RESULT:      -7.4      1.030      1.170
REMARK  Name = 
REMARK  4 active torsions:
REMARK  status: ('A' for Active; 'I' for Inactive)
REMARK    1  A    between atoms: C_1  and  O_2
REMARK    2  A    between atoms: O_2  and  C_3
REMARK    3  A    between atoms: C_7  and  C_8
REMARK    4  A    between atoms: N_18  and  C_19
REMARK                            x       y       z     vdW  Elec       q    Type
REMARK                         _______ _______ _______ _____ _____    ______ ____
ROOT
ATOM      1  C   UNL     1       2.132   7.525  19.276  0.00  0.00    +0.000 A 
ATOM      2  C   UNL     1       2.398   8.004  18.010  0.00  0.00    +0.000 A 
ATOM      3  S   UNL     1       1.861   9.615  17.874  0.00  0.00    +0.000 S 
ATOM      4  C   UNL     1       1.282   9.575  19.511  0.00  0.00    +0.000 A 
ATOM      5  N   UNL     1       0.655  10.634  20.088  0.00  0.00    +0.000 N 
ATOM      6  C   UNL     1      -0.120  11.605  19.313  0.00  0.00    +0.000 C 
ATOM      7  C   UNL     1      -1.536  11.702  19.891  0.00  0.00    +0.000 C 
ATOM      8  N   UNL     1      -1.491  12.050  21.316  0.00  0.00    +0.000 N 
ATOM      9  C   UNL     1      -2.217  13.153  21.719  0.00  0.00    +0.000 C 
ATOM     10  O   UNL     1      -2.867  13.796  20.892  0.00  0.00    +0.000 OA
ATOM     11  N   UNL     1      -2.147  13.491  23.049  0.00  0.00    +0.000 N 
ATOM     12  C   UNL     1      -0.729  11.081  22.123  0.00  0.00    +0.000 C 
ATOM     13  C   UNL     1       0.688  10.837  21.542  0.00  0.00    +0.000 C 
ATOM     14  N   UNL     1       1.519   8.436  20.126  0.00  0.00    +0.000 NA
ATOM     15  H   UNL     1      -1.331  13.183  23.552  0.00  0.00    +0.000 HD
ENDROOT
BRANCH  11  16
ATOM     16  C   UNL     1      -2.916  14.516  23.661  0.00  0.00    +0.000 A 
ATOM     17  C   UNL     1      -4.313  14.470  23.749  0.00  0.00    +0.000 A 
ATOM     18  C   UNL     1      -5.036  15.520  24.321  0.00  0.00    +0.000 A 
ATOM     19  C   UNL     1      -4.362  16.621  24.834  0.00  0.00    +0.000 A 
ATOM     20 CL   UNL     1      -5.252  17.917  25.530  0.00  0.00    +0.000 Cl
ATOM     21  C   UNL     1      -2.971  16.671  24.788  0.00  0.00    +0.000 A 
ATOM     22  C   UNL     1      -2.248  15.617  24.209  0.00  0.00    +0.000 A 
ENDBRANCH  11  16
BRANCH   1  27
ATOM     23  C   UNL     1       3.926   4.243  19.664  0.00  0.00    +0.000 A 
ATOM     24  C   UNL     1       3.043   3.550  20.494  0.00  0.00    +0.000 A 
ATOM     25  C   UNL     1       1.861   4.146  20.930  0.00  0.00    +0.000 A 
ATOM     26  C   UNL     1       1.554   5.447  20.533  0.00  0.00    +0.000 A 
ATOM     27  C   UNL     1       2.429   6.162  19.702  0.00  0.00    +0.000 A 
ATOM     28  C   UNL     1       3.619   5.549  19.275  0.00  0.00    +0.000 A 
BRANCH  23  30
ATOM     29  C   UNL     1       5.923   4.151  18.374  0.00  0.00    +0.000 C 
ATOM     30  O   UNL     1       5.039   3.534  19.302  0.00  0.00    +0.000 OA
ENDBRANCH  23  30
ENDBRANCH   1  27
TORSDOF 3
ENDMDL
MODEL 4
REMARK VINA RESULT:      -7.4      2.903      4.004
REMARK  Name = 
REMARK  4 active torsions:
REMARK  status: ('A' for Active; 'I' for Inactive)
REMARK    1  A    between atoms: C_1  and  O_2
REMARK    2  A    between atoms: O_2  and  C_3
REMARK    3  A    between atoms: C_7  and  C_8
REMARK    4  A    between atoms: N_18  and  C_19
REMARK                            x       y       z     vdW  Elec       q    Type
REMARK                         _______ _______ _______ _____ _____    ______ ____
ROOT
ATOM      1  C   UNL     1       3.608   5.580  18.705  0.00  0.00    +0.000 A 
ATOM      2  C   UNL     1       3.134   4.595  19.545  0.00  0.00    +0.000 A 
ATOM      3  S   UNL     1       1.875   5.212  20.513  0.00  0.00    +0.000 S 
ATOM      4  C   UNL     1       2.047   6.771  19.767  0.00  0.00    +0.000 A 
ATOM      5  N   UNL     1       1.289   7.840  20.130  0.00  0.00    +0.000 N 
ATOM      6  C   UNL     1       0.747   7.995  21.481  0.00  0.00    +0.000 C 
ATOM      7  C   UNL     1       1.182   9.349  22.051  0.00  0.00    +0.000 C 
ATOM      8  N   UNL     1       0.765  10.442  21.164  0.00  0.00    +0.000 N 
ATOM      9  C   UNL     1       0.015  11.457  21.724  0.00  0.00    +0.000 C 
ATOM     10  O   UNL     1      -0.272  11.419  22.922  0.00  0.00    +0.000 OA
ATOM     11  N   UNL     1      -0.397  12.462  20.882  0.00  0.00    +0.000 N 
ATOM     12  C   UNL     1       1.308  10.319  19.800  0.00  0.00    +0.000 C 
ATOM     13  C   UNL     1       1.007   8.928  19.185  0.00  0.00    +0.000 C 
ATOM     14  N   UNL     1       2.964   6.805  18.824  0.00  0.00    +0.000 NA
ATOM     15  H   UNL     1      -0.465  12.234  19.905  0.00  0.00    +0.000 HD
ENDROOT
BRANCH  11  16
ATOM     16  C   UNL     1      -1.070  13.640  21.303  0.00  0.00    +0.000 A 
ATOM     17  C   UNL     1      -0.428  14.682  21.984  0.00  0.00    +0.000 A 
ATOM     18  C   UNL     1      -1.135  15.805  22.420  0.00  0.00    +0.000 A 
ATOM     19  C   UNL     1      -2.495  15.908  22.156  0.00  0.00    +0.000 A 
ATOM     20 CL   UNL     1      -3.367  17.285  22.699  0.00  0.00    +0.000 Cl
ATOM     21  C   UNL     1      -3.147  14.899  21.451  0.00  0.00    +0.000 A 
ATOM     22  C   UNL     1      -2.434  13.770  21.019  0.00  0.00    +0.000 A 
ENDBRANCH  11  16
BRANCH   1  27
ATOM     23  C   UNL     1       6.819   6.184  16.844  0.00  0.00    +0.000 A 
ATOM     24  C   UNL     1       6.865   5.061  16.016  0.00  0.00    +0.000 A 
ATOM     25  C   UNL     1       5.853   4.103  16.059  0.00  0.00    +0.000 A 
ATOM     26  C   UNL     1       4.781   4.268  16.934  0.00  0.00    +0.000 A 
ATOM     27  C   UNL     1       4.717   5.387  17.777  0.00  0.00    +0.000 A 
ATOM     28  C   UNL     1       5.747   6.341  17.725  0.00  0.00    +0.000 A 
BRANCH  23  30
ATOM     29  C   UNL     1       7.889   8.195  17.526  0.00  0.00    +0.000 C 
ATOM     30  O   UNL     1       7.868   7.047  16.687  0.00  0.00    +0.000 OA
ENDBRANCH  23  30
ENDBRANCH   1  27
TORSDOF 3
ENDMDL
MODEL 5
REMARK VINA RESULT:      -7.3      2.969      3.996
REMARK  Name = 
REMARK  4 active torsions:
REMARK  status: ('A' for Active; 'I' for Inactive)
REMARK    1  A    between atoms: C_1  and  O_2
REMARK    2  A    between atoms: O_2  and  C_3
REMARK    3  A    between atoms: C_7  and  C_8
REMARK    4  A    between atoms: N_18  and  C_19
REMARK                            x       y       z     vdW  Elec       q    Type
REMARK                         _______ _______ _______ _____ _____    ______ ____
ROOT
ATOM      1  C   UNL     1       3.825   5.659  19.007  0.00  0.00    +0.000 A 
ATOM      2  C   UNL     1       3.239   4.679  19.781  0.00  0.00    +0.000 A 
ATOM      3  S   UNL     1       1.886   5.316  20.598  0.00  0.00    +0.000 S 
ATOM      4  C   UNL     1       2.171   6.874  19.886  0.00  0.00    +0.000 A 
ATOM      5  N   UNL     1       1.396   7.955  20.163  0.00  0.00    +0.000 N 
ATOM      6  C   UNL     1       0.702   8.116  21.442  0.00  0.00    +0.000 C 
ATOM      7  C   UNL     1       1.091   9.460  22.066  0.00  0.00    +0.000 C 
ATOM      8  N   UNL     1       0.800  10.563  21.143  0.00  0.00    +0.000 N 
ATOM      9  C   UNL     1       0.007  11.590  21.617  0.00  0.00    +0.000 C 
ATOM     10  O   UNL     1      -0.419  11.553  22.772  0.00  0.00    +0.000 OA
ATOM     11  N   UNL     1      -0.286  12.605  20.737  0.00  0.00    +0.000 N 
ATOM     12  C   UNL     1       1.497  10.435  19.851  0.00  0.00    +0.000 C 
ATOM     13  C   UNL     1       1.246   9.052  19.197  0.00  0.00    +0.000 C 
ATOM     14  N   UNL     1       3.194   6.895  19.057  0.00  0.00    +0.000 NA
ATOM     15  H   UNL     1      -0.242  12.382  19.757  0.00  0.00    +0.000 HD
ENDROOT
BRANCH  11  16
ATOM     16  C   UNL     1      -0.982  13.794  21.083  0.00  0.00    +0.000 A 
ATOM     17  C   UNL     1      -0.354  14.902  21.665  0.00  0.00    +0.000 A 
ATOM     18  C   UNL     1      -1.084  16.036  22.030  0.00  0.00    +0.000 A 
ATOM     19  C   UNL     1      -2.452  16.081  21.794  0.00  0.00    +0.000 A 
ATOM     20 CL   UNL     1      -3.351  17.473  22.251  0.00  0.00    +0.000 Cl
ATOM     21  C   UNL     1      -3.090  15.003  21.185  0.00  0.00    +0.000 A 
ATOM     22  C   UNL     1      -2.355  13.864  20.824  0.00  0.00    +0.000 A 
ENDBRANCH  11  16
BRANCH   1  27
ATOM     23  C   UNL     1       6.109   5.369  16.034  0.00  0.00    +0.000 A 
ATOM     24  C   UNL     1       7.319   5.054  16.654  0.00  0.00    +0.000 A 
ATOM     25  C   UNL     1       7.398   4.935  18.040  0.00  0.00    +0.000 A 
ATOM     26  C   UNL     1       6.257   5.128  18.818  0.00  0.00    +0.000 A 
ATOM     27  C   UNL     1       5.032   5.448  18.215  0.00  0.00    +0.000 A 
ATOM     28  C   UNL     1       4.970   5.570  16.817  0.00  0.00    +0.000 A 
BRANCH  23  30
ATOM     29  C   UNL     1       6.326   4.215  13.966  0.00  0.00    +0.000 C 
ATOM     30  O   UNL     1       6.173   5.441  14.669  0.00  0.00    +0.000 OA
ENDBRANCH  23  30
ENDBRANCH   1  27
TORSDOF 3
ENDMDL
MODEL 6
REMARK VINA RESULT:      -7.3      2.939      3.924
REMARK  Name = 
REMARK  4 active torsions:
REMARK  status: ('A' for Active; 'I' for Inactive)
REMARK    1  A    between atoms: C_1  and  O_2
REMARK    2  A    between atoms: O_2  and  C_3
REMARK    3  A    between atoms: C_7  and  C_8
REMARK    4  A    between atoms: N_18  and  C_19
REMARK                            x       y       z     vdW  Elec       q    Type
REMARK                         _______ _______ _______ _____ _____    ______ ____
ROOT
ATOM      1  C   UNL     1       3.848   5.400  19.180  0.00  0.00    +0.000 A 
ATOM      2  C   UNL     1       3.229   4.462  19.980  0.00  0.00    +0.000 A 
ATOM      3  S   UNL     1       1.879   5.157  20.752  0.00  0.00    +0.000 S 
ATOM      4  C   UNL     1       2.209   6.682  19.987  0.00  0.00    +0.000 A 
ATOM      5  N   UNL     1       1.453   7.789  20.213  0.00  0.00    +0.000 N 
ATOM      6  C   UNL     1       0.743   8.011  21.474  0.00  0.00    +0.000 C 
ATOM      7  C   UNL     1       1.153   9.370  22.054  0.00  0.00    +0.000 C 
ATOM      8  N   UNL     1       0.900  10.444  21.087  0.00  0.00    +0.000 N 
ATOM      9  C   UNL     1       0.123  11.504  21.510  0.00  0.00    +0.000 C 
ATOM     10  O   UNL     1      -0.321  11.519  22.660  0.00  0.00    +0.000 OA
ATOM     11  N   UNL     1      -0.134  12.492  20.590  0.00  0.00    +0.000 N 
ATOM     12  C   UNL     1       1.614  10.253  19.811  0.00  0.00    +0.000 C 
ATOM     13  C   UNL     1       1.342   8.852  19.205  0.00  0.00    +0.000 C 
ATOM     14  N   UNL     1       3.243   6.650  19.174  0.00  0.00    +0.000 NA
ATOM     15  H   UNL     1      -0.081  12.232  19.620  0.00  0.00    +0.000 HD
ENDROOT
BRANCH  11  16
ATOM     16  C   UNL     1      -0.809  13.707  20.881  0.00  0.00    +0.000 A 
ATOM     17  C   UNL     1      -2.194  13.862  20.740  0.00  0.00    +0.000 A 
ATOM     18  C   UNL     1      -2.814  15.087  20.995  0.00  0.00    +0.000 A 
ATOM     19  C   UNL     1      -2.053  16.169  21.420  0.00  0.00    +0.000 A 
ATOM     20 CL   UNL     1      -2.815  17.679  21.727  0.00  0.00    +0.000 Cl
ATOM     21  C   UNL     1      -0.679  16.028  21.600  0.00  0.00    +0.000 A 
ATOM     22  C   UNL     1      -0.059  14.797  21.338  0.00  0.00    +0.000 A 
ENDBRANCH  11  16
BRANCH   1  27
ATOM     23  C   UNL     1       6.107   4.276  16.392  0.00  0.00    +0.000 A 
ATOM     24  C   UNL     1       7.360   4.606  16.911  0.00  0.00    +0.000 A 
ATOM     25  C   UNL     1       7.475   5.195  18.169  0.00  0.00    +0.000 A 
ATOM     26  C   UNL     1       6.330   5.455  18.920  0.00  0.00    +0.000 A 
ATOM     27  C   UNL     1       5.061   5.135  18.415  0.00  0.00    +0.000 A 
ATOM     28  C   UNL     1       4.961   4.546  17.143  0.00  0.00    +0.000 A 
BRANCH  23  30
ATOM     29  C   UNL     1       6.636   4.484  14.082  0.00  0.00    +0.000 C 
ATOM     30  O   UNL     1       6.142   3.692  15.155  0.00  0.00    +0.000 OA
ENDBRANCH  23  30
ENDBRANCH   1  27
TORSDOF 3
ENDMDL
MODEL 7
REMARK VINA RESULT:      -7.3      1.189      1.256
REMARK  Name = 
REMARK  4 active torsions:
REMARK  status: ('A' for Active; 'I' for Inactive)
REMARK    1  A    between atoms: C_1  and  O_2
REMARK    2  A    between atoms: O_2  and  C_3
REMARK    3  A    between atoms: C_7  and  C_8
REMARK    4  A    between atoms: N_18  and  C_19
REMARK                            x       y       z     vdW  Elec       q    Type
REMARK                         _______ _______ _______ _____ _____    ______ ____
ROOT
ATOM      1  C   UNL     1       2.791   5.874  18.731  0.00  0.00    +0.000 A 
ATOM      2  C   UNL     1       3.351   6.473  17.622  0.00  0.00    +0.000 A 
ATOM      3  S   UNL     1       3.045   8.149  17.649  0.00  0.00    +0.000 S 
ATOM      4  C   UNL     1       2.161   7.977  19.134  0.00  0.00    +0.000 A 
ATOM      5  N   UNL     1       1.563   9.030  19.754  0.00  0.00    +0.000 N 
ATOM      6  C   UNL     1       1.073  10.197  19.018  0.00  0.00    +0.000 C 
ATOM      7  C   UNL     1      -0.407  10.421  19.350  0.00  0.00    +0.000 C 
ATOM      8  N   UNL     1      -0.596  10.567  20.798  0.00  0.00    +0.000 N 
ATOM      9  C   UNL     1      -1.251  11.701  21.237  0.00  0.00    +0.000 C 
ATOM     10  O   UNL     1      -1.649  12.535  20.422  0.00  0.00    +0.000 OA
ATOM     11  N   UNL     1      -1.399  11.845  22.596  0.00  0.00    +0.000 N 
ATOM     12  C   UNL     1      -0.124   9.399  21.563  0.00  0.00    +0.000 C 
ATOM     13  C   UNL     1       1.339   9.032  21.205  0.00  0.00    +0.000 C 
ATOM     14  N   UNL     1       2.139   6.744  19.595  0.00  0.00    +0.000 NA
ATOM     15  H   UNL     1      -0.737  11.358  23.178  0.00  0.00    +0.000 HD
ENDROOT
BRANCH  11  16
ATOM     16  C   UNL     1      -2.145  12.880  23.219  0.00  0.00    +0.000 A 
ATOM     17  C   UNL     1      -3.498  12.748  23.554  0.00  0.00    +0.000 A 
ATOM     18  C   UNL     1      -4.208  13.807  24.126  0.00  0.00    +0.000 A 
ATOM     19  C   UNL     1      -3.560  15.006  24.392  0.00  0.00    +0.000 A 
ATOM     20 CL   UNL     1      -4.435  16.311  25.089  0.00  0.00    +0.000 Cl
ATOM     21  C   UNL     1      -2.206  15.147  24.099  0.00  0.00    +0.000 A 
ATOM     22  C   UNL     1      -1.497  14.083  23.520  0.00  0.00    +0.000 A 
ENDBRANCH  11  16
BRANCH   1  27
ATOM     23  C   UNL     1       4.089   2.493  19.740  0.00  0.00    +0.000 A 
ATOM     24  C   UNL     1       2.976   1.690  19.483  0.00  0.00    +0.000 A 
ATOM     25  C   UNL     1       1.800   2.244  18.981  0.00  0.00    +0.000 A 
ATOM     26  C   UNL     1       1.732   3.614  18.729  0.00  0.00    +0.000 A 
ATOM     27  C   UNL     1       2.838   4.438  18.983  0.00  0.00    +0.000 A 
ATOM     28  C   UNL     1       4.015   3.865  19.494  0.00  0.00    +0.000 A 
BRANCH  23  30
ATOM     29  C   UNL     1       5.037   1.178  21.481  0.00  0.00    +0.000 C 
ATOM     30  O   UNL     1       5.177   1.816  20.217  0.00  0.00    +0.000 OA
ENDBRANCH  23  30
ENDBRANCH   1  27
TORSDOF 3
ENDMDL
MODEL 8
REMARK VINA RESULT:      -7.0      1.499      1.958
REMARK  Name = 
REMARK  4 active torsions:
REMARK  status: ('A' for Active; 'I' for Inactive)
REMARK    1  A    between atoms: C_1  and  O_2
REMARK    2  A    between atoms: O_2  and  C_3
REMARK    3  A    between atoms: C_7  and  C_8
REMARK    4  A    between atoms: N_18  and  C_19
REMARK                            x       y       z     vdW  Elec       q    Type
REMARK                         _______ _______ _______ _____ _____    ______ ____
ROOT
ATOM      1  C   UNL     1       2.814   6.184  18.311  0.00  0.00    +0.000 A 
ATOM      2  C   UNL     1       3.502   6.861  17.327  0.00  0.00    +0.000 A 
ATOM      3  S   UNL     1       3.198   8.533  17.450  0.00  0.00    +0.000 S 
ATOM      4  C   UNL     1       2.145   8.256  18.803  0.00  0.00    +0.000 A 
ATOM      5  N   UNL     1       1.481   9.263  19.430  0.00  0.00    +0.000 N 
ATOM      6  C   UNL     1       1.083  10.490  18.737  0.00  0.00    +0.000 C 
ATOM      7  C   UNL     1      -0.425  10.704  18.910  0.00  0.00    +0.000 C 
ATOM      8  N   UNL     1      -0.783  10.738  20.332  0.00  0.00    +0.000 N 
ATOM      9  C   UNL     1      -1.482  11.842  20.781  0.00  0.00    +0.000 C 
ATOM     10  O   UNL     1      -1.780  12.741  19.993  0.00  0.00    +0.000 OA
ATOM     11  N   UNL     1      -1.789  11.880  22.120  0.00  0.00    +0.000 N 
ATOM     12  C   UNL     1      -0.406   9.509  21.053  0.00  0.00    +0.000 C 
ATOM     13  C   UNL     1       1.088   9.154  20.841  0.00  0.00    +0.000 C 
ATOM     14  N   UNL     1       2.066   6.991  19.159  0.00  0.00    +0.000 NA
ATOM     15  H   UNL     1      -1.201  11.343  22.735  0.00  0.00    +0.000 HD
ENDROOT
BRANCH  11  16
ATOM     16  C   UNL     1      -2.601  12.872  22.731  0.00  0.00    +0.000 A 
ATOM     17  C   UNL     1      -3.967  12.692  22.979  0.00  0.00    +0.000 A 
ATOM     18  C   UNL     1      -4.741  13.710  23.542  0.00  0.00    +0.000 A 
ATOM     19  C   UNL     1      -4.145  14.916  23.888  0.00  0.00    +0.000 A 
ATOM     20 CL   UNL     1      -5.097  16.171  24.575  0.00  0.00    +0.000 Cl
ATOM     21  C   UNL     1      -2.780  15.104  23.683  0.00  0.00    +0.000 A 
ATOM     22  C   UNL     1      -2.007  14.081  23.112  0.00  0.00    +0.000 A 
ENDBRANCH  11  16
BRANCH   1  27
ATOM     23  C   UNL     1       2.104   2.747  19.661  0.00  0.00    +0.000 A 
ATOM     24  C   UNL     1       2.822   1.952  18.766  0.00  0.00    +0.000 A 
ATOM     25  C   UNL     1       3.540   2.530  17.720  0.00  0.00    +0.000 A 
ATOM     26  C   UNL     1       3.545   3.916  17.567  0.00  0.00    +0.000 A 
ATOM     27  C   UNL     1       2.827   4.732  18.453  0.00  0.00    +0.000 A 
ATOM     28  C   UNL     1       2.105   4.134  19.499  0.00  0.00    +0.000 A 
BRANCH  23  30
ATOM     29  C   UNL     1       1.466   2.618  21.949  0.00  0.00    +0.000 C 
ATOM     30  O   UNL     1       1.458   2.050  20.646  0.00  0.00    +0.000 OA
ENDBRANCH  23  30
ENDBRANCH   1  27
TORSDOF 3
ENDMDL
MODEL 9
REMARK VINA RESULT:      -7.0      2.099      2.171
REMARK  Name = 
REMARK  4 active torsions:
REMARK  status: ('A' for Active; 'I' for Inactive)
REMARK    1  A    between atoms: C_1  and  O_2
REMARK    2  A    between atoms: O_2  and  C_3
REMARK    3  A    between atoms: C_7  and  C_8
REMARK    4  A    between atoms: N_18  and  C_19
REMARK                            x       y       z     vdW  Elec       q    Type
REMARK                         _______ _______ _______ _____ _____    ______ ____
ROOT
ATOM      1  C   UNL     1       2.856   5.897  19.361  0.00  0.00    +0.000 A 
ATOM      2  C   UNL     1       3.540   6.169  18.195  0.00  0.00    +0.000 A 
ATOM      3  S   UNL     1       3.175   7.746  17.661  0.00  0.00    +0.000 S 
ATOM      4  C   UNL     1       2.105   7.970  19.010  0.00  0.00    +0.000 A 
ATOM      5  N   UNL     1       1.393   9.114  19.195  0.00  0.00    +0.000 N 
ATOM      6  C   UNL     1       0.967   9.961  18.079  0.00  0.00    +0.000 C 
ATOM      7  C   UNL     1      -0.550  10.164  18.147  0.00  0.00    +0.000 C 
ATOM      8  N   UNL     1      -0.939  10.730  19.445  0.00  0.00    +0.000 N 
ATOM      9  C   UNL     1      -1.685  11.892  19.428  0.00  0.00    +0.000 C 
ATOM     10  O   UNL     1      -1.998  12.406  18.352  0.00  0.00    +0.000 OA
ATOM     11  N   UNL     1      -2.021  12.433  20.646  0.00  0.00    +0.000 N 
ATOM     12  C   UNL     1      -0.534   9.890  20.586  0.00  0.00    +0.000 C 
ATOM     13  C   UNL     1       0.975   9.542  20.536  0.00  0.00    +0.000 C 
ATOM     14  N   UNL     1       2.063   6.938  19.826  0.00  0.00    +0.000 NA
ATOM     15  H   UNL     1      -1.427  12.198  21.424  0.00  0.00    +0.000 HD
ENDROOT
BRANCH  11  16
ATOM     16  C   UNL     1      -2.879  13.550  20.822  0.00  0.00    +0.000 A 
ATOM     17  C   UNL     1      -4.271  13.433  20.922  0.00  0.00    +0.000 A 
ATOM     18  C   UNL     1      -5.084  14.562  21.050  0.00  0.00    +0.000 A 
ATOM     19  C   UNL     1      -4.507  15.824  21.105  0.00  0.00    +0.000 A 
ATOM     20 CL   UNL     1      -5.507  17.213  21.256  0.00  0.00    +0.000 Cl
ATOM     21  C   UNL     1      -3.122  15.961  21.043  0.00  0.00    +0.000 A 
ATOM     22  C   UNL     1      -2.308  14.825  20.908  0.00  0.00    +0.000 A 
ENDBRANCH  11  16
BRANCH   1  27
ATOM     23  C   UNL     1       4.070   2.506  20.441  0.00  0.00    +0.000 A 
ATOM     24  C   UNL     1       3.078   2.144  21.354  0.00  0.00    +0.000 A 
ATOM     25  C   UNL     1       2.011   3.000  21.622  0.00  0.00    +0.000 A 
ATOM     26  C   UNL     1       1.929   4.230  20.971  0.00  0.00    +0.000 A 
ATOM     27  C   UNL     1       2.917   4.614  20.052  0.00  0.00    +0.000 A 
ATOM     28  C   UNL     1       3.989   3.743  19.796  0.00  0.00    +0.000 A 
BRANCH  23  30
ATOM     29  C   UNL     1       5.484   0.864  21.422  0.00  0.00    +0.000 C 
ATOM     30  O   UNL     1       5.048   1.567  20.264  0.00  0.00    +0.000 OA
ENDBRANCH  23  30
ENDBRANCH   1  27
TORSDOF 3
ENDMDL
