MODEL 1
REMARK VINA RESULT:      -6.4      0.000      0.000
REMARK  Name = 
REMARK  6 active torsions:
REMARK  status: ('A' for Active; 'I' for Inactive)
REMARK    1  A    between atoms: C_1  and  C_2
REMARK    2  A    between atoms: C_5  and  C_6
REMARK    3  A    between atoms: C_15  and  N_16
REMARK    4  A    between atoms: N_16  and  C_17
REMARK    5  A    between atoms: C_17  and  C_18
REMARK    6  A    between atoms: C_17  and  C_19
REMARK                            x       y       z     vdW  Elec       q    Type
REMARK                         _______ _______ _______ _____ _____    ______ ____
ROOT
ATOM      1  C   UNL     1       7.545   7.019  16.563  0.00  0.00    +0.000 C 
ATOM      2  C   UNL     1       6.395   6.071  16.781  0.00  0.00    +0.000 A 
ATOM      3  C   UNL     1       5.458   6.412  17.768  0.00  0.00    +0.000 A 
ATOM      4  C   UNL     1       4.333   5.617  17.982  0.00  0.00    +0.000 A 
ATOM      5  C   UNL     1       4.189   4.416  17.299  0.00  0.00    +0.000 A 
ATOM      6  C   UNL     1       5.140   4.064  16.328  0.00  0.00    +0.000 A 
ATOM      7  C   UNL     1       6.246   4.881  16.030  0.00  0.00    +0.000 A 
ENDROOT
BRANCH   5   8
ATOM      8  C   UNL     1       2.997   3.538  17.471  0.00  0.00    +0.000 C 
ATOM      9  O   UNL     1       2.255   3.413  16.494  0.00  0.00    +0.000 OA
ATOM     10  N   UNL     1       2.730   2.903  18.691  0.00  0.00    +0.000 N 
ATOM     11  C   UNL     1       3.617   2.822  19.862  0.00  0.00    +0.000 C 
ATOM     12  C   UNL     1       2.995   3.515  21.079  0.00  0.00    +0.000 C 
ATOM     13  S   UNL     1       1.452   2.687  21.589  0.00  0.00    +0.000 S 
ATOM     14  C   UNL     1       0.602   2.717  19.968  0.00  0.00    +0.000 C 
ATOM     15  C   UNL     1       1.472   2.169  18.835  0.00  0.00    +0.000 C 
ENDBRANCH   5   8
BRANCH   7  16
ATOM     16  N   UNL     1       7.158   4.588  15.008  0.00  0.00    +0.000 N 
ATOM     17  H   UNL     1       8.103   4.857  15.278  0.00  0.00    +0.000 HD
BRANCH  16  18
ATOM     18  C   UNL     1       6.852   4.888  13.601  0.00  0.00    +0.000 C 
ATOM     19  C   UNL     1       8.072   5.402  12.836  0.00  0.00    +0.000 C 
ATOM     20  C   UNL     1       6.343   3.609  12.930  0.00  0.00    +0.000 C 
ENDBRANCH  16  18
ENDBRANCH   7  16
TORSDOF 3
ENDMDL
MODEL 2
REMARK VINA RESULT:      -6.2      1.611      3.210
REMARK  Name = 
REMARK  6 active torsions:
REMARK  status: ('A' for Active; 'I' for Inactive)
REMARK    1  A    between atoms: C_1  and  C_2
REMARK    2  A    between atoms: C_5  and  C_6
REMARK    3  A    between atoms: C_15  and  N_16
REMARK    4  A    between atoms: N_16  and  C_17
REMARK    5  A    between atoms: C_17  and  C_18
REMARK    6  A    between atoms: C_17  and  C_19
REMARK                            x       y       z     vdW  Elec       q    Type
REMARK                         _______ _______ _______ _____ _____    ______ ____
ROOT
ATOM      1  C   UNL     1       7.474   4.867  14.512  0.00  0.00    +0.000 C 
ATOM      2  C   UNL     1       6.288   5.015  15.429  0.00  0.00    +0.000 A 
ATOM      3  C   UNL     1       5.212   4.135  15.236  0.00  0.00    +0.000 A 
ATOM      4  C   UNL     1       4.108   4.170  16.086  0.00  0.00    +0.000 A 
ATOM      5  C   UNL     1       4.011   5.154  17.062  0.00  0.00    +0.000 A 
ATOM      6  C   UNL     1       5.078   6.049  17.238  0.00  0.00    +0.000 A 
ATOM      7  C   UNL     1       6.242   5.994  16.450  0.00  0.00    +0.000 A 
ENDROOT
BRANCH   5   8
ATOM      8  C   UNL     1       2.865   5.225  18.012  0.00  0.00    +0.000 C 
ATOM      9  O   UNL     1       2.226   6.280  18.032  0.00  0.00    +0.000 OA
ATOM     10  N   UNL     1       2.546   4.150  18.851  0.00  0.00    +0.000 N 
ATOM     11  C   UNL     1       3.105   2.790  18.802  0.00  0.00    +0.000 C 
ATOM     12  C   UNL     1       3.856   2.449  20.093  0.00  0.00    +0.000 C 
ATOM     13  S   UNL     1       2.730   2.452  21.528  0.00  0.00    +0.000 S 
ATOM     14  C   UNL     1       2.012   4.118  21.282  0.00  0.00    +0.000 C 
ATOM     15  C   UNL     1       1.499   4.335  19.857  0.00  0.00    +0.000 C 
ENDBRANCH   5   8
BRANCH   7  16
ATOM     16  N   UNL     1       7.350   6.822  16.666  0.00  0.00    +0.000 N 
ATOM     17  H   UNL     1       8.208   6.369  16.356  0.00  0.00    +0.000 HD
BRANCH  16  18
ATOM     18  C   UNL     1       7.514   7.567  17.924  0.00  0.00    +0.000 C 
ATOM     19  C   UNL     1       8.313   6.783  18.966  0.00  0.00    +0.000 C 
ATOM     20  C   UNL     1       8.240   8.881  17.621  0.00  0.00    +0.000 C 
ENDBRANCH  16  18
ENDBRANCH   7  16
TORSDOF 3
ENDMDL
MODEL 3
REMARK VINA RESULT:      -6.2      6.126      8.102
REMARK  Name = 
REMARK  6 active torsions:
REMARK  status: ('A' for Active; 'I' for Inactive)
REMARK    1  A    between atoms: C_1  and  C_2
REMARK    2  A    between atoms: C_5  and  C_6
REMARK    3  A    between atoms: C_15  and  N_16
REMARK    4  A    between atoms: N_16  and  C_17
REMARK    5  A    between atoms: C_17  and  C_18
REMARK    6  A    between atoms: C_17  and  C_19
REMARK                            x       y       z     vdW  Elec       q    Type
REMARK                         _______ _______ _______ _____ _____    ______ ____
ROOT
ATOM      1  C   UNL     1       3.677   6.134  17.683  0.00  0.00    +0.000 C 
ATOM      2  C   UNL     1       2.820   7.119  18.435  0.00  0.00    +0.000 A 
ATOM      3  C   UNL     1       2.457   8.298  17.767  0.00  0.00    +0.000 A 
ATOM      4  C   UNL     1       1.614   9.226  18.376  0.00  0.00    +0.000 A 
ATOM      5  C   UNL     1       1.218   9.047  19.695  0.00  0.00    +0.000 A 
ATOM      6  C   UNL     1       1.601   7.878  20.371  0.00  0.00    +0.000 A 
ATOM      7  C   UNL     1       2.386   6.883  19.762  0.00  0.00    +0.000 A 
ENDROOT
BRANCH   5   8
ATOM      8  C   UNL     1       0.299   9.995  20.388  0.00  0.00    +0.000 C 
ATOM      9  O   UNL     1      -0.632   9.497  21.026  0.00  0.00    +0.000 OA
ATOM     10  N   UNL     1       0.480  11.381  20.300  0.00  0.00    +0.000 N 
ATOM     11  C   UNL     1       1.637  12.091  19.732  0.00  0.00    +0.000 C 
ATOM     12  C   UNL     1       1.229  12.940  18.524  0.00  0.00    +0.000 C 
ATOM     13  S   UNL     1       0.055  14.250  19.008  0.00  0.00    +0.000 S 
ATOM     14  C   UNL     1      -1.173  13.188  19.854  0.00  0.00    +0.000 C 
ATOM     15  C   UNL     1      -0.535  12.257  20.887  0.00  0.00    +0.000 C 
ENDBRANCH   5   8
BRANCH   7  16
ATOM     16  N   UNL     1       2.708   5.674  20.390  0.00  0.00    +0.000 N 
ATOM     17  H   UNL     1       3.564   5.280  20.002  0.00  0.00    +0.000 HD
BRANCH  16  18
ATOM     18  C   UNL     1       1.681   4.658  20.666  0.00  0.00    +0.000 C 
ATOM     19  C   UNL     1       1.246   3.909  19.406  0.00  0.00    +0.000 C 
ATOM     20  C   UNL     1       2.247   3.654  21.675  0.00  0.00    +0.000 C 
ENDBRANCH  16  18
ENDBRANCH   7  16
TORSDOF 3
ENDMDL
MODEL 4
REMARK VINA RESULT:      -6.0      4.548      6.744
REMARK  Name = 
REMARK  6 active torsions:
REMARK  status: ('A' for Active; 'I' for Inactive)
REMARK    1  A    between atoms: C_1  and  C_2
REMARK    2  A    between atoms: C_5  and  C_6
REMARK    3  A    between atoms: C_15  and  N_16
REMARK    4  A    between atoms: N_16  and  C_17
REMARK    5  A    between atoms: C_17  and  C_18
REMARK    6  A    between atoms: C_17  and  C_19
REMARK                            x       y       z     vdW  Elec       q    Type
REMARK                         _______ _______ _______ _____ _____    ______ ____
ROOT
ATOM      1  C   UNL     1       4.870   4.113  19.056  0.00  0.00    +0.000 C 
ATOM      2  C   UNL     1       4.052   5.372  18.929  0.00  0.00    +0.000 A 
ATOM      3  C   UNL     1       4.368   6.241  17.874  0.00  0.00    +0.000 A 
ATOM      4  C   UNL     1       3.614   7.392  17.656  0.00  0.00    +0.000 A 
ATOM      5  C   UNL     1       2.613   7.751  18.550  0.00  0.00    +0.000 A 
ATOM      6  C   UNL     1       2.313   6.891  19.619  0.00  0.00    +0.000 A 
ATOM      7  C   UNL     1       3.001   5.682  19.826  0.00  0.00    +0.000 A 
ENDROOT
BRANCH   5   8
ATOM      8  C   UNL     1       1.761   8.958  18.353  0.00  0.00    +0.000 C 
ATOM      9  O   UNL     1       1.871   9.543  17.273  0.00  0.00    +0.000 OA
ATOM     10  N   UNL     1       0.894   9.410  19.356  0.00  0.00    +0.000 N 
ATOM     11  C   UNL     1       0.538   8.712  20.602  0.00  0.00    +0.000 C 
ATOM     12  C   UNL     1       0.982   9.509  21.832  0.00  0.00    +0.000 C 
ATOM     13  S   UNL     1       0.120  11.115  21.920  0.00  0.00    +0.000 S 
ATOM     14  C   UNL     1       0.520  11.708  20.235  0.00  0.00    +0.000 C 
ATOM     15  C   UNL     1       0.191  10.677  19.153  0.00  0.00    +0.000 C 
ENDBRANCH   5   8
BRANCH   7  16
ATOM     16  N   UNL     1       2.661   4.774  20.835  0.00  0.00    +0.000 N 
ATOM     17  H   UNL     1       3.471   4.223  21.115  0.00  0.00    +0.000 HD
BRANCH  16  18
ATOM     18  C   UNL     1       1.423   3.983  20.767  0.00  0.00    +0.000 C 
ATOM     19  C   UNL     1       1.086   3.545  19.341  0.00  0.00    +0.000 C 
ATOM     20  C   UNL     1       1.590   2.739  21.646  0.00  0.00    +0.000 C 
ENDBRANCH  16  18
ENDBRANCH   7  16
TORSDOF 3
ENDMDL
MODEL 5
REMARK VINA RESULT:      -5.8      4.144      5.476
REMARK  Name = 
REMARK  6 active torsions:
REMARK  status: ('A' for Active; 'I' for Inactive)
REMARK    1  A    between atoms: C_1  and  C_2
REMARK    2  A    between atoms: C_5  and  C_6
REMARK    3  A    between atoms: C_15  and  N_16
REMARK    4  A    between atoms: N_16  and  C_17
REMARK    5  A    between atoms: C_17  and  C_18
REMARK    6  A    between atoms: C_17  and  C_19
REMARK                            x       y       z     vdW  Elec       q    Type
REMARK                         _______ _______ _______ _____ _____    ______ ____
ROOT
ATOM      1  C   UNL     1       4.161   2.915  16.997  0.00  0.00    +0.000 C 
ATOM      2  C   UNL     1       3.607   4.020  17.858  0.00  0.00    +0.000 A 
ATOM      3  C   UNL     1       2.235   4.294  17.751  0.00  0.00    +0.000 A 
ATOM      4  C   UNL     1       1.640   5.258  18.562  0.00  0.00    +0.000 A 
ATOM      5  C   UNL     1       2.421   6.040  19.404  0.00  0.00    +0.000 A 
ATOM      6  C   UNL     1       3.799   5.781  19.492  0.00  0.00    +0.000 A 
ATOM      7  C   UNL     1       4.420   4.763  18.747  0.00  0.00    +0.000 A 
ENDROOT
BRANCH   5   8
ATOM      8  C   UNL     1       1.836   7.070  20.308  0.00  0.00    +0.000 C 
ATOM      9  O   UNL     1       1.547   6.704  21.450  0.00  0.00    +0.000 OA
ATOM     10  N   UNL     1       1.611   8.381  19.872  0.00  0.00    +0.000 N 
ATOM     11  C   UNL     1       2.070   8.988  18.612  0.00  0.00    +0.000 C 
ATOM     12  C   UNL     1       0.888   9.416  17.737  0.00  0.00    +0.000 C 
ATOM     13  S   UNL     1      -0.102  10.711  18.559  0.00  0.00    +0.000 S 
ATOM     14  C   UNL     1      -0.386   9.842  20.145  0.00  0.00    +0.000 C 
ATOM     15  C   UNL     1       0.907   9.304  20.763  0.00  0.00    +0.000 C 
ENDBRANCH   5   8
BRANCH   7  16
ATOM     16  N   UNL     1       5.775   4.436  18.884  0.00  0.00    +0.000 N 
ATOM     17  H   UNL     1       5.971   4.092  19.823  0.00  0.00    +0.000 HD
BRANCH  16  18
ATOM     18  C   UNL     1       6.831   5.316  18.362  0.00  0.00    +0.000 C 
ATOM     19  C   UNL     1       7.855   5.699  19.431  0.00  0.00    +0.000 C 
ATOM     20  C   UNL     1       7.549   4.591  17.219  0.00  0.00    +0.000 C 
ENDBRANCH  16  18
ENDBRANCH   7  16
TORSDOF 3
ENDMDL
MODEL 6
REMARK VINA RESULT:      -5.8      5.413      7.549
REMARK  Name = 
REMARK  6 active torsions:
REMARK  status: ('A' for Active; 'I' for Inactive)
REMARK    1  A    between atoms: C_1  and  C_2
REMARK    2  A    between atoms: C_5  and  C_6
REMARK    3  A    between atoms: C_15  and  N_16
REMARK    4  A    between atoms: N_16  and  C_17
REMARK    5  A    between atoms: C_17  and  C_18
REMARK    6  A    between atoms: C_17  and  C_19
REMARK                            x       y       z     vdW  Elec       q    Type
REMARK                         _______ _______ _______ _____ _____    ______ ____
ROOT
ATOM      1  C   UNL     1       3.232   4.892  17.543  0.00  0.00    +0.000 C 
ATOM      2  C   UNL     1       2.729   5.947  18.494  0.00  0.00    +0.000 A 
ATOM      3  C   UNL     1       2.626   7.258  18.005  0.00  0.00    +0.000 A 
ATOM      4  C   UNL     1       2.108   8.274  18.806  0.00  0.00    +0.000 A 
ATOM      5  C   UNL     1       1.797   8.022  20.136  0.00  0.00    +0.000 A 
ATOM      6  C   UNL     1       1.923   6.714  20.631  0.00  0.00    +0.000 A 
ATOM      7  C   UNL     1       2.368   5.648  19.829  0.00  0.00    +0.000 A 
ENDROOT
BRANCH   5   8
ATOM      8  C   UNL     1       1.219   9.064  21.032  0.00  0.00    +0.000 C 
ATOM      9  O   UNL     1       1.177   8.798  22.236  0.00  0.00    +0.000 OA
ATOM     10  N   UNL     1       0.734  10.275  20.523  0.00  0.00    +0.000 N 
ATOM     11  C   UNL     1       0.887  10.786  19.152  0.00  0.00    +0.000 C 
ATOM     12  C   UNL     1      -0.473  10.951  18.465  0.00  0.00    +0.000 C 
ATOM     13  S   UNL     1      -1.497  12.191  19.326  0.00  0.00    +0.000 S 
ATOM     14  C   UNL     1      -1.387  11.483  21.010  0.00  0.00    +0.000 C 
ATOM     15  C   UNL     1       0.054  11.194  21.436  0.00  0.00    +0.000 C 
ENDBRANCH   5   8
BRANCH   7  16
ATOM     16  N   UNL     1       2.420   4.324  20.281  0.00  0.00    +0.000 N 
ATOM     17  H   UNL     1       3.141   3.800  19.786  0.00  0.00    +0.000 HD
BRANCH  16  18
ATOM     18  C   UNL     1       1.194   3.543  20.507  0.00  0.00    +0.000 C 
ATOM     19  C   UNL     1       0.777   2.741  19.274  0.00  0.00    +0.000 C 
ATOM     20  C   UNL     1       1.437   2.579  21.672  0.00  0.00    +0.000 C 
ENDBRANCH  16  18
ENDBRANCH   7  16
TORSDOF 3
ENDMDL
MODEL 7
REMARK VINA RESULT:      -5.8      6.831      8.394
REMARK  Name = 
REMARK  6 active torsions:
REMARK  status: ('A' for Active; 'I' for Inactive)
REMARK    1  A    between atoms: C_1  and  C_2
REMARK    2  A    between atoms: C_5  and  C_6
REMARK    3  A    between atoms: C_15  and  N_16
REMARK    4  A    between atoms: N_16  and  C_17
REMARK    5  A    between atoms: C_17  and  C_18
REMARK    6  A    between atoms: C_17  and  C_19
REMARK                            x       y       z     vdW  Elec       q    Type
REMARK                         _______ _______ _______ _____ _____    ______ ____
ROOT
ATOM      1  C   UNL     1       2.967   7.587  17.585  0.00  0.00    +0.000 C 
ATOM      2  C   UNL     1       2.167   8.147  18.732  0.00  0.00    +0.000 A 
ATOM      3  C   UNL     1       1.526   9.378  18.530  0.00  0.00    +0.000 A 
ATOM      4  C   UNL     1       0.717   9.927  19.523  0.00  0.00    +0.000 A 
ATOM      5  C   UNL     1       0.630   9.316  20.768  0.00  0.00    +0.000 A 
ATOM      6  C   UNL     1       1.291   8.095  20.977  0.00  0.00    +0.000 A 
ATOM      7  C   UNL     1       2.053   7.473  19.971  0.00  0.00    +0.000 A 
ENDROOT
BRANCH   5   8
ATOM      8  C   UNL     1      -0.237   9.845  21.858  0.00  0.00    +0.000 C 
ATOM      9  O   UNL     1      -0.748   9.014  22.613  0.00  0.00    +0.000 OA
ATOM     10  N   UNL     1      -0.471  11.219  22.002  0.00  0.00    +0.000 N 
ATOM     11  C   UNL     1       0.211  12.313  21.293  0.00  0.00    +0.000 C 
ATOM     12  C   UNL     1      -0.771  13.117  20.435  0.00  0.00    +0.000 C 
ATOM     13  S   UNL     1      -2.034  13.931  21.471  0.00  0.00    +0.000 S 
ATOM     14  C   UNL     1      -2.598  12.451  22.389  0.00  0.00    +0.000 C 
ATOM     15  C   UNL     1      -1.440  11.662  23.004  0.00  0.00    +0.000 C 
ENDBRANCH   5   8
BRANCH   7  16
ATOM     16  N   UNL     1       2.650   6.217  20.134  0.00  0.00    +0.000 N 
ATOM     17  H   UNL     1       3.509   6.150  19.590  0.00  0.00    +0.000 HD
BRANCH  16  18
ATOM     18  C   UNL     1       1.853   4.981  20.105  0.00  0.00    +0.000 C 
ATOM     19  C   UNL     1       2.045   4.192  18.810  0.00  0.00    +0.000 C 
ATOM     20  C   UNL     1       2.267   4.105  21.291  0.00  0.00    +0.000 C 
ENDBRANCH  16  18
ENDBRANCH   7  16
TORSDOF 3
ENDMDL
MODEL 8
REMARK VINA RESULT:      -5.8      5.243      7.796
REMARK  Name = 
REMARK  6 active torsions:
REMARK  status: ('A' for Active; 'I' for Inactive)
REMARK    1  A    between atoms: C_1  and  C_2
REMARK    2  A    between atoms: C_5  and  C_6
REMARK    3  A    between atoms: C_15  and  N_16
REMARK    4  A    between atoms: N_16  and  C_17
REMARK    5  A    between atoms: C_17  and  C_18
REMARK    6  A    between atoms: C_17  and  C_19
REMARK                            x       y       z     vdW  Elec       q    Type
REMARK                         _______ _______ _______ _____ _____    ______ ____
ROOT
ATOM      1  C   UNL     1       0.304  11.366  18.674  0.00  0.00    +0.000 C 
ATOM      2  C   UNL     1       0.957  10.027  18.900  0.00  0.00    +0.000 A 
ATOM      3  C   UNL     1       1.332   9.294  17.764  0.00  0.00    +0.000 A 
ATOM      4  C   UNL     1       1.998   8.077  17.896  0.00  0.00    +0.000 A 
ATOM      5  C   UNL     1       2.195   7.522  19.154  0.00  0.00    +0.000 A 
ATOM      6  C   UNL     1       1.799   8.247  20.289  0.00  0.00    +0.000 A 
ATOM      7  C   UNL     1       1.194   9.513  20.198  0.00  0.00    +0.000 A 
ENDROOT
BRANCH   5   8
ATOM      8  C   UNL     1       2.920   6.236  19.355  0.00  0.00    +0.000 C 
ATOM      9  O   UNL     1       2.555   5.535  20.302  0.00  0.00    +0.000 OA
ATOM     10  N   UNL     1       3.976   5.855  18.516  0.00  0.00    +0.000 N 
ATOM     11  C   UNL     1       4.388   6.501  17.260  0.00  0.00    +0.000 C 
ATOM     12  C   UNL     1       5.813   7.055  17.360  0.00  0.00    +0.000 C 
ATOM     13  S   UNL     1       7.021   5.714  17.627  0.00  0.00    +0.000 S 
ATOM     14  C   UNL     1       6.221   4.939  19.080  0.00  0.00    +0.000 C 
ATOM     15  C   UNL     1       4.735   4.650  18.851  0.00  0.00    +0.000 C 
ENDBRANCH   5   8
BRANCH   7  16
ATOM     16  N   UNL     1       0.868  10.286  21.319  0.00  0.00    +0.000 N 
ATOM     17  H   UNL     1       1.679  10.404  21.925  0.00  0.00    +0.000 HD
BRANCH  16  18
ATOM     18  C   UNL     1      -0.380  10.065  22.064  0.00  0.00    +0.000 C 
ATOM     19  C   UNL     1      -0.141   9.411  23.425  0.00  0.00    +0.000 C 
ATOM     20  C   UNL     1      -1.069  11.417  22.273  0.00  0.00    +0.000 C 
ENDBRANCH  16  18
ENDBRANCH   7  16
TORSDOF 3
ENDMDL
MODEL 9
REMARK VINA RESULT:      -5.7      4.821      7.256
REMARK  Name = 
REMARK  6 active torsions:
REMARK  status: ('A' for Active; 'I' for Inactive)
REMARK    1  A    between atoms: C_1  and  C_2
REMARK    2  A    between atoms: C_5  and  C_6
REMARK    3  A    between atoms: C_15  and  N_16
REMARK    4  A    between atoms: N_16  and  C_17
REMARK    5  A    between atoms: C_17  and  C_18
REMARK    6  A    between atoms: C_17  and  C_19
REMARK                            x       y       z     vdW  Elec       q    Type
REMARK                         _______ _______ _______ _____ _____    ______ ____
ROOT
ATOM      1  C   UNL     1      -0.177  11.310  19.320  0.00  0.00    +0.000 C 
ATOM      2  C   UNL     1       0.665  10.065  19.224  0.00  0.00    +0.000 A 
ATOM      3  C   UNL     1       0.881   9.530  17.945  0.00  0.00    +0.000 A 
ATOM      4  C   UNL     1       1.702   8.417  17.772  0.00  0.00    +0.000 A 
ATOM      5  C   UNL     1       2.222   7.756  18.878  0.00  0.00    +0.000 A 
ATOM      6  C   UNL     1       1.987   8.280  20.160  0.00  0.00    +0.000 A 
ATOM      7  C   UNL     1       1.228   9.446  20.366  0.00  0.00    +0.000 A 
ENDROOT
BRANCH   5   8
ATOM      8  C   UNL     1       3.123   6.576  18.752  0.00  0.00    +0.000 C 
ATOM      9  O   UNL     1       4.051   6.672  17.944  0.00  0.00    +0.000 OA
ATOM     10  N   UNL     1       2.911   5.413  19.502  0.00  0.00    +0.000 N 
ATOM     11  C   UNL     1       1.966   5.236  20.616  0.00  0.00    +0.000 C 
ATOM     12  C   UNL     1       0.911   4.175  20.286  0.00  0.00    +0.000 C 
ATOM     13  S   UNL     1       1.678   2.538  20.045  0.00  0.00    +0.000 S 
ATOM     14  C   UNL     1       2.926   3.025  18.798  0.00  0.00    +0.000 C 
ATOM     15  C   UNL     1       3.747   4.243  19.229  0.00  0.00    +0.000 C 
ENDBRANCH   5   8
BRANCH   7  16
ATOM     16  N   UNL     1       1.052  10.028  21.627  0.00  0.00    +0.000 N 
ATOM     17  H   UNL     1       1.951  10.254  22.050  0.00  0.00    +0.000 HD
BRANCH  16  18
ATOM     18  C   UNL     1       0.082   9.487  22.591  0.00  0.00    +0.000 C 
ATOM     19  C   UNL     1      -0.936  10.533  23.046  0.00  0.00    +0.000 C 
ATOM     20  C   UNL     1      -0.660   8.320  21.933  0.00  0.00    +0.000 C 
ENDBRANCH  16  18
ENDBRANCH   7  16
TORSDOF 3
ENDMDL
