MODEL 1
REMARK VINA RESULT:      -8.0      0.000      0.000
REMARK  Name = 
REMARK  8 active torsions:
REMARK  status: ('A' for Active; 'I' for Inactive)
REMARK    1  A    between atoms: C_1  and  O_2
REMARK    2  A    between atoms: O_2  and  C_3
REMARK    3  A    between atoms: C_3  and  C_5
REMARK    4  A    between atoms: C_6  and  C_7
REMARK    5  A    between atoms: C_10  and  C_11
REMARK    6  A    between atoms: C_11  and  C_12
REMARK    7  A    between atoms: N_24  and  C_25
REMARK    8  A    between atoms: C_25  and  C_26
REMARK                            x       y       z     vdW  Elec       q    Type
REMARK                         _______ _______ _______ _____ _____    ______ ____
ROOT
ATOM      1  C   UNL     1       0.393   9.915  20.421  0.00  0.00    +0.000 C 
ATOM      2  C   UNL     1       1.226   9.645  19.382  0.00  0.00    +0.000 C 
ATOM      3  C   UNL     1       1.527  10.714  18.329  0.00  0.00    +0.000 C 
ATOM      4  C   UNL     1       0.924  12.091  18.700  0.00  0.00    +0.000 C 
ATOM      5  C   UNL     1       1.640  12.730  19.900  0.00  0.00    +0.000 C 
ATOM      6  C   UNL     1       0.841  12.263  21.134  0.00  0.00    +0.000 C 
ATOM      7  C   UNL     1      -0.215  11.305  20.569  0.00  0.00    +0.000 C 
ATOM      8  N   UNL     1      -0.407  11.851  19.232  0.00  0.00    +0.000 N 
ATOM      9  C   UNL     1      -1.493  11.800  18.409  0.00  0.00    +0.000 C 
ATOM     10  O   UNL     1      -1.429  12.146  17.232  0.00  0.00    +0.000 OA
ATOM     11  N   UNL     1      -2.656  11.337  18.965  0.00  0.00    +0.000 N 
ATOM     12  H   UNL     1      -2.772  11.427  19.961  0.00  0.00    +0.000 HD
ENDROOT
BRANCH   2  13
ATOM     13  C   UNL     1       1.890   8.355  19.146  0.00  0.00    +0.000 A 
ATOM     14  C   UNL     1       1.959   7.406  20.170  0.00  0.00    +0.000 A 
ATOM     15  C   UNL     1       2.594   6.174  19.964  0.00  0.00    +0.000 A 
ATOM     16  C   UNL     1       3.171   5.875  18.725  0.00  0.00    +0.000 A 
ATOM     17  C   UNL     1       3.090   6.825  17.696  0.00  0.00    +0.000 A 
ATOM     18  C   UNL     1       2.453   8.056  17.902  0.00  0.00    +0.000 A 
BRANCH  16  19
ATOM     19  C   UNL     1       3.876   4.585  18.431  0.00  0.00    +0.000 C 
ATOM     20  C   UNL     1       4.206   4.182  17.016  0.00  0.00    +0.000 C 
ATOM     21  O   UNL     1       4.204   3.853  19.366  0.00  0.00    +0.000 OA
ENDBRANCH  16  19
ENDBRANCH   2  13
BRANCH   1  22
ATOM     22  C   UNL     1       0.013   8.916  21.465  0.00  0.00    +0.000 C 
ATOM     23  O   UNL     1      -0.874   8.085  21.360  0.00  0.00    +0.000 OA
BRANCH  22  25
ATOM     24  C   UNL     1       0.068   9.519  23.721  0.00  0.00    +0.000 C 
ATOM     25  O   UNL     1       0.787   9.092  22.566  0.00  0.00    +0.000 OA
ENDBRANCH  22  25
ENDBRANCH   1  22
BRANCH  11  26
ATOM     26  C   UNL     1      -3.852  11.442  18.170  0.00  0.00    +0.000 C 
BRANCH  26  27
ATOM     27  C   UNL     1      -5.096  11.726  18.968  0.00  0.00    +0.000 A 
ATOM     28  C   UNL     1      -6.231  10.888  18.826  0.00  0.00    +0.000 A 
ATOM     29  C   UNL     1      -7.273  10.923  19.756  0.00  0.00    +0.000 A 
ATOM     30  C   UNL     1      -7.129  11.775  20.827  0.00  0.00    +0.000 A 
ATOM     31  C   UNL     1      -6.065  12.644  20.931  0.00  0.00    +0.000 A 
ATOM     32  C   UNL     1      -5.053  12.675  20.000  0.00  0.00    +0.000 A 
ATOM     33  O   UNL     1      -6.079  13.330  22.108  0.00  0.00    +0.000 OA
ATOM     34  C   UNL     1      -7.040  12.533  22.825  0.00  0.00    +0.000 C 
ATOM     35  O   UNL     1      -7.916  11.802  21.940  0.00  0.00    +0.000 OA
ENDBRANCH  26  27
ENDBRANCH  11  26
TORSDOF 6
ENDMDL
MODEL 2
REMARK VINA RESULT:      -7.9      1.259      1.790
REMARK  Name = 
REMARK  8 active torsions:
REMARK  status: ('A' for Active; 'I' for Inactive)
REMARK    1  A    between atoms: C_1  and  O_2
REMARK    2  A    between atoms: O_2  and  C_3
REMARK    3  A    between atoms: C_3  and  C_5
REMARK    4  A    between atoms: C_6  and  C_7
REMARK    5  A    between atoms: C_10  and  C_11
REMARK    6  A    between atoms: C_11  and  C_12
REMARK    7  A    between atoms: N_24  and  C_25
REMARK    8  A    between atoms: C_25  and  C_26
REMARK                            x       y       z     vdW  Elec       q    Type
REMARK                         _______ _______ _______ _____ _____    ______ ____
ROOT
ATOM      1  C   UNL     1       0.868  10.349  20.622  0.00  0.00    +0.000 C 
ATOM      2  C   UNL     1       1.296   9.588  19.581  0.00  0.00    +0.000 C 
ATOM      3  C   UNL     1       1.387  10.179  18.172  0.00  0.00    +0.000 C 
ATOM      4  C   UNL     1       1.106  11.701  18.154  0.00  0.00    +0.000 C 
ATOM      5  C   UNL     1       2.233  12.504  18.822  0.00  0.00    +0.000 C 
ATOM      6  C   UNL     1       1.806  12.637  20.298  0.00  0.00    +0.000 C 
ATOM      7  C   UNL     1       0.515  11.816  20.401  0.00  0.00    +0.000 C 
ATOM      8  N   UNL     1      -0.013  11.945  19.050  0.00  0.00    +0.000 N 
ATOM      9  C   UNL     1      -1.298  11.887  18.599  0.00  0.00    +0.000 C 
ATOM     10  O   UNL     1      -1.560  11.825  17.400  0.00  0.00    +0.000 OA
ATOM     11  N   UNL     1      -2.279  11.895  19.555  0.00  0.00    +0.000 N 
ATOM     12  H   UNL     1      -2.067  12.314  20.444  0.00  0.00    +0.000 HD
ENDROOT
BRANCH   2  13
ATOM     13  C   UNL     1       1.688   8.174  19.674  0.00  0.00    +0.000 A 
ATOM     14  C   UNL     1       2.510   7.611  18.694  0.00  0.00    +0.000 A 
ATOM     15  C   UNL     1       2.888   6.263  18.763  0.00  0.00    +0.000 A 
ATOM     16  C   UNL     1       2.446   5.459  19.819  0.00  0.00    +0.000 A 
ATOM     17  C   UNL     1       1.631   6.031  20.807  0.00  0.00    +0.000 A 
ATOM     18  C   UNL     1       1.254   7.379  20.738  0.00  0.00    +0.000 A 
BRANCH  16  19
ATOM     19  C   UNL     1       2.798   4.008  19.957  0.00  0.00    +0.000 C 
ATOM     20  C   UNL     1       1.766   2.993  20.380  0.00  0.00    +0.000 C 
ATOM     21  O   UNL     1       3.946   3.641  19.704  0.00  0.00    +0.000 OA
ENDBRANCH  16  19
ENDBRANCH   2  13
BRANCH   1  22
ATOM     22  C   UNL     1       0.710   9.838  22.017  0.00  0.00    +0.000 C 
ATOM     23  O   UNL     1       1.622   9.609  22.796  0.00  0.00    +0.000 OA
BRANCH  22  25
ATOM     24  C   UNL     1      -1.168  10.584  23.188  0.00  0.00    +0.000 C 
ATOM     25  O   UNL     1      -0.606   9.637  22.282  0.00  0.00    +0.000 OA
ENDBRANCH  22  25
ENDBRANCH   1  22
BRANCH  11  26
ATOM     26  C   UNL     1      -3.640  12.014  19.099  0.00  0.00    +0.000 C 
BRANCH  26  27
ATOM     27  C   UNL     1      -4.597  12.509  20.149  0.00  0.00    +0.000 A 
ATOM     28  C   UNL     1      -5.995  12.408  19.934  0.00  0.00    +0.000 A 
ATOM     29  C   UNL     1      -6.899  12.559  20.988  0.00  0.00    +0.000 A 
ATOM     30  C   UNL     1      -6.372  12.775  22.240  0.00  0.00    +0.000 A 
ATOM     31  C   UNL     1      -5.020  12.948  22.444  0.00  0.00    +0.000 A 
ATOM     32  C   UNL     1      -4.110  12.862  21.417  0.00  0.00    +0.000 A 
ATOM     33  O   UNL     1      -4.713  13.062  23.766  0.00  0.00    +0.000 OA
ATOM     34  C   UNL     1      -5.951  12.588  24.329  0.00  0.00    +0.000 C 
ATOM     35  O   UNL     1      -7.061  12.735  23.416  0.00  0.00    +0.000 OA
ENDBRANCH  26  27
ENDBRANCH  11  26
TORSDOF 6
ENDMDL
MODEL 3
REMARK VINA RESULT:      -7.9      1.727      9.333
REMARK  Name = 
REMARK  8 active torsions:
REMARK  status: ('A' for Active; 'I' for Inactive)
REMARK    1  A    between atoms: C_1  and  O_2
REMARK    2  A    between atoms: O_2  and  C_3
REMARK    3  A    between atoms: C_3  and  C_5
REMARK    4  A    between atoms: C_6  and  C_7
REMARK    5  A    between atoms: C_10  and  C_11
REMARK    6  A    between atoms: C_11  and  C_12
REMARK    7  A    between atoms: N_24  and  C_25
REMARK    8  A    between atoms: C_25  and  C_26
REMARK                            x       y       z     vdW  Elec       q    Type
REMARK                         _______ _______ _______ _____ _____    ______ ____
ROOT
ATOM      1  C   UNL     1      -1.309  11.470  19.362  0.00  0.00    +0.000 C 
ATOM      2  C   UNL     1      -1.680  12.151  20.478  0.00  0.00    +0.000 C 
ATOM      3  C   UNL     1      -0.629  12.632  21.480  0.00  0.00    +0.000 C 
ATOM      4  C   UNL     1       0.816  12.394  20.977  0.00  0.00    +0.000 C 
ATOM      5  C   UNL     1       1.175  13.311  19.798  0.00  0.00    +0.000 C 
ATOM      6  C   UNL     1       0.807  12.500  18.538  0.00  0.00    +0.000 C 
ATOM      7  C   UNL     1       0.167  11.216  19.079  0.00  0.00    +0.000 C 
ATOM      8  N   UNL     1       0.847  11.078  20.360  0.00  0.00    +0.000 N 
ATOM      9  C   UNL     1       1.114   9.962  21.098  0.00  0.00    +0.000 C 
ATOM     10  O   UNL     1       1.528  10.035  22.252  0.00  0.00    +0.000 OA
ATOM     11  N   UNL     1       0.889   8.759  20.484  0.00  0.00    +0.000 N 
ATOM     12  H   UNL     1       0.923   8.728  19.479  0.00  0.00    +0.000 HD
ENDROOT
BRANCH   2  13
ATOM     13  C   UNL     1      -3.065  12.478  20.846  0.00  0.00    +0.000 A 
ATOM     14  C   UNL     1      -3.462  12.435  22.185  0.00  0.00    +0.000 A 
ATOM     15  C   UNL     1      -4.780  12.738  22.553  0.00  0.00    +0.000 A 
ATOM     16  C   UNL     1      -5.722  13.088  21.581  0.00  0.00    +0.000 A 
ATOM     17  C   UNL     1      -5.317  13.142  20.238  0.00  0.00    +0.000 A 
ATOM     18  C   UNL     1      -3.999  12.841  19.871  0.00  0.00    +0.000 A 
BRANCH  16  19
ATOM     19  C   UNL     1      -7.151  13.414  21.893  0.00  0.00    +0.000 C 
ATOM     20  C   UNL     1      -7.903  14.456  21.103  0.00  0.00    +0.000 C 
ATOM     21  O   UNL     1      -7.721  12.808  22.800  0.00  0.00    +0.000 OA
ENDBRANCH  16  19
ENDBRANCH   2  13
BRANCH   1  22
ATOM     22  C   UNL     1      -2.274  10.929  18.357  0.00  0.00    +0.000 C 
ATOM     23  O   UNL     1      -2.895   9.884  18.462  0.00  0.00    +0.000 OA
BRANCH  22  25
ATOM     24  C   UNL     1      -2.700  11.123  16.069  0.00  0.00    +0.000 C 
ATOM     25  O   UNL     1      -2.334  11.765  17.289  0.00  0.00    +0.000 OA
ENDBRANCH  22  25
ENDBRANCH   1  22
BRANCH  11  26
ATOM     26  C   UNL     1       1.330   7.576  21.176  0.00  0.00    +0.000 C 
BRANCH  26  27
ATOM     27  C   UNL     1       1.888   6.509  20.273  0.00  0.00    +0.000 A 
ATOM     28  C   UNL     1       2.635   6.876  19.125  0.00  0.00    +0.000 A 
ATOM     29  C   UNL     1       3.422   5.941  18.448  0.00  0.00    +0.000 A 
ATOM     30  C   UNL     1       3.464   4.666  18.964  0.00  0.00    +0.000 A 
ATOM     31  C   UNL     1       2.683   4.285  20.034  0.00  0.00    +0.000 A 
ATOM     32  C   UNL     1       1.854   5.168  20.685  0.00  0.00    +0.000 A 
ATOM     33  O   UNL     1       2.947   3.008  20.430  0.00  0.00    +0.000 OA
ATOM     34  C   UNL     1       4.189   2.806  19.730  0.00  0.00    +0.000 C 
ATOM     35  O   UNL     1       4.324   3.678  18.587  0.00  0.00    +0.000 OA
ENDBRANCH  26  27
ENDBRANCH  11  26
TORSDOF 6
ENDMDL
MODEL 4
REMARK VINA RESULT:      -7.9      2.115      9.488
REMARK  Name = 
REMARK  8 active torsions:
REMARK  status: ('A' for Active; 'I' for Inactive)
REMARK    1  A    between atoms: C_1  and  O_2
REMARK    2  A    between atoms: O_2  and  C_3
REMARK    3  A    between atoms: C_3  and  C_5
REMARK    4  A    between atoms: C_6  and  C_7
REMARK    5  A    between atoms: C_10  and  C_11
REMARK    6  A    between atoms: C_11  and  C_12
REMARK    7  A    between atoms: N_24  and  C_25
REMARK    8  A    between atoms: C_25  and  C_26
REMARK                            x       y       z     vdW  Elec       q    Type
REMARK                         _______ _______ _______ _____ _____    ______ ____
ROOT
ATOM      1  C   UNL     1      -2.132  12.431  19.412  0.00  0.00    +0.000 C 
ATOM      2  C   UNL     1      -2.247  13.174  20.544  0.00  0.00    +0.000 C 
ATOM      3  C   UNL     1      -1.003  13.744  21.230  0.00  0.00    +0.000 C 
ATOM      4  C   UNL     1       0.284  13.509  20.403  0.00  0.00    +0.000 C 
ATOM      5  C   UNL     1       0.309  14.357  19.121  0.00  0.00    +0.000 C 
ATOM      6  C   UNL     1      -0.321  13.458  18.038  0.00  0.00    +0.000 C 
ATOM      7  C   UNL     1      -0.759  12.196  18.791  0.00  0.00    +0.000 C 
ATOM      8  N   UNL     1       0.216  12.158  19.872  0.00  0.00    +0.000 N 
ATOM      9  C   UNL     1       0.698  11.099  20.584  0.00  0.00    +0.000 C 
ATOM     10  O   UNL     1       1.378  11.256  21.595  0.00  0.00    +0.000 OA
ATOM     11  N   UNL     1       0.378   9.853  20.113  0.00  0.00    +0.000 N 
ATOM     12  H   UNL     1       0.168   9.759  19.134  0.00  0.00    +0.000 HD
ENDROOT
BRANCH   2  13
ATOM     13  C   UNL     1      -3.513  13.490  21.221  0.00  0.00    +0.000 A 
ATOM     14  C   UNL     1      -3.996  12.650  22.228  0.00  0.00    +0.000 A 
ATOM     15  C   UNL     1      -5.204  12.933  22.880  0.00  0.00    +0.000 A 
ATOM     16  C   UNL     1      -5.947  14.065  22.530  0.00  0.00    +0.000 A 
ATOM     17  C   UNL     1      -5.453  14.913  21.527  0.00  0.00    +0.000 A 
ATOM     18  C   UNL     1      -4.244  14.630  20.877  0.00  0.00    +0.000 A 
BRANCH  16  19
ATOM     19  C   UNL     1      -7.252  14.429  23.172  0.00  0.00    +0.000 C 
ATOM     20  C   UNL     1      -7.754  13.692  24.389  0.00  0.00    +0.000 C 
ATOM     21  O   UNL     1      -7.914  15.356  22.705  0.00  0.00    +0.000 OA
ENDBRANCH  16  19
ENDBRANCH   2  13
BRANCH   1  22
ATOM     22  C   UNL     1      -3.289  11.804  18.707  0.00  0.00    +0.000 C 
ATOM     23  O   UNL     1      -4.461  12.113  18.853  0.00  0.00    +0.000 OA
BRANCH  22  25
ATOM     24  C   UNL     1      -3.459  10.792  16.608  0.00  0.00    +0.000 C 
ATOM     25  O   UNL     1      -2.844  10.811  17.895  0.00  0.00    +0.000 OA
ENDBRANCH  22  25
ENDBRANCH   1  22
BRANCH  11  26
ATOM     26  C   UNL     1       1.020   8.728  20.741  0.00  0.00    +0.000 C 
BRANCH  26  27
ATOM     27  C   UNL     1       1.740   7.818  19.783  0.00  0.00    +0.000 A 
ATOM     28  C   UNL     1       2.181   8.318  18.532  0.00  0.00    +0.000 A 
ATOM     29  C   UNL     1       3.109   7.614  17.761  0.00  0.00    +0.000 A 
ATOM     30  C   UNL     1       3.598   6.440  18.286  0.00  0.00    +0.000 A 
ATOM     31  C   UNL     1       3.119   5.912  19.465  0.00  0.00    +0.000 A 
ATOM     32  C   UNL     1       2.163   6.553  20.217  0.00  0.00    +0.000 A 
ATOM     33  O   UNL     1       3.801   4.793  19.838  0.00  0.00    +0.000 OA
ATOM     34  C   UNL     1       4.939   4.920  18.965  0.00  0.00    +0.000 C 
ATOM     35  O   UNL     1       4.652   5.724  17.801  0.00  0.00    +0.000 OA
ENDBRANCH  26  27
ENDBRANCH  11  26
TORSDOF 6
ENDMDL
MODEL 5
REMARK VINA RESULT:      -7.8      3.107      8.491
REMARK  Name = 
REMARK  8 active torsions:
REMARK  status: ('A' for Active; 'I' for Inactive)
REMARK    1  A    between atoms: C_1  and  O_2
REMARK    2  A    between atoms: O_2  and  C_3
REMARK    3  A    between atoms: C_3  and  C_5
REMARK    4  A    between atoms: C_6  and  C_7
REMARK    5  A    between atoms: C_10  and  C_11
REMARK    6  A    between atoms: C_11  and  C_12
REMARK    7  A    between atoms: N_24  and  C_25
REMARK    8  A    between atoms: C_25  and  C_26
REMARK                            x       y       z     vdW  Elec       q    Type
REMARK                         _______ _______ _______ _____ _____    ______ ____
ROOT
ATOM      1  C   UNL     1       0.024  11.575  20.730  0.00  0.00    +0.000 C 
ATOM      2  C   UNL     1       0.581  12.685  20.178  0.00  0.00    +0.000 C 
ATOM      3  C   UNL     1       0.649  12.845  18.658  0.00  0.00    +0.000 C 
ATOM      4  C   UNL     1      -0.111  11.721  17.913  0.00  0.00    +0.000 C 
ATOM      5  C   UNL     1      -1.632  11.833  18.096  0.00  0.00    +0.000 C 
ATOM      6  C   UNL     1      -1.949  10.965  19.331  0.00  0.00    +0.000 C 
ATOM      7  C   UNL     1      -0.578  10.498  19.835  0.00  0.00    +0.000 C 
ATOM      8  N   UNL     1       0.186  10.473  18.596  0.00  0.00    +0.000 N 
ATOM      9  C   UNL     1       1.270   9.722  18.246  0.00  0.00    +0.000 C 
ATOM     10  O   UNL     1       1.919   9.958  17.229  0.00  0.00    +0.000 OA
ATOM     11  N   UNL     1       1.600   8.699  19.094  0.00  0.00    +0.000 N 
ATOM     12  H   UNL     1       0.872   8.309  19.669  0.00  0.00    +0.000 HD
ENDROOT
BRANCH   2  13
ATOM     13  C   UNL     1       1.169  13.799  20.934  0.00  0.00    +0.000 A 
ATOM     14  C   UNL     1       2.549  13.846  21.151  0.00  0.00    +0.000 A 
ATOM     15  C   UNL     1       3.126  14.898  21.876  0.00  0.00    +0.000 A 
ATOM     16  C   UNL     1       2.326  15.921  22.394  0.00  0.00    +0.000 A 
ATOM     17  C   UNL     1       0.941  15.878  22.164  0.00  0.00    +0.000 A 
ATOM     18  C   UNL     1       0.365  14.826  21.438  0.00  0.00    +0.000 A 
BRANCH  16  19
ATOM     19  C   UNL     1       2.866  17.073  23.187  0.00  0.00    +0.000 C 
ATOM     20  C   UNL     1       2.417  18.486  22.912  0.00  0.00    +0.000 C 
ATOM     21  O   UNL     1       3.677  16.855  24.087  0.00  0.00    +0.000 OA
ENDBRANCH  16  19
ENDBRANCH   2  13
BRANCH   1  22
ATOM     22  C   UNL     1      -0.043  11.321  22.201  0.00  0.00    +0.000 C 
ATOM     23  O   UNL     1      -0.681  11.981  23.006  0.00  0.00    +0.000 OA
BRANCH  22  25
ATOM     24  C   UNL     1       0.127   9.328  23.407  0.00  0.00    +0.000 C 
ATOM     25  O   UNL     1       0.739  10.257  22.515  0.00  0.00    +0.000 OA
ENDBRANCH  22  25
ENDBRANCH   1  22
BRANCH  11  26
ATOM     26  C   UNL     1       2.625   7.787  18.656  0.00  0.00    +0.000 C 
BRANCH  26  27
ATOM     27  C   UNL     1       2.432   6.372  19.130  0.00  0.00    +0.000 A 
ATOM     28  C   UNL     1       2.035   6.124  20.468  0.00  0.00    +0.000 A 
ATOM     29  C   UNL     1       1.547   4.874  20.855  0.00  0.00    +0.000 A 
ATOM     30  C   UNL     1       1.439   3.913  19.876  0.00  0.00    +0.000 A 
ATOM     31  C   UNL     1       1.892   4.124  18.592  0.00  0.00    +0.000 A 
ATOM     32  C   UNL     1       2.430   5.325  18.196  0.00  0.00    +0.000 A 
ATOM     33  O   UNL     1       1.607   3.075  17.771  0.00  0.00    +0.000 OA
ATOM     34  C   UNL     1       0.644   2.394  18.597  0.00  0.00    +0.000 C 
ATOM     35  O   UNL     1       0.796   2.717  19.997  0.00  0.00    +0.000 OA
ENDBRANCH  26  27
ENDBRANCH  11  26
TORSDOF 6
ENDMDL
MODEL 6
REMARK VINA RESULT:      -7.8      3.039      8.577
REMARK  Name = 
REMARK  8 active torsions:
REMARK  status: ('A' for Active; 'I' for Inactive)
REMARK    1  A    between atoms: C_1  and  O_2
REMARK    2  A    between atoms: O_2  and  C_3
REMARK    3  A    between atoms: C_3  and  C_5
REMARK    4  A    between atoms: C_6  and  C_7
REMARK    5  A    between atoms: C_10  and  C_11
REMARK    6  A    between atoms: C_11  and  C_12
REMARK    7  A    between atoms: N_24  and  C_25
REMARK    8  A    between atoms: C_25  and  C_26
REMARK                            x       y       z     vdW  Elec       q    Type
REMARK                         _______ _______ _______ _____ _____    ______ ____
ROOT
ATOM      1  C   UNL     1      -0.189  11.597  20.737  0.00  0.00    +0.000 C 
ATOM      2  C   UNL     1       0.440  12.673  20.195  0.00  0.00    +0.000 C 
ATOM      3  C   UNL     1       0.642  12.773  18.681  0.00  0.00    +0.000 C 
ATOM      4  C   UNL     1      -0.077  11.637  17.915  0.00  0.00    +0.000 C 
ATOM      5  C   UNL     1      -1.606  11.788  17.962  0.00  0.00    +0.000 C 
ATOM      6  C   UNL     1      -2.048  10.975  19.195  0.00  0.00    +0.000 C 
ATOM      7  C   UNL     1      -0.738  10.499  19.833  0.00  0.00    +0.000 C 
ATOM      8  N   UNL     1       0.130  10.410  18.667  0.00  0.00    +0.000 N 
ATOM      9  C   UNL     1       1.222   9.624  18.441  0.00  0.00    +0.000 C 
ATOM     10  O   UNL     1       1.960   9.807  17.476  0.00  0.00    +0.000 OA
ATOM     11  N   UNL     1       1.452   8.627  19.351  0.00  0.00    +0.000 N 
ATOM     12  H   UNL     1       0.668   8.276  19.874  0.00  0.00    +0.000 HD
ENDROOT
BRANCH   2  13
ATOM     13  C   UNL     1       0.988  13.803  20.958  0.00  0.00    +0.000 A 
ATOM     14  C   UNL     1       0.132  14.787  21.461  0.00  0.00    +0.000 A 
ATOM     15  C   UNL     1       0.639  15.875  22.186  0.00  0.00    +0.000 A 
ATOM     16  C   UNL     1       2.013  15.992  22.417  0.00  0.00    +0.000 A 
ATOM     17  C   UNL     1       2.867  14.995  21.920  0.00  0.00    +0.000 A 
ATOM     18  C   UNL     1       2.361  13.907  21.197  0.00  0.00    +0.000 A 
BRANCH  16  19
ATOM     19  C   UNL     1       2.631  17.130  23.172  0.00  0.00    +0.000 C 
ATOM     20  C   UNL     1       3.876  17.815  22.667  0.00  0.00    +0.000 C 
ATOM     21  O   UNL     1       2.101  17.518  24.213  0.00  0.00    +0.000 OA
ENDBRANCH  16  19
ENDBRANCH   2  13
BRANCH   1  22
ATOM     22  C   UNL     1      -0.388  11.401  22.205  0.00  0.00    +0.000 C 
ATOM     23  O   UNL     1      -1.259  11.929  22.878  0.00  0.00    +0.000 OA
BRANCH  22  25
ATOM     24  C   UNL     1       0.053   9.399  23.324  0.00  0.00    +0.000 C 
ATOM     25  O   UNL     1       0.568  10.567  22.687  0.00  0.00    +0.000 OA
ENDBRANCH  22  25
ENDBRANCH   1  22
BRANCH  11  26
ATOM     26  C   UNL     1       2.489   7.678  19.038  0.00  0.00    +0.000 C 
BRANCH  26  27
ATOM     27  C   UNL     1       2.098   6.243  19.265  0.00  0.00    +0.000 A 
ATOM     28  C   UNL     1       2.059   5.341  18.173  0.00  0.00    +0.000 A 
ATOM     29  C   UNL     1       2.010   3.960  18.380  0.00  0.00    +0.000 A 
ATOM     30  C   UNL     1       2.037   3.521  19.684  0.00  0.00    +0.000 A 
ATOM     31  C   UNL     1       1.999   4.394  20.750  0.00  0.00    +0.000 A 
ATOM     32  C   UNL     1       1.988   5.758  20.577  0.00  0.00    +0.000 A 
ATOM     33  O   UNL     1       2.120   3.748  21.944  0.00  0.00    +0.000 OA
ATOM     34  C   UNL     1       2.584   2.471  21.465  0.00  0.00    +0.000 C 
ATOM     35  O   UNL     1       2.212   2.231  20.091  0.00  0.00    +0.000 OA
ENDBRANCH  26  27
ENDBRANCH  11  26
TORSDOF 6
ENDMDL
MODEL 7
REMARK VINA RESULT:      -7.7      1.870      9.408
REMARK  Name = 
REMARK  8 active torsions:
REMARK  status: ('A' for Active; 'I' for Inactive)
REMARK    1  A    between atoms: C_1  and  O_2
REMARK    2  A    between atoms: O_2  and  C_3
REMARK    3  A    between atoms: C_3  and  C_5
REMARK    4  A    between atoms: C_6  and  C_7
REMARK    5  A    between atoms: C_10  and  C_11
REMARK    6  A    between atoms: C_11  and  C_12
REMARK    7  A    between atoms: N_24  and  C_25
REMARK    8  A    between atoms: C_25  and  C_26
REMARK                            x       y       z     vdW  Elec       q    Type
REMARK                         _______ _______ _______ _____ _____    ______ ____
ROOT
ATOM      1  C   UNL     1      -1.350  11.619  19.475  0.00  0.00    +0.000 C 
ATOM      2  C   UNL     1      -1.659  12.291  20.615  0.00  0.00    +0.000 C 
ATOM      3  C   UNL     1      -0.557  12.730  21.581  0.00  0.00    +0.000 C 
ATOM      4  C   UNL     1       0.860  12.464  21.017  0.00  0.00    +0.000 C 
ATOM      5  C   UNL     1       1.194  13.391  19.838  0.00  0.00    +0.000 C 
ATOM      6  C   UNL     1       0.757  12.610  18.582  0.00  0.00    +0.000 C 
ATOM      7  C   UNL     1       0.107  11.333  19.129  0.00  0.00    +0.000 C 
ATOM      8  N   UNL     1       0.834  11.158  20.379  0.00  0.00    +0.000 N 
ATOM      9  C   UNL     1       1.102  10.025  21.089  0.00  0.00    +0.000 C 
ATOM     10  O   UNL     1       1.564  10.069  22.226  0.00  0.00    +0.000 OA
ATOM     11  N   UNL     1       0.822   8.838  20.467  0.00  0.00    +0.000 N 
ATOM     12  H   UNL     1       0.815   8.822  19.461  0.00  0.00    +0.000 HD
ENDROOT
BRANCH   2  13
ATOM     13  C   UNL     1      -3.020  12.646  21.043  0.00  0.00    +0.000 A 
ATOM     14  C   UNL     1      -3.919  13.200  20.128  0.00  0.00    +0.000 A 
ATOM     15  C   UNL     1      -5.218  13.549  20.521  0.00  0.00    +0.000 A 
ATOM     16  C   UNL     1      -5.635  13.347  21.840  0.00  0.00    +0.000 A 
ATOM     17  C   UNL     1      -4.733  12.779  22.753  0.00  0.00    +0.000 A 
ATOM     18  C   UNL     1      -3.435  12.429  22.360  0.00  0.00    +0.000 A 
BRANCH  16  19
ATOM     19  C   UNL     1      -7.003  13.705  22.339  0.00  0.00    +0.000 C 
ATOM     20  C   UNL     1      -7.916  12.658  22.926  0.00  0.00    +0.000 C 
ATOM     21  O   UNL     1      -7.377  14.876  22.281  0.00  0.00    +0.000 OA
ENDBRANCH  16  19
ENDBRANCH   2  13
BRANCH   1  22
ATOM     22  C   UNL     1      -2.367  11.118  18.502  0.00  0.00    +0.000 C 
ATOM     23  O   UNL     1      -3.148  10.201  18.702  0.00  0.00    +0.000 OA
BRANCH  22  25
ATOM     24  C   UNL     1      -2.598  11.064  16.178  0.00  0.00    +0.000 C 
ATOM     25  O   UNL     1      -2.273  11.820  17.344  0.00  0.00    +0.000 OA
ENDBRANCH  22  25
ENDBRANCH   1  22
BRANCH  11  26
ATOM     26  C   UNL     1       1.261   7.633  21.122  0.00  0.00    +0.000 C 
BRANCH  26  27
ATOM     27  C   UNL     1       1.880   6.621  20.197  0.00  0.00    +0.000 A 
ATOM     28  C   UNL     1       2.624   7.057  19.071  0.00  0.00    +0.000 A 
ATOM     29  C   UNL     1       3.463   6.181  18.379  0.00  0.00    +0.000 A 
ATOM     30  C   UNL     1       3.559   4.894  18.858  0.00  0.00    +0.000 A 
ATOM     31  C   UNL     1       2.783   4.445  19.904  0.00  0.00    +0.000 A 
ATOM     32  C   UNL     1       1.905   5.268  20.569  0.00  0.00    +0.000 A 
ATOM     33  O   UNL     1       3.103   3.171  20.267  0.00  0.00    +0.000 OA
ATOM     34  C   UNL     1       4.362   3.048  19.580  0.00  0.00    +0.000 C 
ATOM     35  O   UNL     1       4.470   3.960  18.465  0.00  0.00    +0.000 OA
ENDBRANCH  26  27
ENDBRANCH  11  26
TORSDOF 6
ENDMDL
MODEL 8
REMARK VINA RESULT:      -7.7      1.742      2.317
REMARK  Name = 
REMARK  8 active torsions:
REMARK  status: ('A' for Active; 'I' for Inactive)
REMARK    1  A    between atoms: C_1  and  O_2
REMARK    2  A    between atoms: O_2  and  C_3
REMARK    3  A    between atoms: C_3  and  C_5
REMARK    4  A    between atoms: C_6  and  C_7
REMARK    5  A    between atoms: C_10  and  C_11
REMARK    6  A    between atoms: C_11  and  C_12
REMARK    7  A    between atoms: N_24  and  C_25
REMARK    8  A    between atoms: C_25  and  C_26
REMARK                            x       y       z     vdW  Elec       q    Type
REMARK                         _______ _______ _______ _____ _____    ______ ____
ROOT
ATOM      1  C   UNL     1       0.180   9.828  20.308  0.00  0.00    +0.000 C 
ATOM      2  C   UNL     1       1.064   9.623  19.296  0.00  0.00    +0.000 C 
ATOM      3  C   UNL     1       1.262  10.684  18.211  0.00  0.00    +0.000 C 
ATOM      4  C   UNL     1       0.492  11.991  18.519  0.00  0.00    +0.000 C 
ATOM      5  C   UNL     1       1.099  12.752  19.709  0.00  0.00    +0.000 C 
ATOM      6  C   UNL     1       0.331  12.236  20.943  0.00  0.00    +0.000 C 
ATOM      7  C   UNL     1      -0.591  11.141  20.393  0.00  0.00    +0.000 C 
ATOM      8  N   UNL     1      -0.813  11.613  19.034  0.00  0.00    +0.000 N 
ATOM      9  C   UNL     1      -1.866  11.406  18.192  0.00  0.00    +0.000 C 
ATOM     10  O   UNL     1      -1.815  11.716  17.004  0.00  0.00    +0.000 OA
ATOM     11  N   UNL     1      -2.979  10.827  18.742  0.00  0.00    +0.000 N 
ATOM     12  H   UNL     1      -3.128  10.937  19.730  0.00  0.00    +0.000 HD
ENDROOT
BRANCH   2  13
ATOM     13  C   UNL     1       1.881   8.414  19.121  0.00  0.00    +0.000 A 
ATOM     14  C   UNL     1       2.616   8.231  17.947  0.00  0.00    +0.000 A 
ATOM     15  C   UNL     1       3.396   7.081  17.761  0.00  0.00    +0.000 A 
ATOM     16  C   UNL     1       3.451   6.097  18.753  0.00  0.00    +0.000 A 
ATOM     17  C   UNL     1       2.720   6.290  19.936  0.00  0.00    +0.000 A 
ATOM     18  C   UNL     1       1.942   7.440  20.122  0.00  0.00    +0.000 A 
BRANCH  16  19
ATOM     19  C   UNL     1       4.251   4.836  18.624  0.00  0.00    +0.000 C 
ATOM     20  C   UNL     1       5.726   4.814  18.941  0.00  0.00    +0.000 C 
ATOM     21  O   UNL     1       3.689   3.800  18.268  0.00  0.00    +0.000 OA
ENDBRANCH  16  19
ENDBRANCH   2  13
BRANCH   1  22
ATOM     22  C   UNL     1      -0.104   8.828  21.381  0.00  0.00    +0.000 C 
ATOM     23  O   UNL     1      -0.932   7.934  21.314  0.00  0.00    +0.000 OA
BRANCH  22  25
ATOM     24  C   UNL     1      -0.037   9.529  23.608  0.00  0.00    +0.000 C 
ATOM     25  O   UNL     1       0.680   9.082  22.459  0.00  0.00    +0.000 OA
ENDBRANCH  22  25
ENDBRANCH   1  22
BRANCH  11  26
ATOM     26  C   UNL     1      -4.160  10.763  17.920  0.00  0.00    +0.000 C 
BRANCH  26  27
ATOM     27  C   UNL     1      -5.173  11.836  18.215  0.00  0.00    +0.000 A 
ATOM     28  C   UNL     1      -5.241  12.404  19.512  0.00  0.00    +0.000 A 
ATOM     29  C   UNL     1      -5.934  13.595  19.741  0.00  0.00    +0.000 A 
ATOM     30  C   UNL     1      -6.512  14.204  18.651  0.00  0.00    +0.000 A 
ATOM     31  C   UNL     1      -6.512  13.620  17.403  0.00  0.00    +0.000 A 
ATOM     32  C   UNL     1      -5.889  12.418  17.158  0.00  0.00    +0.000 A 
ATOM     33  O   UNL     1      -7.062  14.433  16.458  0.00  0.00    +0.000 OA
ATOM     34  C   UNL     1      -7.058  15.671  17.193  0.00  0.00    +0.000 C 
ATOM     35  O   UNL     1      -7.039  15.461  18.622  0.00  0.00    +0.000 OA
ENDBRANCH  26  27
ENDBRANCH  11  26
TORSDOF 6
ENDMDL
MODEL 9
REMARK VINA RESULT:      -7.7      1.710      2.126
REMARK  Name = 
REMARK  8 active torsions:
REMARK  status: ('A' for Active; 'I' for Inactive)
REMARK    1  A    between atoms: C_1  and  O_2
REMARK    2  A    between atoms: O_2  and  C_3
REMARK    3  A    between atoms: C_3  and  C_5
REMARK    4  A    between atoms: C_6  and  C_7
REMARK    5  A    between atoms: C_10  and  C_11
REMARK    6  A    between atoms: C_11  and  C_12
REMARK    7  A    between atoms: N_24  and  C_25
REMARK    8  A    between atoms: C_25  and  C_26
REMARK                            x       y       z     vdW  Elec       q    Type
REMARK                         _______ _______ _______ _____ _____    ______ ____
ROOT
ATOM      1  C   UNL     1       0.243   9.784  20.298  0.00  0.00    +0.000 C 
ATOM      2  C   UNL     1       1.129   9.559  19.292  0.00  0.00    +0.000 C 
ATOM      3  C   UNL     1       1.351  10.611  18.203  0.00  0.00    +0.000 C 
ATOM      4  C   UNL     1       0.602  11.932  18.499  0.00  0.00    +0.000 C 
ATOM      5  C   UNL     1       1.213  12.688  19.689  0.00  0.00    +0.000 C 
ATOM      6  C   UNL     1       0.430  12.192  20.921  0.00  0.00    +0.000 C 
ATOM      7  C   UNL     1      -0.507  11.110  20.371  0.00  0.00    +0.000 C 
ATOM      8  N   UNL     1      -0.713  11.578  19.008  0.00  0.00    +0.000 N 
ATOM      9  C   UNL     1      -1.765  11.384  18.161  0.00  0.00    +0.000 C 
ATOM     10  O   UNL     1      -1.701  11.687  16.972  0.00  0.00    +0.000 OA
ATOM     11  N   UNL     1      -2.890  10.827  18.707  0.00  0.00    +0.000 N 
ATOM     12  H   UNL     1      -3.043  10.944  19.694  0.00  0.00    +0.000 HD
ENDROOT
BRANCH   2  13
ATOM     13  C   UNL     1       1.927   8.336  19.129  0.00  0.00    +0.000 A 
ATOM     14  C   UNL     1       1.926   7.361  20.130  0.00  0.00    +0.000 A 
ATOM     15  C   UNL     1       2.686   6.191  19.993  0.00  0.00    +0.000 A 
ATOM     16  C   UNL     1       3.460   5.982  18.847  0.00  0.00    +0.000 A 
ATOM     17  C   UNL     1       3.449   6.958  17.838  0.00  0.00    +0.000 A 
ATOM     18  C   UNL     1       2.688   8.126  17.975  0.00  0.00    +0.000 A 
BRANCH  16  19
ATOM     19  C   UNL     1       4.307   4.764  18.632  0.00  0.00    +0.000 C 
ATOM     20  C   UNL     1       3.779   3.572  17.874  0.00  0.00    +0.000 C 
ATOM     21  O   UNL     1       5.458   4.747  19.070  0.00  0.00    +0.000 OA
ENDBRANCH  16  19
ENDBRANCH   2  13
BRANCH   1  22
ATOM     22  C   UNL     1      -0.064   8.794  21.374  0.00  0.00    +0.000 C 
ATOM     23  O   UNL     1      -0.908   7.915  21.308  0.00  0.00    +0.000 OA
BRANCH  22  25
ATOM     24  C   UNL     1       0.007   9.518  23.594  0.00  0.00    +0.000 C 
ATOM     25  O   UNL     1       0.720   9.039  22.455  0.00  0.00    +0.000 OA
ENDBRANCH  22  25
ENDBRANCH   1  22
BRANCH  11  26
ATOM     26  C   UNL     1      -4.067  10.777  17.878  0.00  0.00    +0.000 C 
BRANCH  26  27
ATOM     27  C   UNL     1      -5.090  11.833  18.201  0.00  0.00    +0.000 A 
ATOM     28  C   UNL     1      -5.115  12.419  19.492  0.00  0.00    +0.000 A 
ATOM     29  C   UNL     1      -5.823  13.599  19.733  0.00  0.00    +0.000 A 
ATOM     30  C   UNL     1      -6.461  14.179  18.660  0.00  0.00    +0.000 A 
ATOM     31  C   UNL     1      -6.501  13.575  17.422  0.00  0.00    +0.000 A 
ATOM     32  C   UNL     1      -5.863  12.384  17.168  0.00  0.00    +0.000 A 
ATOM     33  O   UNL     1      -7.109  14.362  16.490  0.00  0.00    +0.000 OA
ATOM     34  C   UNL     1      -7.101  15.611  17.206  0.00  0.00    +0.000 C 
ATOM     35  O   UNL     1      -7.016  15.423  18.636  0.00  0.00    +0.000 OA
ENDBRANCH  26  27
ENDBRANCH  11  26
TORSDOF 6
ENDMDL
