MODEL 1
REMARK VINA RESULT:      -7.8      0.000      0.000
REMARK  Name = 
REMARK  13 active torsions:
REMARK  status: ('A' for Active; 'I' for Inactive)
REMARK    1  A    between atoms: C_1  and  O_2
REMARK    2  A    between atoms: O_2  and  C_3
REMARK    3  A    between atoms: C_6  and  N_7
REMARK    4  A    between atoms: N_10  and  C_11
REMARK    5  A    between atoms: C_11  and  C_12
REMARK    6  A    between atoms: C_12  and  O_13
REMARK    7  A    between atoms: C_12  and  C_14
REMARK    8  A    between atoms: C_14  and  O_15
REMARK    9  A    between atoms: O_15  and  C_16
REMARK   10  A    between atoms: C_21  and  C_22
REMARK   11  A    between atoms: C_22  and  C_24
REMARK   12  A    between atoms: C_24  and  C_25
REMARK   13  A    between atoms: C_25  and  C_26
REMARK                            x       y       z     vdW  Elec       q    Type
REMARK                         _______ _______ _______ _____ _____    ______ ____
ROOT
ATOM      1  C   UNL     1       3.264   2.177  18.344  0.00  0.00    +0.000 C 
ENDROOT
BRANCH   1   2
ATOM      2  O   UNL     1       2.187   1.776  17.491  0.00  0.00    +0.000 OA
ATOM      3  H   UNL     1       1.597   1.206  18.015  0.00  0.00    +0.000 HD
ENDBRANCH   1   2
BRANCH   1   4
ATOM      4  C   UNL     1       2.837   3.306  19.320  0.00  0.00    +0.000 C 
BRANCH   4   8
ATOM      5  N   UNL     1       2.177   6.682  19.969  0.00  0.00    +0.000 N 
ATOM      6  C   UNL     1       1.897   5.615  20.944  0.00  0.00    +0.000 C 
ATOM      7  C   UNL     1       0.960   4.558  20.330  0.00  0.00    +0.000 C 
ATOM      8  N   UNL     1       1.505   3.935  19.099  0.00  0.00    +0.000 NA
ATOM      9  C   UNL     1       1.626   5.058  18.120  0.00  0.00    +0.000 C 
ATOM     10  C   UNL     1       2.500   6.263  18.588  0.00  0.00    +0.000 C 
BRANCH   5  14
ATOM     11  C   UNL     1       0.160  10.346  20.485  0.00  0.00    +0.000 A 
ATOM     12  C   UNL     1       0.178   9.395  21.503  0.00  0.00    +0.000 A 
ATOM     13  C   UNL     1       0.886   8.197  21.339  0.00  0.00    +0.000 A 
ATOM     14  C   UNL     1       1.561   7.915  20.147  0.00  0.00    +0.000 A 
ATOM     15  C   UNL     1       1.515   8.881  19.133  0.00  0.00    +0.000 A 
ATOM     16  C   UNL     1       0.819  10.081  19.290  0.00  0.00    +0.000 A 
BRANCH  11  18
ATOM     17  C   UNL     1      -0.574  12.425  19.672  0.00  0.00    +0.000 C 
ATOM     18  O   UNL     1      -0.557  11.482  20.740  0.00  0.00    +0.000 OA
ENDBRANCH  11  18
ENDBRANCH   5  14
ENDBRANCH   4   8
ENDBRANCH   1   4
BRANCH   1  19
ATOM     19  C   UNL     1       4.500   2.580  17.534  0.00  0.00    +0.000 C 
BRANCH  19  20
ATOM     20  O   UNL     1       4.495   4.001  17.282  0.00  0.00    +0.000 OA
BRANCH  20  21
ATOM     21  C   UNL     1       5.539   4.771  17.734  0.00  0.00    +0.000 A 
ATOM     22  C   UNL     1       5.822   4.892  19.116  0.00  0.00    +0.000 A 
ATOM     23  C   UNL     1       6.971   5.519  19.588  0.00  0.00    +0.000 A 
ATOM     24  C   UNL     1       7.835   6.116  18.699  0.00  0.00    +0.000 A 
ATOM     25  C   UNL     1       7.532   6.096  17.339  0.00  0.00    +0.000 A 
ATOM     26  C   UNL     1       6.389   5.434  16.825  0.00  0.00    +0.000 A 
BRANCH  26  27
ATOM     27  C   UNL     1       6.335   5.488  15.317  0.00  0.00    +0.000 C 
ATOM     28  O   UNL     1       5.426   6.153  14.821  0.00  0.00    +0.000 OA
BRANCH  27  29
ATOM     29  C   UNL     1       7.276   4.771  14.365  0.00  0.00    +0.000 C 
BRANCH  29  30
ATOM     30  C   UNL     1       7.140   4.976  12.868  0.00  0.00    +0.000 C 
BRANCH  30  31
ATOM     31  C   UNL     1       6.685   3.699  12.191  0.00  0.00    +0.000 A 
ATOM     32  C   UNL     1       5.317   3.395  12.113  0.00  0.00    +0.000 A 
ATOM     33  C   UNL     1       4.883   2.214  11.507  0.00  0.00    +0.000 A 
ATOM     34  C   UNL     1       5.811   1.324  10.972  0.00  0.00    +0.000 A 
ATOM     35  C   UNL     1       7.173   1.608  11.052  0.00  0.00    +0.000 A 
ATOM     36  C   UNL     1       7.611   2.787  11.665  0.00  0.00    +0.000 A 
ENDBRANCH  30  31
ENDBRANCH  29  30
ENDBRANCH  27  29
ENDBRANCH  26  27
ENDBRANCH  20  21
ENDBRANCH  19  20
ENDBRANCH   1  19
TORSDOF 12
ENDMDL
MODEL 2
REMARK VINA RESULT:      -7.8      2.922      5.104
REMARK  Name = 
REMARK  13 active torsions:
REMARK  status: ('A' for Active; 'I' for Inactive)
REMARK    1  A    between atoms: C_1  and  O_2
REMARK    2  A    between atoms: O_2  and  C_3
REMARK    3  A    between atoms: C_6  and  N_7
REMARK    4  A    between atoms: N_10  and  C_11
REMARK    5  A    between atoms: C_11  and  C_12
REMARK    6  A    between atoms: C_12  and  O_13
REMARK    7  A    between atoms: C_12  and  C_14
REMARK    8  A    between atoms: C_14  and  O_15
REMARK    9  A    between atoms: O_15  and  C_16
REMARK   10  A    between atoms: C_21  and  C_22
REMARK   11  A    between atoms: C_22  and  C_24
REMARK   12  A    between atoms: C_24  and  C_25
REMARK   13  A    between atoms: C_25  and  C_26
REMARK                            x       y       z     vdW  Elec       q    Type
REMARK                         _______ _______ _______ _____ _____    ______ ____
ROOT
ATOM      1  C   UNL     1       1.852   8.290  18.703  0.00  0.00    +0.000 C 
ENDROOT
BRANCH   1   2
ATOM      2  O   UNL     1       3.006   8.409  17.866  0.00  0.00    +0.000 OA
ATOM      3  H   UNL     1       2.984   7.670  17.233  0.00  0.00    +0.000 HD
ENDBRANCH   1   2
BRANCH   1   4
ATOM      4  C   UNL     1       1.305   9.678  19.133  0.00  0.00    +0.000 C 
BRANCH   4   8
ATOM      5  N   UNL     1      -0.112  11.886  21.450  0.00  0.00    +0.000 N 
ATOM      6  C   UNL     1       0.172  10.476  21.765  0.00  0.00    +0.000 C 
ATOM      7  C   UNL     1      -0.544   9.546  20.768  0.00  0.00    +0.000 C 
ATOM      8  N   UNL     1      -0.163   9.796  19.356  0.00  0.00    +0.000 NA
ATOM      9  C   UNL     1      -0.611  11.194  19.076  0.00  0.00    +0.000 C 
ATOM     10  C   UNL     1      -0.032  12.286  20.028  0.00  0.00    +0.000 C 
BRANCH   5  14
ATOM     11  C   UNL     1      -2.683  13.952  24.072  0.00  0.00    +0.000 A 
ATOM     12  C   UNL     1      -1.464  14.505  23.690  0.00  0.00    +0.000 A 
ATOM     13  C   UNL     1      -0.633  13.831  22.786  0.00  0.00    +0.000 A 
ATOM     14  C   UNL     1      -0.992  12.581  22.272  0.00  0.00    +0.000 A 
ATOM     15  C   UNL     1      -2.217  12.039  22.683  0.00  0.00    +0.000 A 
ATOM     16  C   UNL     1      -3.054  12.707  23.578  0.00  0.00    +0.000 A 
BRANCH  11  18
ATOM     17  C   UNL     1      -4.116  15.790  24.381  0.00  0.00    +0.000 C 
ATOM     18  O   UNL     1      -3.422  14.687  24.958  0.00  0.00    +0.000 OA
ENDBRANCH  11  18
ENDBRANCH   5  14
ENDBRANCH   4   8
ENDBRANCH   1   4
BRANCH   1  19
ATOM     19  C   UNL     1       2.131   7.401  19.919  0.00  0.00    +0.000 C 
BRANCH  19  20
ATOM     20  O   UNL     1       3.159   6.436  19.611  0.00  0.00    +0.000 OA
BRANCH  20  21
ATOM     21  C   UNL     1       2.805   5.214  19.091  0.00  0.00    +0.000 A 
ATOM     22  C   UNL     1       1.751   4.452  19.649  0.00  0.00    +0.000 A 
ATOM     23  C   UNL     1       1.260   3.302  19.040  0.00  0.00    +0.000 A 
ATOM     24  C   UNL     1       1.859   2.830  17.894  0.00  0.00    +0.000 A 
ATOM     25  C   UNL     1       2.961   3.507  17.375  0.00  0.00    +0.000 A 
ATOM     26  C   UNL     1       3.461   4.701  17.953  0.00  0.00    +0.000 A 
BRANCH  26  27
ATOM     27  C   UNL     1       4.604   5.280  17.154  0.00  0.00    +0.000 C 
ATOM     28  O   UNL     1       4.429   6.399  16.673  0.00  0.00    +0.000 OA
BRANCH  27  29
ATOM     29  C   UNL     1       5.927   4.594  16.866  0.00  0.00    +0.000 C 
BRANCH  29  30
ATOM     30  C   UNL     1       6.974   5.291  16.018  0.00  0.00    +0.000 C 
BRANCH  30  31
ATOM     31  C   UNL     1       6.886   4.835  14.575  0.00  0.00    +0.000 A 
ATOM     32  C   UNL     1       5.961   3.848  14.206  0.00  0.00    +0.000 A 
ATOM     33  C   UNL     1       5.879   3.405  12.884  0.00  0.00    +0.000 A 
ATOM     34  C   UNL     1       6.723   3.945  11.916  0.00  0.00    +0.000 A 
ATOM     35  C   UNL     1       7.654   4.919  12.271  0.00  0.00    +0.000 A 
ATOM     36  C   UNL     1       7.743   5.358  13.596  0.00  0.00    +0.000 A 
ENDBRANCH  30  31
ENDBRANCH  29  30
ENDBRANCH  27  29
ENDBRANCH  26  27
ENDBRANCH  20  21
ENDBRANCH  19  20
ENDBRANCH   1  19
TORSDOF 12
ENDMDL
MODEL 3
REMARK VINA RESULT:      -7.8      3.352      6.076
REMARK  Name = 
REMARK  13 active torsions:
REMARK  status: ('A' for Active; 'I' for Inactive)
REMARK    1  A    between atoms: C_1  and  O_2
REMARK    2  A    between atoms: O_2  and  C_3
REMARK    3  A    between atoms: C_6  and  N_7
REMARK    4  A    between atoms: N_10  and  C_11
REMARK    5  A    between atoms: C_11  and  C_12
REMARK    6  A    between atoms: C_12  and  O_13
REMARK    7  A    between atoms: C_12  and  C_14
REMARK    8  A    between atoms: C_14  and  O_15
REMARK    9  A    between atoms: O_15  and  C_16
REMARK   10  A    between atoms: C_21  and  C_22
REMARK   11  A    between atoms: C_22  and  C_24
REMARK   12  A    between atoms: C_24  and  C_25
REMARK   13  A    between atoms: C_25  and  C_26
REMARK                            x       y       z     vdW  Elec       q    Type
REMARK                         _______ _______ _______ _____ _____    ______ ____
ROOT
ATOM      1  C   UNL     1       1.875   8.328  18.184  0.00  0.00    +0.000 C 
ENDROOT
BRANCH   1   2
ATOM      2  O   UNL     1       2.667   8.900  17.139  0.00  0.00    +0.000 OA
ATOM      3  H   UNL     1       3.136   9.666  17.514  0.00  0.00    +0.000 HD
ENDBRANCH   1   2
BRANCH   1   4
ATOM      4  C   UNL     1       1.399   9.402  19.200  0.00  0.00    +0.000 C 
BRANCH   4   8
ATOM      5  N   UNL     1       0.031  11.891  21.247  0.00  0.00    +0.000 N 
ATOM      6  C   UNL     1      -0.688  10.651  20.913  0.00  0.00    +0.000 C 
ATOM      7  C   UNL     1      -0.811  10.493  19.386  0.00  0.00    +0.000 C 
ATOM      8  N   UNL     1       0.499  10.474  18.691  0.00  0.00    +0.000 NA
ATOM      9  C   UNL     1       1.100  11.816  18.962  0.00  0.00    +0.000 C 
ATOM     10  C   UNL     1       1.255  12.187  20.470  0.00  0.00    +0.000 C 
BRANCH   5  14
ATOM     11  C   UNL     1      -2.325  15.054  22.728  0.00  0.00    +0.000 A 
ATOM     12  C   UNL     1      -2.043  13.946  23.522  0.00  0.00    +0.000 A 
ATOM     13  C   UNL     1      -1.224  12.917  23.037  0.00  0.00    +0.000 A 
ATOM     14  C   UNL     1      -0.700  12.964  21.742  0.00  0.00    +0.000 A 
ATOM     15  C   UNL     1      -1.010  14.082  20.957  0.00  0.00    +0.000 A 
ATOM     16  C   UNL     1      -1.819  15.115  21.435  0.00  0.00    +0.000 A 
BRANCH  11  18
ATOM     17  C   UNL     1      -4.385  15.516  23.759  0.00  0.00    +0.000 C 
ATOM     18  O   UNL     1      -3.132  16.004  23.291  0.00  0.00    +0.000 OA
ENDBRANCH  11  18
ENDBRANCH   5  14
ENDBRANCH   4   8
ENDBRANCH   1   4
BRANCH   1  19
ATOM     19  C   UNL     1       2.615   7.186  18.888  0.00  0.00    +0.000 C 
BRANCH  19  20
ATOM     20  O   UNL     1       1.872   5.955  18.765  0.00  0.00    +0.000 OA
BRANCH  20  21
ATOM     21  C   UNL     1       2.240   4.866  19.518  0.00  0.00    +0.000 A 
ATOM     22  C   UNL     1       2.010   4.823  20.914  0.00  0.00    +0.000 A 
ATOM     23  C   UNL     1       2.211   3.670  21.666  0.00  0.00    +0.000 A 
ATOM     24  C   UNL     1       2.725   2.544  21.063  0.00  0.00    +0.000 A 
ATOM     25  C   UNL     1       3.050   2.588  19.709  0.00  0.00    +0.000 A 
ATOM     26  C   UNL     1       2.823   3.736  18.909  0.00  0.00    +0.000 A 
BRANCH  26  27
ATOM     27  C   UNL     1       3.184   3.497  17.462  0.00  0.00    +0.000 C 
ATOM     28  O   UNL     1       2.360   2.886  16.782  0.00  0.00    +0.000 OA
BRANCH  27  29
ATOM     29  C   UNL     1       4.479   3.911  16.787  0.00  0.00    +0.000 C 
BRANCH  29  30
ATOM     30  C   UNL     1       4.742   5.374  16.485  0.00  0.00    +0.000 C 
BRANCH  30  31
ATOM     31  C   UNL     1       5.922   5.885  17.288  0.00  0.00    +0.000 A 
ATOM     32  C   UNL     1       6.550   7.085  16.927  0.00  0.00    +0.000 A 
ATOM     33  C   UNL     1       7.649   7.560  17.645  0.00  0.00    +0.000 A 
ATOM     34  C   UNL     1       8.132   6.839  18.735  0.00  0.00    +0.000 A 
ATOM     35  C   UNL     1       7.524   5.639  19.099  0.00  0.00    +0.000 A 
ATOM     36  C   UNL     1       6.428   5.158  18.375  0.00  0.00    +0.000 A 
ENDBRANCH  30  31
ENDBRANCH  29  30
ENDBRANCH  27  29
ENDBRANCH  26  27
ENDBRANCH  20  21
ENDBRANCH  19  20
ENDBRANCH   1  19
TORSDOF 12
ENDMDL
MODEL 4
REMARK VINA RESULT:      -7.7      2.777      5.105
REMARK  Name = 
REMARK  13 active torsions:
REMARK  status: ('A' for Active; 'I' for Inactive)
REMARK    1  A    between atoms: C_1  and  O_2
REMARK    2  A    between atoms: O_2  and  C_3
REMARK    3  A    between atoms: C_6  and  N_7
REMARK    4  A    between atoms: N_10  and  C_11
REMARK    5  A    between atoms: C_11  and  C_12
REMARK    6  A    between atoms: C_12  and  O_13
REMARK    7  A    between atoms: C_12  and  C_14
REMARK    8  A    between atoms: C_14  and  O_15
REMARK    9  A    between atoms: O_15  and  C_16
REMARK   10  A    between atoms: C_21  and  C_22
REMARK   11  A    between atoms: C_22  and  C_24
REMARK   12  A    between atoms: C_24  and  C_25
REMARK   13  A    between atoms: C_25  and  C_26
REMARK                            x       y       z     vdW  Elec       q    Type
REMARK                         _______ _______ _______ _____ _____    ______ ____
ROOT
ATOM      1  C   UNL     1       1.893   8.414  18.434  0.00  0.00    +0.000 C 
ENDROOT
BRANCH   1   2
ATOM      2  O   UNL     1       2.614   8.328  17.201  0.00  0.00    +0.000 OA
ATOM      3  H   UNL     1       2.118   8.839  16.537  0.00  0.00    +0.000 HD
ENDBRANCH   1   2
BRANCH   1   4
ATOM      4  C   UNL     1       1.938   9.847  19.029  0.00  0.00    +0.000 C 
BRANCH   4   8
ATOM      5  N   UNL     1      -0.504  11.247  21.111  0.00  0.00    +0.000 N 
ATOM      6  C   UNL     1      -0.751  10.053  20.286  0.00  0.00    +0.000 C 
ATOM      7  C   UNL     1      -0.471  10.356  18.802  0.00  0.00    +0.000 C 
ATOM      8  N   UNL     1       0.916  10.819  18.551  0.00  0.00    +0.000 NA
ATOM      9  C   UNL     1       1.037  12.102  19.307  0.00  0.00    +0.000 C 
ATOM     10  C   UNL     1       0.732  12.010  20.834  0.00  0.00    +0.000 C 
BRANCH   5  14
ATOM     11  C   UNL     1      -3.909  13.210  22.631  0.00  0.00    +0.000 A 
ATOM     12  C   UNL     1      -3.073  12.481  23.474  0.00  0.00    +0.000 A 
ATOM     13  C   UNL     1      -1.921  11.865  22.968  0.00  0.00    +0.000 A 
ATOM     14  C   UNL     1      -1.600  11.942  21.609  0.00  0.00    +0.000 A 
ATOM     15  C   UNL     1      -2.463  12.669  20.780  0.00  0.00    +0.000 A 
ATOM     16  C   UNL     1      -3.610  13.291  21.276  0.00  0.00    +0.000 A 
BRANCH  11  18
ATOM     17  C   UNL     1      -6.141  12.915  23.302  0.00  0.00    +0.000 C 
ATOM     18  O   UNL     1      -5.007  13.773  23.219  0.00  0.00    +0.000 OA
ENDBRANCH  11  18
ENDBRANCH   5  14
ENDBRANCH   4   8
ENDBRANCH   1   4
BRANCH   1  19
ATOM     19  C   UNL     1       2.388   7.375  19.446  0.00  0.00    +0.000 C 
BRANCH  19  20
ATOM     20  O   UNL     1       3.256   6.419  18.801  0.00  0.00    +0.000 OA
BRANCH  20  21
ATOM     21  C   UNL     1       3.024   5.075  18.969  0.00  0.00    +0.000 A 
ATOM     22  C   UNL     1       1.748   4.588  19.338  0.00  0.00    +0.000 A 
ATOM     23  C   UNL     1       1.442   3.231  19.344  0.00  0.00    +0.000 A 
ATOM     24  C   UNL     1       2.425   2.310  19.058  0.00  0.00    +0.000 A 
ATOM     25  C   UNL     1       3.715   2.758  18.784  0.00  0.00    +0.000 A 
ATOM     26  C   UNL     1       4.049   4.135  18.736  0.00  0.00    +0.000 A 
BRANCH  26  27
ATOM     27  C   UNL     1       5.489   4.355  18.338  0.00  0.00    +0.000 C 
ATOM     28  O   UNL     1       6.304   4.458  19.253  0.00  0.00    +0.000 OA
BRANCH  27  29
ATOM     29  C   UNL     1       6.009   4.494  16.918  0.00  0.00    +0.000 C 
BRANCH  29  30
ATOM     30  C   UNL     1       5.086   4.228  15.744  0.00  0.00    +0.000 C 
BRANCH  30  31
ATOM     31  C   UNL     1       5.858   4.244  14.439  0.00  0.00    +0.000 A 
ATOM     32  C   UNL     1       7.022   5.018  14.322  0.00  0.00    +0.000 A 
ATOM     33  C   UNL     1       7.735   5.057  13.122  0.00  0.00    +0.000 A 
ATOM     34  C   UNL     1       7.290   4.323  12.025  0.00  0.00    +0.000 A 
ATOM     35  C   UNL     1       6.129   3.559  12.124  0.00  0.00    +0.000 A 
ATOM     36  C   UNL     1       5.410   3.524  13.323  0.00  0.00    +0.000 A 
ENDBRANCH  30  31
ENDBRANCH  29  30
ENDBRANCH  27  29
ENDBRANCH  26  27
ENDBRANCH  20  21
ENDBRANCH  19  20
ENDBRANCH   1  19
TORSDOF 12
ENDMDL
MODEL 5
REMARK VINA RESULT:      -7.6      2.881      5.141
REMARK  Name = 
REMARK  13 active torsions:
REMARK  status: ('A' for Active; 'I' for Inactive)
REMARK    1  A    between atoms: C_1  and  O_2
REMARK    2  A    between atoms: O_2  and  C_3
REMARK    3  A    between atoms: C_6  and  N_7
REMARK    4  A    between atoms: N_10  and  C_11
REMARK    5  A    between atoms: C_11  and  C_12
REMARK    6  A    between atoms: C_12  and  O_13
REMARK    7  A    between atoms: C_12  and  C_14
REMARK    8  A    between atoms: C_14  and  O_15
REMARK    9  A    between atoms: O_15  and  C_16
REMARK   10  A    between atoms: C_21  and  C_22
REMARK   11  A    between atoms: C_22  and  C_24
REMARK   12  A    between atoms: C_24  and  C_25
REMARK   13  A    between atoms: C_25  and  C_26
REMARK                            x       y       z     vdW  Elec       q    Type
REMARK                         _______ _______ _______ _____ _____    ______ ____
ROOT
ATOM      1  C   UNL     1       1.633   8.775  18.150  0.00  0.00    +0.000 C 
ENDROOT
BRANCH   1   2
ATOM      2  O   UNL     1       2.203   9.876  17.436  0.00  0.00    +0.000 OA
ATOM      3  H   UNL     1       1.563  10.609  17.471  0.00  0.00    +0.000 HD
ENDBRANCH   1   2
BRANCH   1   4
ATOM      4  C   UNL     1       1.380   9.124  19.641  0.00  0.00    +0.000 C 
BRANCH   4   8
ATOM      5  N   UNL     1      -0.099  11.698  21.498  0.00  0.00    +0.000 N 
ATOM      6  C   UNL     1       0.521  10.519  22.125  0.00  0.00    +0.000 C 
ATOM      7  C   UNL     1      -0.127   9.225  21.598  0.00  0.00    +0.000 C 
ATOM      8  N   UNL     1      -0.027   9.077  20.126  0.00  0.00    +0.000 NA
ATOM      9  C   UNL     1      -0.799  10.230  19.569  0.00  0.00    +0.000 C 
ATOM     10  C   UNL     1      -0.324  11.641  20.037  0.00  0.00    +0.000 C 
BRANCH   5  14
ATOM     11  C   UNL     1      -2.634  14.014  23.939  0.00  0.00    +0.000 A 
ATOM     12  C   UNL     1      -1.443  14.543  23.448  0.00  0.00    +0.000 A 
ATOM     13  C   UNL     1      -0.625  13.781  22.603  0.00  0.00    +0.000 A 
ATOM     14  C   UNL     1      -0.969  12.469  22.260  0.00  0.00    +0.000 A 
ATOM     15  C   UNL     1      -2.164  11.955  22.778  0.00  0.00    +0.000 A 
ATOM     16  C   UNL     1      -2.988  12.710  23.615  0.00  0.00    +0.000 A 
BRANCH  11  18
ATOM     17  C   UNL     1      -2.592  15.552  25.716  0.00  0.00    +0.000 C 
ATOM     18  O   UNL     1      -3.362  14.836  24.755  0.00  0.00    +0.000 OA
ENDBRANCH  11  18
ENDBRANCH   5  14
ENDBRANCH   4   8
ENDBRANCH   1   4
BRANCH   1  19
ATOM     19  C   UNL     1       2.491   7.513  18.012  0.00  0.00    +0.000 C 
BRANCH  19  20
ATOM     20  O   UNL     1       2.728   6.922  19.307  0.00  0.00    +0.000 OA
BRANCH  20  21
ATOM     21  C   UNL     1       2.589   5.564  19.466  0.00  0.00    +0.000 A 
ATOM     22  C   UNL     1       1.481   5.011  20.151  0.00  0.00    +0.000 A 
ATOM     23  C   UNL     1       1.227   3.644  20.174  0.00  0.00    +0.000 A 
ATOM     24  C   UNL     1       2.116   2.776  19.581  0.00  0.00    +0.000 A 
ATOM     25  C   UNL     1       3.266   3.286  18.982  0.00  0.00    +0.000 A 
ATOM     26  C   UNL     1       3.533   4.676  18.911  0.00  0.00    +0.000 A 
BRANCH  26  27
ATOM     27  C   UNL     1       4.798   4.970  18.140  0.00  0.00    +0.000 C 
ATOM     28  O   UNL     1       5.763   5.364  18.793  0.00  0.00    +0.000 OA
BRANCH  27  29
ATOM     29  C   UNL     1       4.971   4.857  16.636  0.00  0.00    +0.000 C 
BRANCH  29  30
ATOM     30  C   UNL     1       6.175   5.488  15.962  0.00  0.00    +0.000 C 
BRANCH  30  31
ATOM     31  C   UNL     1       6.376   4.913  14.574  0.00  0.00    +0.000 A 
ATOM     32  C   UNL     1       5.446   4.002  14.050  0.00  0.00    +0.000 A 
ATOM     33  C   UNL     1       5.627   3.450  12.780  0.00  0.00    +0.000 A 
ATOM     34  C   UNL     1       6.739   3.804  12.019  0.00  0.00    +0.000 A 
ATOM     35  C   UNL     1       7.675   4.699  12.532  0.00  0.00    +0.000 A 
ATOM     36  C   UNL     1       7.501   5.247  13.807  0.00  0.00    +0.000 A 
ENDBRANCH  30  31
ENDBRANCH  29  30
ENDBRANCH  27  29
ENDBRANCH  26  27
ENDBRANCH  20  21
ENDBRANCH  19  20
ENDBRANCH   1  19
TORSDOF 12
ENDMDL
MODEL 6
REMARK VINA RESULT:      -7.6      3.286      6.169
REMARK  Name = 
REMARK  13 active torsions:
REMARK  status: ('A' for Active; 'I' for Inactive)
REMARK    1  A    between atoms: C_1  and  O_2
REMARK    2  A    between atoms: O_2  and  C_3
REMARK    3  A    between atoms: C_6  and  N_7
REMARK    4  A    between atoms: N_10  and  C_11
REMARK    5  A    between atoms: C_11  and  C_12
REMARK    6  A    between atoms: C_12  and  O_13
REMARK    7  A    between atoms: C_12  and  C_14
REMARK    8  A    between atoms: C_14  and  O_15
REMARK    9  A    between atoms: O_15  and  C_16
REMARK   10  A    between atoms: C_21  and  C_22
REMARK   11  A    between atoms: C_22  and  C_24
REMARK   12  A    between atoms: C_24  and  C_25
REMARK   13  A    between atoms: C_25  and  C_26
REMARK                            x       y       z     vdW  Elec       q    Type
REMARK                         _______ _______ _______ _____ _____    ______ ____
ROOT
ATOM      1  C   UNL     1       1.964   8.105  19.878  0.00  0.00    +0.000 C 
ENDROOT
BRANCH   1   2
ATOM      2  O   UNL     1       1.374   7.608  21.083  0.00  0.00    +0.000 OA
ATOM      3  H   UNL     1       2.090   7.495  21.732  0.00  0.00    +0.000 HD
ENDBRANCH   1   2
BRANCH   1   4
ATOM      4  C   UNL     1       1.072   9.180  19.200  0.00  0.00    +0.000 C 
BRANCH   4   8
ATOM      5  N   UNL     1      -1.316  11.329  20.590  0.00  0.00    +0.000 N 
ATOM      6  C   UNL     1      -1.061  11.253  19.143  0.00  0.00    +0.000 C 
ATOM      7  C   UNL     1       0.422  11.537  18.841  0.00  0.00    +0.000 C 
ATOM      8  N   UNL     1       1.349  10.606  19.528  0.00  0.00    +0.000 NA
ATOM      9  C   UNL     1       1.128  10.847  20.987  0.00  0.00    +0.000 C 
ATOM     10  C   UNL     1      -0.341  10.662  21.480  0.00  0.00    +0.000 C 
BRANCH   5  14
ATOM     11  C   UNL     1      -3.417  14.601  22.214  0.00  0.00    +0.000 A 
ATOM     12  C   UNL     1      -2.203  14.193  22.761  0.00  0.00    +0.000 A 
ATOM     13  C   UNL     1      -1.490  13.131  22.190  0.00  0.00    +0.000 A 
ATOM     14  C   UNL     1      -1.992  12.439  21.083  0.00  0.00    +0.000 A 
ATOM     15  C   UNL     1      -3.222  12.858  20.560  0.00  0.00    +0.000 A 
ATOM     16  C   UNL     1      -3.936  13.921  21.119  0.00  0.00    +0.000 A 
BRANCH  11  18
ATOM     17  C   UNL     1      -5.163  15.281  23.632  0.00  0.00    +0.000 C 
ATOM     18  O   UNL     1      -4.036  15.646  22.841  0.00  0.00    +0.000 OA
ENDBRANCH  11  18
ENDBRANCH   5  14
ENDBRANCH   4   8
ENDBRANCH   1   4
BRANCH   1  19
ATOM     19  C   UNL     1       2.300   6.968  18.907  0.00  0.00    +0.000 C 
BRANCH  19  20
ATOM     20  O   UNL     1       3.244   6.057  19.507  0.00  0.00    +0.000 OA
BRANCH  20  21
ATOM     21  C   UNL     1       2.820   4.815  19.913  0.00  0.00    +0.000 A 
ATOM     22  C   UNL     1       2.443   4.566  21.255  0.00  0.00    +0.000 A 
ATOM     23  C   UNL     1       1.848   3.373  21.652  0.00  0.00    +0.000 A 
ATOM     24  C   UNL     1       1.682   2.358  20.738  0.00  0.00    +0.000 A 
ATOM     25  C   UNL     1       2.132   2.539  19.432  0.00  0.00    +0.000 A 
ATOM     26  C   UNL     1       2.710   3.756  18.989  0.00  0.00    +0.000 A 
BRANCH  26  27
ATOM     27  C   UNL     1       3.035   3.724  17.515  0.00  0.00    +0.000 C 
ATOM     28  O   UNL     1       2.099   3.501  16.748  0.00  0.00    +0.000 OA
BRANCH  27  29
ATOM     29  C   UNL     1       4.413   3.906  16.903  0.00  0.00    +0.000 C 
BRANCH  29  30
ATOM     30  C   UNL     1       4.843   5.271  16.399  0.00  0.00    +0.000 C 
BRANCH  30  31
ATOM     31  C   UNL     1       5.982   5.818  17.237  0.00  0.00    +0.000 A 
ATOM     32  C   UNL     1       6.563   7.053  16.911  0.00  0.00    +0.000 A 
ATOM     33  C   UNL     1       7.624   7.562  17.662  0.00  0.00    +0.000 A 
ATOM     34  C   UNL     1       8.116   6.843  18.748  0.00  0.00    +0.000 A 
ATOM     35  C   UNL     1       7.555   5.610  19.077  0.00  0.00    +0.000 A 
ATOM     36  C   UNL     1       6.497   5.094  18.320  0.00  0.00    +0.000 A 
ENDBRANCH  30  31
ENDBRANCH  29  30
ENDBRANCH  27  29
ENDBRANCH  26  27
ENDBRANCH  20  21
ENDBRANCH  19  20
ENDBRANCH   1  19
TORSDOF 12
ENDMDL
MODEL 7
REMARK VINA RESULT:      -7.6      3.249      6.068
REMARK  Name = 
REMARK  13 active torsions:
REMARK  status: ('A' for Active; 'I' for Inactive)
REMARK    1  A    between atoms: C_1  and  O_2
REMARK    2  A    between atoms: O_2  and  C_3
REMARK    3  A    between atoms: C_6  and  N_7
REMARK    4  A    between atoms: N_10  and  C_11
REMARK    5  A    between atoms: C_11  and  C_12
REMARK    6  A    between atoms: C_12  and  O_13
REMARK    7  A    between atoms: C_12  and  C_14
REMARK    8  A    between atoms: C_14  and  O_15
REMARK    9  A    between atoms: O_15  and  C_16
REMARK   10  A    between atoms: C_21  and  C_22
REMARK   11  A    between atoms: C_22  and  C_24
REMARK   12  A    between atoms: C_24  and  C_25
REMARK   13  A    between atoms: C_25  and  C_26
REMARK                            x       y       z     vdW  Elec       q    Type
REMARK                         _______ _______ _______ _____ _____    ______ ____
ROOT
ATOM      1  C   UNL     1       1.989   8.309  18.249  0.00  0.00    +0.000 C 
ENDROOT
BRANCH   1   2
ATOM      2  O   UNL     1       2.816   9.024  17.326  0.00  0.00    +0.000 OA
ATOM      3  H   UNL     1       2.750   9.970  17.548  0.00  0.00    +0.000 HD
ENDBRANCH   1   2
BRANCH   1   4
ATOM      4  C   UNL     1       1.453   9.230  19.377  0.00  0.00    +0.000 C 
BRANCH   4   8
ATOM      5  N   UNL     1       0.468  11.921  21.389  0.00  0.00    +0.000 N 
ATOM      6  C   UNL     1      -0.146  10.586  21.488  0.00  0.00    +0.000 C 
ATOM      7  C   UNL     1      -0.715  10.152  20.125  0.00  0.00    +0.000 C 
ATOM      8  N   UNL     1       0.304  10.118  19.048  0.00  0.00    +0.000 NA
ATOM      9  C   UNL     1       0.772  11.532  18.915  0.00  0.00    +0.000 C 
ATOM     10  C   UNL     1       1.337  12.175  20.219  0.00  0.00    +0.000 C 
BRANCH   5  14
ATOM     11  C   UNL     1      -1.453  15.230  23.153  0.00  0.00    +0.000 A 
ATOM     12  C   UNL     1      -0.492  15.411  22.162  0.00  0.00    +0.000 A 
ATOM     13  C   UNL     1       0.112  14.305  21.551  0.00  0.00    +0.000 A 
ATOM     14  C   UNL     1      -0.211  13.001  21.941  0.00  0.00    +0.000 A 
ATOM     15  C   UNL     1      -1.169  12.845  22.950  0.00  0.00    +0.000 A 
ATOM     16  C   UNL     1      -1.781  13.942  23.559  0.00  0.00    +0.000 A 
BRANCH  11  18
ATOM     17  C   UNL     1      -2.119  16.355  25.106  0.00  0.00    +0.000 C 
ATOM     18  O   UNL     1      -1.985  16.371  23.688  0.00  0.00    +0.000 OA
ENDBRANCH  11  18
ENDBRANCH   5  14
ENDBRANCH   4   8
ENDBRANCH   1   4
BRANCH   1  19
ATOM     19  C   UNL     1       2.717   7.090  18.825  0.00  0.00    +0.000 C 
BRANCH  19  20
ATOM     20  O   UNL     1       1.905   5.905  18.680  0.00  0.00    +0.000 OA
BRANCH  20  21
ATOM     21  C   UNL     1       2.174   4.802  19.454  0.00  0.00    +0.000 A 
ATOM     22  C   UNL     1       1.856   4.775  20.834  0.00  0.00    +0.000 A 
ATOM     23  C   UNL     1       1.956   3.617  21.598  0.00  0.00    +0.000 A 
ATOM     24  C   UNL     1       2.452   2.466  21.028  0.00  0.00    +0.000 A 
ATOM     25  C   UNL     1       2.863   2.490  19.697  0.00  0.00    +0.000 A 
ATOM     26  C   UNL     1       2.740   3.644  18.884  0.00  0.00    +0.000 A 
BRANCH  26  27
ATOM     27  C   UNL     1       3.178   3.384  17.462  0.00  0.00    +0.000 C 
ATOM     28  O   UNL     1       2.345   2.876  16.713  0.00  0.00    +0.000 OA
BRANCH  27  29
ATOM     29  C   UNL     1       4.557   3.660  16.890  0.00  0.00    +0.000 C 
BRANCH  29  30
ATOM     30  C   UNL     1       4.879   5.028  16.317  0.00  0.00    +0.000 C 
BRANCH  30  31
ATOM     31  C   UNL     1       5.988   5.693  17.108  0.00  0.00    +0.000 A 
ATOM     32  C   UNL     1       6.364   7.013  16.816  0.00  0.00    +0.000 A 
ATOM     33  C   UNL     1       7.396   7.634  17.523  0.00  0.00    +0.000 A 
ATOM     34  C   UNL     1       8.063   6.942  18.531  0.00  0.00    +0.000 A 
ATOM     35  C   UNL     1       7.707   5.627  18.824  0.00  0.00    +0.000 A 
ATOM     36  C   UNL     1       6.679   5.000  18.112  0.00  0.00    +0.000 A 
ENDBRANCH  30  31
ENDBRANCH  29  30
ENDBRANCH  27  29
ENDBRANCH  26  27
ENDBRANCH  20  21
ENDBRANCH  19  20
ENDBRANCH   1  19
TORSDOF 12
ENDMDL
MODEL 8
REMARK VINA RESULT:      -7.6      2.789      5.252
REMARK  Name = 
REMARK  13 active torsions:
REMARK  status: ('A' for Active; 'I' for Inactive)
REMARK    1  A    between atoms: C_1  and  O_2
REMARK    2  A    between atoms: O_2  and  C_3
REMARK    3  A    between atoms: C_6  and  N_7
REMARK    4  A    between atoms: N_10  and  C_11
REMARK    5  A    between atoms: C_11  and  C_12
REMARK    6  A    between atoms: C_12  and  O_13
REMARK    7  A    between atoms: C_12  and  C_14
REMARK    8  A    between atoms: C_14  and  O_15
REMARK    9  A    between atoms: O_15  and  C_16
REMARK   10  A    between atoms: C_21  and  C_22
REMARK   11  A    between atoms: C_22  and  C_24
REMARK   12  A    between atoms: C_24  and  C_25
REMARK   13  A    between atoms: C_25  and  C_26
REMARK                            x       y       z     vdW  Elec       q    Type
REMARK                         _______ _______ _______ _____ _____    ______ ____
ROOT
ATOM      1  C   UNL     1       1.814   8.560  18.017  0.00  0.00    +0.000 C 
ENDROOT
BRANCH   1   2
ATOM      2  O   UNL     1       2.868   8.854  17.095  0.00  0.00    +0.000 OA
ATOM      3  H   UNL     1       3.414   9.556  17.491  0.00  0.00    +0.000 HD
ENDBRANCH   1   2
BRANCH   1   4
ATOM      4  C   UNL     1       1.261   9.846  18.689  0.00  0.00    +0.000 C 
BRANCH   4   8
ATOM      5  N   UNL     1      -0.236  12.529  20.368  0.00  0.00    +0.000 N 
ATOM      6  C   UNL     1       0.971  11.851  20.868  0.00  0.00    +0.000 C 
ATOM      7  C   UNL     1       0.708  10.344  21.046  0.00  0.00    +0.000 C 
ATOM      8  N   UNL     1       0.279   9.672  19.795  0.00  0.00    +0.000 NA
ATOM      9  C   UNL     1      -1.019  10.320  19.434  0.00  0.00    +0.000 C 
ATOM     10  C   UNL     1      -0.968  11.870  19.263  0.00  0.00    +0.000 C 
BRANCH   5  14
ATOM     11  C   UNL     1      -2.359  15.046  22.996  0.00  0.00    +0.000 A 
ATOM     12  C   UNL     1      -2.642  15.041  21.633  0.00  0.00    +0.000 A 
ATOM     13  C   UNL     1      -1.961  14.172  20.771  0.00  0.00    +0.000 A 
ATOM     14  C   UNL     1      -0.965  13.315  21.252  0.00  0.00    +0.000 A 
ATOM     15  C   UNL     1      -0.688  13.350  22.625  0.00  0.00    +0.000 A 
ATOM     16  C   UNL     1      -1.367  14.208  23.491  0.00  0.00    +0.000 A 
BRANCH  11  18
ATOM     17  C   UNL     1      -3.256  15.538  25.112  0.00  0.00    +0.000 C 
ATOM     18  O   UNL     1      -3.077  15.929  23.754  0.00  0.00    +0.000 OA
ENDBRANCH  11  18
ENDBRANCH   5  14
ENDBRANCH   4   8
ENDBRANCH   1   4
BRANCH   1  19
ATOM     19  C   UNL     1       2.254   7.531  19.063  0.00  0.00    +0.000 C 
BRANCH  19  20
ATOM     20  O   UNL     1       3.341   6.730  18.554  0.00  0.00    +0.000 OA
BRANCH  20  21
ATOM     21  C   UNL     1       3.143   5.390  18.323  0.00  0.00    +0.000 A 
ATOM     22  C   UNL     1       1.841   4.849  18.194  0.00  0.00    +0.000 A 
ATOM     23  C   UNL     1       1.617   3.537  17.789  0.00  0.00    +0.000 A 
ATOM     24  C   UNL     1       2.687   2.698  17.576  0.00  0.00    +0.000 A 
ATOM     25  C   UNL     1       3.978   3.177  17.788  0.00  0.00    +0.000 A 
ATOM     26  C   UNL     1       4.239   4.518  18.166  0.00  0.00    +0.000 A 
BRANCH  26  27
ATOM     27  C   UNL     1       5.720   4.805  18.249  0.00  0.00    +0.000 C 
ATOM     28  O   UNL     1       6.118   5.354  19.276  0.00  0.00    +0.000 OA
BRANCH  27  29
ATOM     29  C   UNL     1       6.747   4.508  17.171  0.00  0.00    +0.000 C 
BRANCH  29  30
ATOM     30  C   UNL     1       7.026   5.533  16.088  0.00  0.00    +0.000 C 
BRANCH  30  31
ATOM     31  C   UNL     1       6.858   4.921  14.712  0.00  0.00    +0.000 A 
ATOM     32  C   UNL     1       7.690   5.325  13.658  0.00  0.00    +0.000 A 
ATOM     33  C   UNL     1       7.537   4.784  12.380  0.00  0.00    +0.000 A 
ATOM     34  C   UNL     1       6.549   3.830  12.142  0.00  0.00    +0.000 A 
ATOM     35  C   UNL     1       5.709   3.427  13.179  0.00  0.00    +0.000 A 
ATOM     36  C   UNL     1       5.856   3.975  14.457  0.00  0.00    +0.000 A 
ENDBRANCH  30  31
ENDBRANCH  29  30
ENDBRANCH  27  29
ENDBRANCH  26  27
ENDBRANCH  20  21
ENDBRANCH  19  20
ENDBRANCH   1  19
TORSDOF 12
ENDMDL
MODEL 9
REMARK VINA RESULT:      -7.5      3.224      6.198
REMARK  Name = 
REMARK  13 active torsions:
REMARK  status: ('A' for Active; 'I' for Inactive)
REMARK    1  A    between atoms: C_1  and  O_2
REMARK    2  A    between atoms: O_2  and  C_3
REMARK    3  A    between atoms: C_6  and  N_7
REMARK    4  A    between atoms: N_10  and  C_11
REMARK    5  A    between atoms: C_11  and  C_12
REMARK    6  A    between atoms: C_12  and  O_13
REMARK    7  A    between atoms: C_12  and  C_14
REMARK    8  A    between atoms: C_14  and  O_15
REMARK    9  A    between atoms: O_15  and  C_16
REMARK   10  A    between atoms: C_21  and  C_22
REMARK   11  A    between atoms: C_22  and  C_24
REMARK   12  A    between atoms: C_24  and  C_25
REMARK   13  A    between atoms: C_25  and  C_26
REMARK                            x       y       z     vdW  Elec       q    Type
REMARK                         _______ _______ _______ _____ _____    ______ ____
ROOT
ATOM      1  C   UNL     1       1.769   8.680  18.240  0.00  0.00    +0.000 C 
ENDROOT
BRANCH   1   2
ATOM      2  O   UNL     1       2.566   8.663  17.051  0.00  0.00    +0.000 OA
ATOM      3  H   UNL     1       3.194   7.923  17.132  0.00  0.00    +0.000 HD
ENDBRANCH   1   2
BRANCH   1   4
ATOM      4  C   UNL     1       1.644  10.110  18.829  0.00  0.00    +0.000 C 
BRANCH   4   8
ATOM      5  N   UNL     1      -1.554  11.531  18.943  0.00  0.00    +0.000 N 
ATOM      6  C   UNL     1      -0.329  12.307  19.199  0.00  0.00    +0.000 C 
ATOM      7  C   UNL     1       0.479  11.674  20.348  0.00  0.00    +0.000 C 
ATOM      8  N   UNL     1       0.864  10.266  20.088  0.00  0.00    +0.000 NA
ATOM      9  C   UNL     1      -0.431   9.525  19.983  0.00  0.00    +0.000 C 
ATOM     10  C   UNL     1      -1.420  10.059  18.900  0.00  0.00    +0.000 C 
BRANCH   5  14
ATOM     11  C   UNL     1      -5.226  13.250  20.089  0.00  0.00    +0.000 A 
ATOM     12  C   UNL     1      -5.146  12.427  18.969  0.00  0.00    +0.000 A 
ATOM     13  C   UNL     1      -3.930  11.826  18.618  0.00  0.00    +0.000 A 
ATOM     14  C   UNL     1      -2.769  12.061  19.362  0.00  0.00    +0.000 A 
ATOM     15  C   UNL     1      -2.873  12.905  20.475  0.00  0.00    +0.000 A 
ATOM     16  C   UNL     1      -4.082  13.502  20.836  0.00  0.00    +0.000 A 
BRANCH  11  18
ATOM     17  C   UNL     1      -7.043  13.364  21.575  0.00  0.00    +0.000 C 
ATOM     18  O   UNL     1      -6.456  13.789  20.349  0.00  0.00    +0.000 OA
ENDBRANCH  11  18
ENDBRANCH   5  14
ENDBRANCH   4   8
ENDBRANCH   1   4
BRANCH   1  19
ATOM     19  C   UNL     1       2.299   7.692  19.284  0.00  0.00    +0.000 C 
BRANCH  19  20
ATOM     20  O   UNL     1       2.630   6.432  18.662  0.00  0.00    +0.000 OA
BRANCH  20  21
ATOM     21  C   UNL     1       2.555   5.275  19.399  0.00  0.00    +0.000 A 
ATOM     22  C   UNL     1       2.230   5.298  20.777  0.00  0.00    +0.000 A 
ATOM     23  C   UNL     1       1.978   4.137  21.501  0.00  0.00    +0.000 A 
ATOM     24  C   UNL     1       2.120   2.911  20.893  0.00  0.00    +0.000 A 
ATOM     25  C   UNL     1       2.532   2.855  19.564  0.00  0.00    +0.000 A 
ATOM     26  C   UNL     1       2.762   4.021  18.790  0.00  0.00    +0.000 A 
BRANCH  26  27
ATOM     27  C   UNL     1       3.118   3.689  17.360  0.00  0.00    +0.000 C 
ATOM     28  O   UNL     1       2.209   3.258  16.652  0.00  0.00    +0.000 OA
BRANCH  27  29
ATOM     29  C   UNL     1       4.497   3.807  16.735  0.00  0.00    +0.000 C 
BRANCH  29  30
ATOM     30  C   UNL     1       4.975   5.145  16.203  0.00  0.00    +0.000 C 
BRANCH  30  31
ATOM     31  C   UNL     1       6.061   5.719  17.090  0.00  0.00    +0.000 A 
ATOM     32  C   UNL     1       6.524   7.026  16.877  0.00  0.00    +0.000 A 
ATOM     33  C   UNL     1       7.537   7.563  17.674  0.00  0.00    +0.000 A 
ATOM     34  C   UNL     1       8.098   6.798  18.694  0.00  0.00    +0.000 A 
ATOM     35  C   UNL     1       7.656   5.494  18.910  0.00  0.00    +0.000 A 
ATOM     36  C   UNL     1       6.647   4.952  18.107  0.00  0.00    +0.000 A 
ENDBRANCH  30  31
ENDBRANCH  29  30
ENDBRANCH  27  29
ENDBRANCH  26  27
ENDBRANCH  20  21
ENDBRANCH  19  20
ENDBRANCH   1  19
TORSDOF 12
ENDMDL
