MODEL 1
REMARK VINA RESULT:      -6.9      0.000      0.000
REMARK  Name = 
REMARK  6 active torsions:
REMARK  status: ('A' for Active; 'I' for Inactive)
REMARK    1  A    between atoms: C_1  and  C_2
REMARK    2  A    between atoms: C_2  and  N_4
REMARK    3  A    between atoms: N_9  and  C_10
REMARK    4  A    between atoms: C_10  and  C_11
REMARK    5  A    between atoms: C_11  and  C_13
REMARK    6  A    between atoms: C_16  and  C_17
REMARK                            x       y       z     vdW  Elec       q    Type
REMARK                         _______ _______ _______ _____ _____    ______ ____
ROOT
ATOM      1  C   UNL     1       3.942   7.099  16.987  0.00  0.00    +0.000 C 
ENDROOT
BRANCH   1   7
ATOM      2  N   UNL     1       5.789   5.525  15.150  0.00  0.00    +0.000 NA
ATOM      3  C   UNL     1       5.882   5.531  16.443  0.00  0.00    +0.000 A 
ATOM      4  S   UNL     1       7.081   4.586  17.383  0.00  0.00    +0.000 S 
ATOM      5  C   UNL     1       6.496   5.217  18.882  0.00  0.00    +0.000 A 
ATOM      6  C   UNL     1       5.488   6.070  18.681  0.00  0.00    +0.000 A 
ATOM      7  N   UNL     1       5.086   6.248  17.363  0.00  0.00    +0.000 N 
BRANCH   2   9
ATOM      8  C   UNL     1       6.429   3.793  13.419  0.00  0.00    +0.000 C 
ATOM      9  C   UNL     1       6.760   4.973  14.312  0.00  0.00    +0.000 C 
ATOM     10  O   UNL     1       7.847   5.542  14.199  0.00  0.00    +0.000 OA
ENDBRANCH   2   9
ENDBRANCH   1   7
BRANCH   1  11
ATOM     11  C   UNL     1       2.906   7.288  18.111  0.00  0.00    +0.000 C 
ATOM     12  O   UNL     1       2.654   8.405  18.568  0.00  0.00    +0.000 OA
BRANCH  11  13
ATOM     13  C   UNL     1       2.222   6.097  18.709  0.00  0.00    +0.000 A 
ATOM     14  C   UNL     1       1.868   4.992  17.937  0.00  0.00    +0.000 A 
ATOM     15  C   UNL     1       1.607   3.767  18.552  0.00  0.00    +0.000 A 
ATOM     16  C   UNL     1       1.631   3.656  19.944  0.00  0.00    +0.000 A 
ATOM     17  C   UNL     1       1.691   2.308  20.600  0.00  0.00    +0.000 C 
ATOM     18  C   UNL     1       1.747   4.818  20.714  0.00  0.00    +0.000 A 
ATOM     19  C   UNL     1       2.046   6.038  20.098  0.00  0.00    +0.000 A 
ENDBRANCH  11  13
ENDBRANCH   1  11
TORSDOF 4
ENDMDL
MODEL 2
REMARK VINA RESULT:      -6.8      2.399      6.399
REMARK  Name = 
REMARK  6 active torsions:
REMARK  status: ('A' for Active; 'I' for Inactive)
REMARK    1  A    between atoms: C_1  and  C_2
REMARK    2  A    between atoms: C_2  and  N_4
REMARK    3  A    between atoms: N_9  and  C_10
REMARK    4  A    between atoms: C_10  and  C_11
REMARK    5  A    between atoms: C_11  and  C_13
REMARK    6  A    between atoms: C_16  and  C_17
REMARK                            x       y       z     vdW  Elec       q    Type
REMARK                         _______ _______ _______ _____ _____    ______ ____
ROOT
ATOM      1  C   UNL     1       6.144   4.726  17.242  0.00  0.00    +0.000 C 
ENDROOT
BRANCH   1   7
ATOM      2  N   UNL     1       3.745   3.463  18.625  0.00  0.00    +0.000 NA
ATOM      3  C   UNL     1       3.802   4.706  18.259  0.00  0.00    +0.000 A 
ATOM      4  S   UNL     1       2.473   5.890  18.463  0.00  0.00    +0.000 S 
ATOM      5  C   UNL     1       3.417   7.163  17.772  0.00  0.00    +0.000 A 
ATOM      6  C   UNL     1       4.630   6.724  17.427  0.00  0.00    +0.000 A 
ATOM      7  N   UNL     1       4.880   5.374  17.637  0.00  0.00    +0.000 N 
BRANCH   2   9
ATOM      8  C   UNL     1       1.565   2.195  18.835  0.00  0.00    +0.000 C 
ATOM      9  C   UNL     1       2.734   2.948  19.439  0.00  0.00    +0.000 C 
ATOM     10  O   UNL     1       2.874   2.984  20.664  0.00  0.00    +0.000 OA
ENDBRANCH   2   9
ENDBRANCH   1   7
BRANCH   1  11
ATOM     11  C   UNL     1       6.847   5.400  16.048  0.00  0.00    +0.000 C 
ATOM     12  O   UNL     1       7.609   6.355  16.210  0.00  0.00    +0.000 OA
BRANCH  11  13
ATOM     13  C   UNL     1       6.567   4.933  14.652  0.00  0.00    +0.000 A 
ATOM     14  C   UNL     1       7.516   5.046  13.639  0.00  0.00    +0.000 A 
ATOM     15  C   UNL     1       7.399   4.271  12.484  0.00  0.00    +0.000 A 
ATOM     16  C   UNL     1       6.297   3.431  12.306  0.00  0.00    +0.000 A 
ATOM     17  C   UNL     1       6.319   2.358  11.257  0.00  0.00    +0.000 C 
ATOM     18  C   UNL     1       5.234   3.508  13.212  0.00  0.00    +0.000 A 
ATOM     19  C   UNL     1       5.370   4.255  14.387  0.00  0.00    +0.000 A 
ENDBRANCH  11  13
ENDBRANCH   1  11
TORSDOF 4
ENDMDL
MODEL 3
REMARK VINA RESULT:      -6.8      2.692      4.261
REMARK  Name = 
REMARK  6 active torsions:
REMARK  status: ('A' for Active; 'I' for Inactive)
REMARK    1  A    between atoms: C_1  and  C_2
REMARK    2  A    between atoms: C_2  and  N_4
REMARK    3  A    between atoms: N_9  and  C_10
REMARK    4  A    between atoms: C_10  and  C_11
REMARK    5  A    between atoms: C_11  and  C_13
REMARK    6  A    between atoms: C_16  and  C_17
REMARK                            x       y       z     vdW  Elec       q    Type
REMARK                         _______ _______ _______ _____ _____    ______ ____
ROOT
ATOM      1  C   UNL     1       3.380   4.668  20.320  0.00  0.00    +0.000 C 
ENDROOT
BRANCH   1   7
ATOM      2  N   UNL     1       6.068   5.478  19.145  0.00  0.00    +0.000 NA
ATOM      3  C   UNL     1       5.160   4.817  18.496  0.00  0.00    +0.000 A 
ATOM      4  S   UNL     1       5.303   4.299  16.786  0.00  0.00    +0.000 S 
ATOM      5  C   UNL     1       3.756   3.527  16.825  0.00  0.00    +0.000 A 
ATOM      6  C   UNL     1       3.191   3.650  18.029  0.00  0.00    +0.000 A 
ATOM      7  N   UNL     1       3.903   4.382  18.972  0.00  0.00    +0.000 N 
BRANCH   2   9
ATOM      8  C   UNL     1       7.814   7.011  18.142  0.00  0.00    +0.000 C 
ATOM      9  C   UNL     1       7.369   5.662  18.672  0.00  0.00    +0.000 C 
ATOM     10  O   UNL     1       8.194   4.759  18.822  0.00  0.00    +0.000 OA
ENDBRANCH   2   9
ENDBRANCH   1   7
BRANCH   1  11
ATOM     11  C   UNL     1       2.028   5.406  20.325  0.00  0.00    +0.000 C 
ATOM     12  O   UNL     1       0.972   4.806  20.539  0.00  0.00    +0.000 OA
BRANCH  11  13
ATOM     13  C   UNL     1       1.971   6.869  20.010  0.00  0.00    +0.000 A 
ATOM     14  C   UNL     1       2.384   7.368  18.777  0.00  0.00    +0.000 A 
ATOM     15  C   UNL     1       1.967   8.634  18.361  0.00  0.00    +0.000 A 
ATOM     16  C   UNL     1       1.191   9.433  19.204  0.00  0.00    +0.000 A 
ATOM     17  C   UNL     1       0.459  10.626  18.662  0.00  0.00    +0.000 C 
ATOM     18  C   UNL     1       0.987   9.025  20.527  0.00  0.00    +0.000 A 
ATOM     19  C   UNL     1       1.373   7.742  20.929  0.00  0.00    +0.000 A 
ENDBRANCH  11  13
ENDBRANCH   1  11
TORSDOF 4
ENDMDL
MODEL 4
REMARK VINA RESULT:      -6.8      2.532      4.170
REMARK  Name = 
REMARK  6 active torsions:
REMARK  status: ('A' for Active; 'I' for Inactive)
REMARK    1  A    between atoms: C_1  and  C_2
REMARK    2  A    between atoms: C_2  and  N_4
REMARK    3  A    between atoms: N_9  and  C_10
REMARK    4  A    between atoms: C_10  and  C_11
REMARK    5  A    between atoms: C_11  and  C_13
REMARK    6  A    between atoms: C_16  and  C_17
REMARK                            x       y       z     vdW  Elec       q    Type
REMARK                         _______ _______ _______ _____ _____    ______ ____
ROOT
ATOM      1  C   UNL     1       3.595   3.983  18.892  0.00  0.00    +0.000 C 
ENDROOT
BRANCH   1   7
ATOM      2  N   UNL     1       6.305   5.296  19.326  0.00  0.00    +0.000 NA
ATOM      3  C   UNL     1       5.941   4.729  18.218  0.00  0.00    +0.000 A 
ATOM      4  S   UNL     1       6.945   4.652  16.735  0.00  0.00    +0.000 S 
ATOM      5  C   UNL     1       5.735   3.753  15.888  0.00  0.00    +0.000 A 
ATOM      6  C   UNL     1       4.673   3.531  16.666  0.00  0.00    +0.000 A 
ATOM      7  N   UNL     1       4.718   4.079  17.942  0.00  0.00    +0.000 N 
BRANCH   2   9
ATOM      8  C   UNL     1       8.210   6.893  18.849  0.00  0.00    +0.000 C 
ATOM      9  C   UNL     1       7.614   5.708  19.584  0.00  0.00    +0.000 C 
ATOM     10  O   UNL     1       8.232   5.191  20.517  0.00  0.00    +0.000 OA
ENDBRANCH   2   9
ENDBRANCH   1   7
BRANCH   1  11
ATOM     11  C   UNL     1       2.375   4.842  18.508  0.00  0.00    +0.000 C 
ATOM     12  O   UNL     1       1.447   4.375  17.843  0.00  0.00    +0.000 OA
BRANCH  11  13
ATOM     13  C   UNL     1       2.325   6.288  18.894  0.00  0.00    +0.000 A 
ATOM     14  C   UNL     1       2.486   7.303  17.953  0.00  0.00    +0.000 A 
ATOM     15  C   UNL     1       2.053   8.598  18.242  0.00  0.00    +0.000 A 
ATOM     16  C   UNL     1       1.519   8.900  19.496  0.00  0.00    +0.000 A 
ATOM     17  C   UNL     1       0.749  10.170  19.711  0.00  0.00    +0.000 C 
ATOM     18  C   UNL     1       1.586   7.938  20.511  0.00  0.00    +0.000 A 
ATOM     19  C   UNL     1       1.984   6.632  20.209  0.00  0.00    +0.000 A 
ENDBRANCH  11  13
ENDBRANCH   1  11
TORSDOF 4
ENDMDL
MODEL 5
REMARK VINA RESULT:      -6.7      2.885      6.111
REMARK  Name = 
REMARK  6 active torsions:
REMARK  status: ('A' for Active; 'I' for Inactive)
REMARK    1  A    between atoms: C_1  and  C_2
REMARK    2  A    between atoms: C_2  and  N_4
REMARK    3  A    between atoms: N_9  and  C_10
REMARK    4  A    between atoms: C_10  and  C_11
REMARK    5  A    between atoms: C_11  and  C_13
REMARK    6  A    between atoms: C_16  and  C_17
REMARK                            x       y       z     vdW  Elec       q    Type
REMARK                         _______ _______ _______ _____ _____    ______ ____
ROOT
ATOM      1  C   UNL     1       4.677   3.444  19.330  0.00  0.00    +0.000 C 
ENDROOT
BRANCH   1   7
ATOM      2  N   UNL     1       3.183   6.088  19.527  0.00  0.00    +0.000 NA
ATOM      3  C   UNL     1       2.666   4.937  19.827  0.00  0.00    +0.000 A 
ATOM      4  S   UNL     1       1.002   4.698  20.447  0.00  0.00    +0.000 S 
ATOM      5  C   UNL     1       1.205   2.982  20.509  0.00  0.00    +0.000 A 
ATOM      6  C   UNL     1       2.423   2.630  20.090  0.00  0.00    +0.000 A 
ATOM      7  N   UNL     1       3.278   3.667  19.741  0.00  0.00    +0.000 N 
BRANCH   2   9
ATOM      8  C   UNL     1       2.167   7.888  18.067  0.00  0.00    +0.000 C 
ATOM      9  C   UNL     1       2.434   7.262  19.422  0.00  0.00    +0.000 C 
ATOM     10  O   UNL     1       1.871   7.706  20.424  0.00  0.00    +0.000 OA
ENDBRANCH   2   9
ENDBRANCH   1   7
BRANCH   1  11
ATOM     11  C   UNL     1       4.971   3.838  17.870  0.00  0.00    +0.000 C 
ATOM     12  O   UNL     1       4.459   3.230  16.927  0.00  0.00    +0.000 OA
BRANCH  11  13
ATOM     13  C   UNL     1       5.938   4.942  17.571  0.00  0.00    +0.000 A 
ATOM     14  C   UNL     1       5.617   5.979  16.698  0.00  0.00    +0.000 A 
ATOM     15  C   UNL     1       6.341   7.172  16.735  0.00  0.00    +0.000 A 
ATOM     16  C   UNL     1       7.431   7.309  17.598  0.00  0.00    +0.000 A 
ATOM     17  C   UNL     1       8.000   8.665  17.897  0.00  0.00    +0.000 C 
ATOM     18  C   UNL     1       7.893   6.185  18.290  0.00  0.00    +0.000 A 
ATOM     19  C   UNL     1       7.145   5.003  18.281  0.00  0.00    +0.000 A 
ENDBRANCH  11  13
ENDBRANCH   1  11
TORSDOF 4
ENDMDL
MODEL 6
REMARK VINA RESULT:      -6.7      1.875      3.080
REMARK  Name = 
REMARK  6 active torsions:
REMARK  status: ('A' for Active; 'I' for Inactive)
REMARK    1  A    between atoms: C_1  and  C_2
REMARK    2  A    between atoms: C_2  and  N_4
REMARK    3  A    between atoms: N_9  and  C_10
REMARK    4  A    between atoms: C_10  and  C_11
REMARK    5  A    between atoms: C_11  and  C_13
REMARK    6  A    between atoms: C_16  and  C_17
REMARK                            x       y       z     vdW  Elec       q    Type
REMARK                         _______ _______ _______ _____ _____    ______ ____
ROOT
ATOM      1  C   UNL     1       3.878   3.723  18.740  0.00  0.00    +0.000 C 
ENDROOT
BRANCH   1   7
ATOM      2  N   UNL     1       5.165   4.373  16.059  0.00  0.00    +0.000 NA
ATOM      3  C   UNL     1       5.667   4.709  17.207  0.00  0.00    +0.000 A 
ATOM      4  S   UNL     1       7.220   5.575  17.425  0.00  0.00    +0.000 S 
ATOM      5  C   UNL     1       7.036   5.601  19.144  0.00  0.00    +0.000 A 
ATOM      6  C   UNL     1       5.895   5.010  19.511  0.00  0.00    +0.000 A 
ATOM      7  N   UNL     1       5.125   4.469  18.489  0.00  0.00    +0.000 N 
BRANCH   2   9
ATOM      8  C   UNL     1       6.091   3.891  13.754  0.00  0.00    +0.000 C 
ATOM      9  C   UNL     1       5.648   4.852  14.840  0.00  0.00    +0.000 C 
ATOM     10  O   UNL     1       5.577   6.059  14.599  0.00  0.00    +0.000 OA
ENDBRANCH   2   9
ENDBRANCH   1   7
BRANCH   1  11
ATOM     11  C   UNL     1       2.597   4.528  18.449  0.00  0.00    +0.000 C 
ATOM     12  O   UNL     1       1.629   4.010  17.887  0.00  0.00    +0.000 OA
BRANCH  11  13
ATOM     13  C   UNL     1       2.531   5.983  18.798  0.00  0.00    +0.000 A 
ATOM     14  C   UNL     1       2.706   6.976  17.835  0.00  0.00    +0.000 A 
ATOM     15  C   UNL     1       2.259   8.274  18.082  0.00  0.00    +0.000 A 
ATOM     16  C   UNL     1       1.696   8.604  19.318  0.00  0.00    +0.000 A 
ATOM     17  C   UNL     1       0.914   9.873  19.484  0.00  0.00    +0.000 C 
ATOM     18  C   UNL     1       1.747   7.668  20.357  0.00  0.00    +0.000 A 
ATOM     19  C   UNL     1       2.160   6.357  20.096  0.00  0.00    +0.000 A 
ENDBRANCH  11  13
ENDBRANCH   1  11
TORSDOF 4
ENDMDL
MODEL 7
REMARK VINA RESULT:      -6.7      2.014      3.304
REMARK  Name = 
REMARK  6 active torsions:
REMARK  status: ('A' for Active; 'I' for Inactive)
REMARK    1  A    between atoms: C_1  and  C_2
REMARK    2  A    between atoms: C_2  and  N_4
REMARK    3  A    between atoms: N_9  and  C_10
REMARK    4  A    between atoms: C_10  and  C_11
REMARK    5  A    between atoms: C_11  and  C_13
REMARK    6  A    between atoms: C_16  and  C_17
REMARK                            x       y       z     vdW  Elec       q    Type
REMARK                         _______ _______ _______ _____ _____    ______ ____
ROOT
ATOM      1  C   UNL     1       3.304   4.752  18.474  0.00  0.00    +0.000 C 
ENDROOT
BRANCH   1   7
ATOM      2  N   UNL     1       5.060   4.649  15.991  0.00  0.00    +0.000 NA
ATOM      3  C   UNL     1       5.507   4.865  17.189  0.00  0.00    +0.000 A 
ATOM      4  S   UNL     1       7.234   5.100  17.605  0.00  0.00    +0.000 S 
ATOM      5  C   UNL     1       6.864   5.334  19.277  0.00  0.00    +0.000 A 
ATOM      6  C   UNL     1       5.548   5.247  19.492  0.00  0.00    +0.000 A 
ATOM      7  N   UNL     1       4.762   4.952  18.385  0.00  0.00    +0.000 N 
BRANCH   2   9
ATOM      8  C   UNL     1       6.121   3.631  13.931  0.00  0.00    +0.000 C 
ATOM      9  C   UNL     1       5.836   4.809  14.841  0.00  0.00    +0.000 C 
ATOM     10  O   UNL     1       6.166   5.945  14.495  0.00  0.00    +0.000 OA
ENDBRANCH   2   9
ENDBRANCH   1   7
BRANCH   1  11
ATOM     11  C   UNL     1       2.629   5.553  19.604  0.00  0.00    +0.000 C 
ATOM     12  O   UNL     1       2.289   5.011  20.658  0.00  0.00    +0.000 OA
BRANCH  11  13
ATOM     13  C   UNL     1       2.322   7.006  19.412  0.00  0.00    +0.000 A 
ATOM     14  C   UNL     1       2.454   7.625  18.170  0.00  0.00    +0.000 A 
ATOM     15  C   UNL     1       1.805   8.835  17.921  0.00  0.00    +0.000 A 
ATOM     16  C   UNL     1       1.077   9.466  18.931  0.00  0.00    +0.000 A 
ATOM     17  C   UNL     1       0.110  10.566  18.601  0.00  0.00    +0.000 C 
ATOM     18  C   UNL     1       1.151   8.965  20.235  0.00  0.00    +0.000 A 
ATOM     19  C   UNL     1       1.770   7.733  20.475  0.00  0.00    +0.000 A 
ENDBRANCH  11  13
ENDBRANCH   1  11
TORSDOF 4
ENDMDL
MODEL 8
REMARK VINA RESULT:      -6.6      0.616      1.262
REMARK  Name = 
REMARK  6 active torsions:
REMARK  status: ('A' for Active; 'I' for Inactive)
REMARK    1  A    between atoms: C_1  and  C_2
REMARK    2  A    between atoms: C_2  and  N_4
REMARK    3  A    between atoms: N_9  and  C_10
REMARK    4  A    between atoms: C_10  and  C_11
REMARK    5  A    between atoms: C_11  and  C_13
REMARK    6  A    between atoms: C_16  and  C_17
REMARK                            x       y       z     vdW  Elec       q    Type
REMARK                         _______ _______ _______ _____ _____    ______ ____
ROOT
ATOM      1  C   UNL     1       4.475   7.415  17.063  0.00  0.00    +0.000 C 
ENDROOT
BRANCH   1   7
ATOM      2  N   UNL     1       5.942   5.616  15.094  0.00  0.00    +0.000 NA
ATOM      3  C   UNL     1       6.181   5.646  16.368  0.00  0.00    +0.000 A 
ATOM      4  S   UNL     1       7.382   4.611  17.204  0.00  0.00    +0.000 S 
ATOM      5  C   UNL     1       7.034   5.337  18.735  0.00  0.00    +0.000 A 
ATOM      6  C   UNL     1       6.096   6.280  18.614  0.00  0.00    +0.000 A 
ATOM      7  N   UNL     1       5.567   6.464  17.342  0.00  0.00    +0.000 N 
BRANCH   2   9
ATOM      8  C   UNL     1       6.230   3.749  13.410  0.00  0.00    +0.000 C 
ATOM      9  C   UNL     1       6.754   4.948  14.175  0.00  0.00    +0.000 C 
ATOM     10  O   UNL     1       7.852   5.428  13.886  0.00  0.00    +0.000 OA
ENDBRANCH   2   9
ENDBRANCH   1   7
BRANCH   1  11
ATOM     11  C   UNL     1       3.238   7.229  17.961  0.00  0.00    +0.000 C 
ATOM     12  O   UNL     1       2.542   8.190  18.300  0.00  0.00    +0.000 OA
BRANCH  11  13
ATOM     13  C   UNL     1       2.890   5.871  18.487  0.00  0.00    +0.000 A 
ATOM     14  C   UNL     1       2.732   5.633  19.851  0.00  0.00    +0.000 A 
ATOM     15  C   UNL     1       2.039   4.502  20.287  0.00  0.00    +0.000 A 
ATOM     16  C   UNL     1       1.559   3.570  19.364  0.00  0.00    +0.000 A 
ATOM     17  C   UNL     1       0.539   2.549  19.774  0.00  0.00    +0.000 C 
ATOM     18  C   UNL     1       1.932   3.692  18.021  0.00  0.00    +0.000 A 
ATOM     19  C   UNL     1       2.593   4.844  17.582  0.00  0.00    +0.000 A 
ENDBRANCH  11  13
ENDBRANCH   1  11
TORSDOF 4
ENDMDL
MODEL 9
REMARK VINA RESULT:      -6.6      2.667      6.109
REMARK  Name = 
REMARK  6 active torsions:
REMARK  status: ('A' for Active; 'I' for Inactive)
REMARK    1  A    between atoms: C_1  and  C_2
REMARK    2  A    between atoms: C_2  and  N_4
REMARK    3  A    between atoms: N_9  and  C_10
REMARK    4  A    between atoms: C_10  and  C_11
REMARK    5  A    between atoms: C_11  and  C_13
REMARK    6  A    between atoms: C_16  and  C_17
REMARK                            x       y       z     vdW  Elec       q    Type
REMARK                         _______ _______ _______ _____ _____    ______ ____
ROOT
ATOM      1  C   UNL     1       6.114   5.532  19.022  0.00  0.00    +0.000 C 
ENDROOT
BRANCH   1   7
ATOM      2  N   UNL     1       3.989   3.451  19.665  0.00  0.00    +0.000 NA
ATOM      3  C   UNL     1       3.756   4.554  19.024  0.00  0.00    +0.000 A 
ATOM      4  S   UNL     1       2.158   5.033  18.369  0.00  0.00    +0.000 S 
ATOM      5  C   UNL     1       2.782   6.532  17.774  0.00  0.00    +0.000 A 
ATOM      6  C   UNL     1       4.082   6.654  18.056  0.00  0.00    +0.000 A 
ATOM      7  N   UNL     1       4.675   5.579  18.708  0.00  0.00    +0.000 N 
BRANCH   2   9
ATOM      8  C   UNL     1       2.376   2.818  21.510  0.00  0.00    +0.000 C 
ATOM      9  C   UNL     1       2.980   2.607  20.135  0.00  0.00    +0.000 C 
ATOM     10  O   UNL     1       2.485   1.780  19.367  0.00  0.00    +0.000 OA
ENDBRANCH   2   9
ENDBRANCH   1   7
BRANCH   1  11
ATOM     11  C   UNL     1       6.958   4.770  17.982  0.00  0.00    +0.000 C 
ATOM     12  O   UNL     1       8.030   4.244  18.289  0.00  0.00    +0.000 OA
BRANCH  11  13
ATOM     13  C   UNL     1       6.509   4.704  16.555  0.00  0.00    +0.000 A 
ATOM     14  C   UNL     1       7.119   5.465  15.560  0.00  0.00    +0.000 A 
ATOM     15  C   UNL     1       6.968   5.111  14.219  0.00  0.00    +0.000 A 
ATOM     16  C   UNL     1       6.152   4.036  13.861  0.00  0.00    +0.000 A 
ATOM     17  C   UNL     1       6.241   3.435  12.488  0.00  0.00    +0.000 C 
ATOM     18  C   UNL     1       5.355   3.434  14.841  0.00  0.00    +0.000 A 
ATOM     19  C   UNL     1       5.536   3.765  16.188  0.00  0.00    +0.000 A 
ENDBRANCH  11  13
ENDBRANCH   1  11
TORSDOF 4
ENDMDL
