MODEL 1
REMARK VINA RESULT:      -8.8      0.000      0.000
REMARK  Name = 
REMARK  7 active torsions:
REMARK  status: ('A' for Active; 'I' for Inactive)
REMARK    1  A    between atoms: C_2  and  C_3
REMARK    2  A    between atoms: C_9  and  O_10
REMARK    3  A    between atoms: O_10  and  C_11
REMARK    4  A    between atoms: C_14  and  S_15
REMARK    5  A    between atoms: S_15  and  N_18
REMARK    6  A    between atoms: N_20  and  N_21
REMARK    7  A    between atoms: N_22  and  C_23
REMARK                            x       y       z     vdW  Elec       q    Type
REMARK                         _______ _______ _______ _____ _____    ______ ____
ROOT
ATOM      1  S   UNL     1       0.170  10.275  21.047  0.00  0.00    +0.000 S 
ATOM      2  O   UNL     1      -0.643   9.501  21.967  0.00  0.00    +0.000 OA
ATOM      3  O   UNL     1       1.108  11.254  21.575  0.00  0.00    +0.000 OA
ENDROOT
BRANCH   1   7
ATOM      4  C   UNL     1       2.487   7.188  18.597  0.00  0.00    +0.000 A 
ATOM      5  C   UNL     1       2.238   6.970  19.958  0.00  0.00    +0.000 A 
ATOM      6  C   UNL     1       1.568   7.926  20.720  0.00  0.00    +0.000 A 
ATOM      7  C   UNL     1       1.145   9.109  20.111  0.00  0.00    +0.000 A 
ATOM      8  C   UNL     1       1.412   9.350  18.759  0.00  0.00    +0.000 A 
ATOM      9  C   UNL     1       2.122   8.403  18.013  0.00  0.00    +0.000 A 
BRANCH   4  10
ATOM     10  O   UNL     1       3.125   6.149  17.969  0.00  0.00    +0.000 OA
BRANCH  10  17
ATOM     11  C   UNL     1       3.991   4.035  18.959  0.00  0.00    +0.000 A 
ATOM     12  C   UNL     1       3.709   2.674  19.181  0.00  0.00    +0.000 A 
ATOM     13 CL   UNL     1       4.856   1.603  19.914  0.00  0.00    +0.000 Cl
ATOM     14  C   UNL     1       2.483   2.119  18.799  0.00  0.00    +0.000 A 
ATOM     15  C   UNL     1       1.516   2.915  18.196  0.00  0.00    +0.000 A 
ATOM     16  C   UNL     1       1.775   4.267  17.983  0.00  0.00    +0.000 A 
ATOM     17  C   UNL     1       2.997   4.839  18.375  0.00  0.00    +0.000 A 
BRANCH  11  19
ATOM     18  N   UNL     1       6.309   4.970  19.662  0.00  0.00    +0.000 NA
ATOM     19  C   UNL     1       5.285   4.547  19.319  0.00  0.00    +0.000 C 
ENDBRANCH  11  19
ENDBRANCH  10  17
ENDBRANCH   4  10
ENDBRANCH   1   7
BRANCH   1  20
ATOM     20  N   UNL     1      -0.780  10.959  19.954  0.00  0.00    +0.000 NA
ATOM     21  C   UNL     1      -1.708  11.811  20.254  0.00  0.00    +0.000 C 
ATOM     22  N   UNL     1      -2.132  12.378  21.455  0.00  0.00    +0.000 N 
ATOM     23  N   UNL     1      -2.467  12.394  19.255  0.00  0.00    +0.000 N 
ATOM     24  H   UNL     1      -3.124  12.620  21.458  0.00  0.00    +0.000 HD
ATOM     25  H   UNL     1      -2.791  13.336  19.432  0.00  0.00    +0.000 HD
BRANCH  23  26
ATOM     26  C   UNL     1      -2.949  11.818  18.070  0.00  0.00    +0.000 A 
ATOM     27  C   UNL     1      -4.311  11.749  17.756  0.00  0.00    +0.000 A 
ATOM     28  C   UNL     1      -4.743  11.203  16.542  0.00  0.00    +0.000 A 
ATOM     29  C   UNL     1      -3.815  10.686  15.643  0.00  0.00    +0.000 A 
ATOM     30 CL   UNL     1      -4.344  10.040  14.140  0.00  0.00    +0.000 Cl
ATOM     31  C   UNL     1      -2.460  10.696  15.957  0.00  0.00    +0.000 A 
ATOM     32  C   UNL     1      -2.033  11.255  17.165  0.00  0.00    +0.000 A 
ENDBRANCH  23  26
BRANCH  22  33
ATOM     33  N   UNL     1      -1.657  11.948  22.704  0.00  0.00    +0.000 NA
ATOM     34  H   UNL     1      -0.625  11.977  22.727  0.00  0.00    +0.000 HD
ATOM     35  H   UNL     1      -1.899  10.964  22.884  0.00  0.00    +0.000 HD
ENDBRANCH  22  33
ENDBRANCH   1  20
TORSDOF 7
ENDMDL
MODEL 2
REMARK VINA RESULT:      -8.0      1.495      2.093
REMARK  Name = 
REMARK  7 active torsions:
REMARK  status: ('A' for Active; 'I' for Inactive)
REMARK    1  A    between atoms: C_2  and  C_3
REMARK    2  A    between atoms: C_9  and  O_10
REMARK    3  A    between atoms: O_10  and  C_11
REMARK    4  A    between atoms: C_14  and  S_15
REMARK    5  A    between atoms: S_15  and  N_18
REMARK    6  A    between atoms: N_20  and  N_21
REMARK    7  A    between atoms: N_22  and  C_23
REMARK                            x       y       z     vdW  Elec       q    Type
REMARK                         _______ _______ _______ _____ _____    ______ ____
ROOT
ATOM      1  S   UNL     1       0.719  10.991  21.110  0.00  0.00    +0.000 S 
ATOM      2  O   UNL     1       0.300  10.583  22.438  0.00  0.00    +0.000 OA
ATOM      3  O   UNL     1       1.826  11.923  20.965  0.00  0.00    +0.000 OA
ENDROOT
BRANCH   1   7
ATOM      4  C   UNL     1       2.158   7.249  18.913  0.00  0.00    +0.000 A 
ATOM      5  C   UNL     1       1.907   8.433  18.207  0.00  0.00    +0.000 A 
ATOM      6  C   UNL     1       1.429   9.564  18.865  0.00  0.00    +0.000 A 
ATOM      7  C   UNL     1       1.201   9.508  20.241  0.00  0.00    +0.000 A 
ATOM      8  C   UNL     1       1.423   8.324  20.952  0.00  0.00    +0.000 A 
ATOM      9  C   UNL     1       1.862   7.181  20.275  0.00  0.00    +0.000 A 
BRANCH   4  10
ATOM     10  O   UNL     1       2.656   6.230  18.141  0.00  0.00    +0.000 OA
BRANCH  10  17
ATOM     11  C   UNL     1       3.698   4.172  19.076  0.00  0.00    +0.000 A 
ATOM     12  C   UNL     1       3.516   2.794  19.296  0.00  0.00    +0.000 A 
ATOM     13 CL   UNL     1       4.760   1.796  19.973  0.00  0.00    +0.000 Cl
ATOM     14  C   UNL     1       2.316   2.161  18.955  0.00  0.00    +0.000 A 
ATOM     15  C   UNL     1       1.275   2.894  18.398  0.00  0.00    +0.000 A 
ATOM     16  C   UNL     1       1.435   4.262  18.189  0.00  0.00    +0.000 A 
ATOM     17  C   UNL     1       2.631   4.912  18.538  0.00  0.00    +0.000 A 
BRANCH  11  19
ATOM     18  N   UNL     1       6.006   5.244  19.589  0.00  0.00    +0.000 NA
ATOM     19  C   UNL     1       4.968   4.766  19.391  0.00  0.00    +0.000 C 
ENDBRANCH  11  19
ENDBRANCH  10  17
ENDBRANCH   4  10
ENDBRANCH   1   7
BRANCH   1  20
ATOM     20  N   UNL     1      -0.556  11.524  20.299  0.00  0.00    +0.000 NA
ATOM     21  C   UNL     1      -0.965  12.751  20.345  0.00  0.00    +0.000 C 
ATOM     22  N   UNL     1      -0.494  13.890  20.998  0.00  0.00    +0.000 N 
ATOM     23  N   UNL     1      -2.050  13.153  19.588  0.00  0.00    +0.000 N 
ATOM     24  H   UNL     1      -1.234  14.553  21.234  0.00  0.00    +0.000 HD
ATOM     25  H   UNL     1      -2.038  14.111  19.263  0.00  0.00    +0.000 HD
BRANCH  23  26
ATOM     26  C   UNL     1      -3.229  12.447  19.300  0.00  0.00    +0.000 A 
ATOM     27  C   UNL     1      -3.338  11.555  18.227  0.00  0.00    +0.000 A 
ATOM     28  C   UNL     1      -4.520  10.840  18.003  0.00  0.00    +0.000 A 
ATOM     29  C   UNL     1      -5.620  11.039  18.832  0.00  0.00    +0.000 A 
ATOM     30 CL   UNL     1      -7.064  10.142  18.573  0.00  0.00    +0.000 Cl
ATOM     31  C   UNL     1      -5.551  11.960  19.873  0.00  0.00    +0.000 A 
ATOM     32  C   UNL     1      -4.364  12.661  20.100  0.00  0.00    +0.000 A 
ENDBRANCH  23  26
BRANCH  22  33
ATOM     33  N   UNL     1       0.541  13.846  21.945  0.00  0.00    +0.000 NA
ATOM     34  H   UNL     1       1.414  13.510  21.509  0.00  0.00    +0.000 HD
ATOM     35  H   UNL     1       0.340  13.170  22.695  0.00  0.00    +0.000 HD
ENDBRANCH  22  33
ENDBRANCH   1  20
TORSDOF 7
ENDMDL
MODEL 3
REMARK VINA RESULT:      -8.0      3.723      4.673
REMARK  Name = 
REMARK  7 active torsions:
REMARK  status: ('A' for Active; 'I' for Inactive)
REMARK    1  A    between atoms: C_2  and  C_3
REMARK    2  A    between atoms: C_9  and  O_10
REMARK    3  A    between atoms: O_10  and  C_11
REMARK    4  A    between atoms: C_14  and  S_15
REMARK    5  A    between atoms: S_15  and  N_18
REMARK    6  A    between atoms: N_20  and  N_21
REMARK    7  A    between atoms: N_22  and  C_23
REMARK                            x       y       z     vdW  Elec       q    Type
REMARK                         _______ _______ _______ _____ _____    ______ ____
ROOT
ATOM      1  S   UNL     1      -0.004  10.645  20.328  0.00  0.00    +0.000 S 
ATOM      2  O   UNL     1      -0.976  11.031  19.321  0.00  0.00    +0.000 OA
ATOM      3  O   UNL     1      -0.465  10.062  21.578  0.00  0.00    +0.000 OA
ENDROOT
BRANCH   1   7
ATOM      4  C   UNL     1       2.559   7.420  18.347  0.00  0.00    +0.000 A 
ATOM      5  C   UNL     1       2.207   7.314  19.698  0.00  0.00    +0.000 A 
ATOM      6  C   UNL     1       1.460   8.314  20.318  0.00  0.00    +0.000 A 
ATOM      7  C   UNL     1       1.064   9.429  19.576  0.00  0.00    +0.000 A 
ATOM      8  C   UNL     1       1.432   9.558  18.233  0.00  0.00    +0.000 A 
ATOM      9  C   UNL     1       2.218   8.570  17.631  0.00  0.00    +0.000 A 
BRANCH   4  10
ATOM     10  O   UNL     1       3.265   6.347  17.864  0.00  0.00    +0.000 OA
BRANCH  10  17
ATOM     11  C   UNL     1       4.009   4.242  18.965  0.00  0.00    +0.000 A 
ATOM     12  C   UNL     1       3.664   2.903  19.229  0.00  0.00    +0.000 A 
ATOM     13 CL   UNL     1       4.741   1.818  20.044  0.00  0.00    +0.000 Cl
ATOM     14  C   UNL     1       2.431   2.382  18.824  0.00  0.00    +0.000 A 
ATOM     15  C   UNL     1       1.518   3.191  18.157  0.00  0.00    +0.000 A 
ATOM     16  C   UNL     1       1.839   4.522  17.902  0.00  0.00    +0.000 A 
ATOM     17  C   UNL     1       3.069   5.061  18.315  0.00  0.00    +0.000 A 
BRANCH  11  19
ATOM     18  N   UNL     1       6.347   5.149  19.637  0.00  0.00    +0.000 NA
ATOM     19  C   UNL     1       5.310   4.717  19.352  0.00  0.00    +0.000 C 
ENDBRANCH  11  19
ENDBRANCH  10  17
ENDBRANCH   4  10
ENDBRANCH   1   7
BRANCH   1  20
ATOM     20  N   UNL     1       0.963  11.887  20.626  0.00  0.00    +0.000 NA
ATOM     21  C   UNL     1       0.551  13.001  21.141  0.00  0.00    +0.000 C 
ATOM     22  N   UNL     1      -0.694  13.444  21.586  0.00  0.00    +0.000 N 
ATOM     23  N   UNL     1       1.448  14.019  21.409  0.00  0.00    +0.000 N 
ATOM     24  H   UNL     1      -0.819  14.453  21.494  0.00  0.00    +0.000 HD
ATOM     25  H   UNL     1       1.231  14.609  22.201  0.00  0.00    +0.000 HD
BRANCH  23  26
ATOM     26  C   UNL     1       2.567  14.421  20.663  0.00  0.00    +0.000 A 
ATOM     27  C   UNL     1       2.492  14.778  19.312  0.00  0.00    +0.000 A 
ATOM     28  C   UNL     1       3.627  15.213  18.618  0.00  0.00    +0.000 A 
ATOM     29  C   UNL     1       4.860  15.262  19.264  0.00  0.00    +0.000 A 
ATOM     30 CL   UNL     1       6.249  15.822  18.420  0.00  0.00    +0.000 Cl
ATOM     31  C   UNL     1       4.967  14.861  20.592  0.00  0.00    +0.000 A 
ATOM     32  C   UNL     1       3.828  14.440  21.283  0.00  0.00    +0.000 A 
ENDBRANCH  23  26
BRANCH  22  33
ATOM     33  N   UNL     1      -1.875  12.712  21.381  0.00  0.00    +0.000 NA
ATOM     34  H   UNL     1      -1.937  12.396  20.401  0.00  0.00    +0.000 HD
ATOM     35  H   UNL     1      -2.711  13.294  21.526  0.00  0.00    +0.000 HD
ENDBRANCH  22  33
ENDBRANCH   1  20
TORSDOF 7
ENDMDL
MODEL 4
REMARK VINA RESULT:      -8.0      3.902      4.870
REMARK  Name = 
REMARK  7 active torsions:
REMARK  status: ('A' for Active; 'I' for Inactive)
REMARK    1  A    between atoms: C_2  and  C_3
REMARK    2  A    between atoms: C_9  and  O_10
REMARK    3  A    between atoms: O_10  and  C_11
REMARK    4  A    between atoms: C_14  and  S_15
REMARK    5  A    between atoms: S_15  and  N_18
REMARK    6  A    between atoms: N_20  and  N_21
REMARK    7  A    between atoms: N_22  and  C_23
REMARK                            x       y       z     vdW  Elec       q    Type
REMARK                         _______ _______ _______ _____ _____    ______ ____
ROOT
ATOM      1  S   UNL     1      -0.280  11.323  19.584  0.00  0.00    +0.000 S 
ATOM      2  O   UNL     1      -1.051  11.618  18.390  0.00  0.00    +0.000 OA
ATOM      3  O   UNL     1      -0.975  11.037  20.830  0.00  0.00    +0.000 OA
ENDROOT
BRANCH   1   7
ATOM      4  C   UNL     1       2.411   7.740  18.682  0.00  0.00    +0.000 A 
ATOM      5  C   UNL     1       1.985   8.583  17.649  0.00  0.00    +0.000 A 
ATOM      6  C   UNL     1       1.131   9.652  17.911  0.00  0.00    +0.000 A 
ATOM      7  C   UNL     1       0.703   9.878  19.221  0.00  0.00    +0.000 A 
ATOM      8  C   UNL     1       1.101   9.027  20.257  0.00  0.00    +0.000 A 
ATOM      9  C   UNL     1       1.924   7.930  19.976  0.00  0.00    +0.000 A 
BRANCH   4  10
ATOM     10  O   UNL     1       3.274   6.751  18.281  0.00  0.00    +0.000 OA
BRANCH  10  17
ATOM     11  C   UNL     1       3.963   4.458  18.963  0.00  0.00    +0.000 A 
ATOM     12  C   UNL     1       3.567   3.109  19.007  0.00  0.00    +0.000 A 
ATOM     13 CL   UNL     1       4.624   1.856  19.568  0.00  0.00    +0.000 Cl
ATOM     14  C   UNL     1       2.295   2.715  18.578  0.00  0.00    +0.000 A 
ATOM     15  C   UNL     1       1.395   3.663  18.105  0.00  0.00    +0.000 A 
ATOM     16  C   UNL     1       1.767   5.005  18.070  0.00  0.00    +0.000 A 
ATOM     17  C   UNL     1       3.037   5.414  18.510  0.00  0.00    +0.000 A 
BRANCH  11  19
ATOM     18  N   UNL     1       6.354   5.126  19.722  0.00  0.00    +0.000 NA
ATOM     19  C   UNL     1       5.299   4.807  19.363  0.00  0.00    +0.000 C 
ENDBRANCH  11  19
ENDBRANCH  10  17
ENDBRANCH   4  10
ENDBRANCH   1   7
BRANCH   1  20
ATOM     20  N   UNL     1       0.799  12.485  19.813  0.00  0.00    +0.000 NA
ATOM     21  C   UNL     1       0.477  13.714  20.060  0.00  0.00    +0.000 C 
ATOM     22  N   UNL     1      -0.744  14.367  20.222  0.00  0.00    +0.000 N 
ATOM     23  N   UNL     1       1.461  14.659  20.286  0.00  0.00    +0.000 N 
ATOM     24  H   UNL     1      -0.716  15.348  19.940  0.00  0.00    +0.000 HD
ATOM     25  H   UNL     1       1.223  15.409  20.923  0.00  0.00    +0.000 HD
BRANCH  23  26
ATOM     26  C   UNL     1       2.714  14.787  19.667  0.00  0.00    +0.000 A 
ATOM     27  C   UNL     1       2.866  14.984  18.290  0.00  0.00    +0.000 A 
ATOM     28  C   UNL     1       4.134  15.149  17.722  0.00  0.00    +0.000 A 
ATOM     29  C   UNL     1       5.269  15.082  18.524  0.00  0.00    +0.000 A 
ATOM     30 CL   UNL     1       6.826  15.312  17.831  0.00  0.00    +0.000 Cl
ATOM     31  C   UNL     1       5.145  14.836  19.888  0.00  0.00    +0.000 A 
ATOM     32  C   UNL     1       3.875  14.685  20.452  0.00  0.00    +0.000 A 
ENDBRANCH  23  26
BRANCH  22  33
ATOM     33  N   UNL     1      -1.975  13.744  19.962  0.00  0.00    +0.000 NA
ATOM     34  H   UNL     1      -1.945  13.249  19.057  0.00  0.00    +0.000 HD
ATOM     35  H   UNL     1      -2.735  14.432  19.865  0.00  0.00    +0.000 HD
ENDBRANCH  22  33
ENDBRANCH   1  20
TORSDOF 7
ENDMDL
MODEL 5
REMARK VINA RESULT:      -7.9      3.222      4.040
REMARK  Name = 
REMARK  7 active torsions:
REMARK  status: ('A' for Active; 'I' for Inactive)
REMARK    1  A    between atoms: C_2  and  C_3
REMARK    2  A    between atoms: C_9  and  O_10
REMARK    3  A    between atoms: O_10  and  C_11
REMARK    4  A    between atoms: C_14  and  S_15
REMARK    5  A    between atoms: S_15  and  N_18
REMARK    6  A    between atoms: N_20  and  N_21
REMARK    7  A    between atoms: N_22  and  C_23
REMARK                            x       y       z     vdW  Elec       q    Type
REMARK                         _______ _______ _______ _____ _____    ______ ____
ROOT
ATOM      1  S   UNL     1      -0.247  10.513  20.840  0.00  0.00    +0.000 S 
ATOM      2  O   UNL     1      -1.451  10.638  20.041  0.00  0.00    +0.000 OA
ATOM      3  O   UNL     1      -0.341   9.997  22.197  0.00  0.00    +0.000 OA
ENDROOT
BRANCH   1   7
ATOM      4  C   UNL     1       2.383   7.558  18.549  0.00  0.00    +0.000 A 
ATOM      5  C   UNL     1       2.169   7.398  19.923  0.00  0.00    +0.000 A 
ATOM      6  C   UNL     1       1.402   8.318  20.635  0.00  0.00    +0.000 A 
ATOM      7  C   UNL     1       0.845   9.408  19.963  0.00  0.00    +0.000 A 
ATOM      8  C   UNL     1       1.074   9.593  18.595  0.00  0.00    +0.000 A 
ATOM      9  C   UNL     1       1.881   8.687  17.898  0.00  0.00    +0.000 A 
BRANCH   4  10
ATOM     10  O   UNL     1       3.128   6.559  17.976  0.00  0.00    +0.000 OA
BRANCH  10  17
ATOM     11  C   UNL     1       3.935   4.390  18.892  0.00  0.00    +0.000 A 
ATOM     12  C   UNL     1       3.637   3.021  19.027  0.00  0.00    +0.000 A 
ATOM     13 CL   UNL     1       4.743   1.905  19.757  0.00  0.00    +0.000 Cl
ATOM     14  C   UNL     1       2.430   2.496  18.556  0.00  0.00    +0.000 A 
ATOM     15  C   UNL     1       1.497   3.329  17.950  0.00  0.00    +0.000 A 
ATOM     16  C   UNL     1       1.771   4.688  17.823  0.00  0.00    +0.000 A 
ATOM     17  C   UNL     1       2.975   5.231  18.304  0.00  0.00    +0.000 A 
BRANCH  11  19
ATOM     18  N   UNL     1       6.266   5.237  19.660  0.00  0.00    +0.000 NA
ATOM     19  C   UNL     1       5.212   4.873  19.342  0.00  0.00    +0.000 C 
ENDBRANCH  11  19
ENDBRANCH  10  17
ENDBRANCH   4  10
ENDBRANCH   1   7
BRANCH   1  20
ATOM     20  N   UNL     1       0.530  11.915  20.840  0.00  0.00    +0.000 NA
ATOM     21  C   UNL     1       0.213  12.903  21.614  0.00  0.00    +0.000 C 
ATOM     22  N   UNL     1      -0.757  13.068  22.602  0.00  0.00    +0.000 N 
ATOM     23  N   UNL     1       0.952  14.072  21.590  0.00  0.00    +0.000 N 
ATOM     24  H   UNL     1      -1.076  14.033  22.695  0.00  0.00    +0.000 HD
ATOM     25  H   UNL     1       1.016  14.578  22.463  0.00  0.00    +0.000 HD
BRANCH  23  26
ATOM     26  C   UNL     1       1.535  14.718  20.489  0.00  0.00    +0.000 A 
ATOM     27  C   UNL     1       2.863  14.509  20.100  0.00  0.00    +0.000 A 
ATOM     28  C   UNL     1       3.391  15.144  18.970  0.00  0.00    +0.000 A 
ATOM     29  C   UNL     1       2.602  16.024  18.236  0.00  0.00    +0.000 A 
ATOM     30 CL   UNL     1       3.240  16.783  16.831  0.00  0.00    +0.000 Cl
ATOM     31  C   UNL     1       1.294  16.287  18.634  0.00  0.00    +0.000 A 
ATOM     32  C   UNL     1       0.769  15.640  19.756  0.00  0.00    +0.000 A 
ENDBRANCH  23  26
BRANCH  22  33
ATOM     33  N   UNL     1      -1.765  12.120  22.839  0.00  0.00    +0.000 NA
ATOM     34  H   UNL     1      -1.377  11.294  23.321  0.00  0.00    +0.000 HD
ATOM     35  H   UNL     1      -2.157  11.756  21.959  0.00  0.00    +0.000 HD
ENDBRANCH  22  33
ENDBRANCH   1  20
TORSDOF 7
ENDMDL
MODEL 6
REMARK VINA RESULT:      -7.9      3.968      4.835
REMARK  Name = 
REMARK  7 active torsions:
REMARK  status: ('A' for Active; 'I' for Inactive)
REMARK    1  A    between atoms: C_2  and  C_3
REMARK    2  A    between atoms: C_9  and  O_10
REMARK    3  A    between atoms: O_10  and  C_11
REMARK    4  A    between atoms: C_14  and  S_15
REMARK    5  A    between atoms: S_15  and  N_18
REMARK    6  A    between atoms: N_20  and  N_21
REMARK    7  A    between atoms: N_22  and  C_23
REMARK                            x       y       z     vdW  Elec       q    Type
REMARK                         _______ _______ _______ _____ _____    ______ ____
ROOT
ATOM      1  S   UNL     1      -0.382  11.071  19.539  0.00  0.00    +0.000 S 
ATOM      2  O   UNL     1      -0.909  11.089  18.187  0.00  0.00    +0.000 OA
ATOM      3  O   UNL     1      -1.300  10.950  20.661  0.00  0.00    +0.000 OA
ENDROOT
BRANCH   1   7
ATOM      4  C   UNL     1       2.282   7.363  19.756  0.00  0.00    +0.000 A 
ATOM      5  C   UNL     1       1.577   7.796  20.886  0.00  0.00    +0.000 A 
ATOM      6  C   UNL     1       0.796   8.949  20.838  0.00  0.00    +0.000 A 
ATOM      7  C   UNL     1       0.721   9.672  19.646  0.00  0.00    +0.000 A 
ATOM      8  C   UNL     1       1.442   9.264  18.519  0.00  0.00    +0.000 A 
ATOM      9  C   UNL     1       2.257   8.130  18.590  0.00  0.00    +0.000 A 
BRANCH   4  10
ATOM     10  O   UNL     1       2.981   6.197  19.943  0.00  0.00    +0.000 OA
BRANCH  10  17
ATOM     11  C   UNL     1       4.065   5.023  18.034  0.00  0.00    +0.000 A 
ATOM     12  C   UNL     1       3.891   4.032  17.051  0.00  0.00    +0.000 A 
ATOM     13 CL   UNL     1       5.090   3.711  15.842  0.00  0.00    +0.000 Cl
ATOM     14  C   UNL     1       2.721   3.267  16.996  0.00  0.00    +0.000 A 
ATOM     15  C   UNL     1       1.709   3.474  17.927  0.00  0.00    +0.000 A 
ATOM     16  C   UNL     1       1.874   4.441  18.915  0.00  0.00    +0.000 A 
ATOM     17  C   UNL     1       3.050   5.207  18.989  0.00  0.00    +0.000 A 
BRANCH  11  19
ATOM     18  N   UNL     1       6.210   6.483  17.949  0.00  0.00    +0.000 NA
ATOM     19  C   UNL     1       5.261   5.821  18.016  0.00  0.00    +0.000 C 
ENDBRANCH  11  19
ENDBRANCH  10  17
ENDBRANCH   4  10
ENDBRANCH   1   7
BRANCH   1  20
ATOM     20  N   UNL     1       0.573  12.341  19.746  0.00  0.00    +0.000 NA
ATOM     21  C   UNL     1       0.132  13.556  19.821  0.00  0.00    +0.000 C 
ATOM     22  N   UNL     1      -1.146  14.112  19.785  0.00  0.00    +0.000 N 
ATOM     23  N   UNL     1       1.009  14.603  20.041  0.00  0.00    +0.000 N 
ATOM     24  H   UNL     1      -1.163  15.058  19.400  0.00  0.00    +0.000 HD
ATOM     25  H   UNL     1       0.644  15.390  20.562  0.00  0.00    +0.000 HD
BRANCH  23  26
ATOM     26  C   UNL     1       2.309  14.777  19.542  0.00  0.00    +0.000 A 
ATOM     27  C   UNL     1       2.581  15.003  18.188  0.00  0.00    +0.000 A 
ATOM     28  C   UNL     1       3.890  15.213  17.742  0.00  0.00    +0.000 A 
ATOM     29  C   UNL     1       4.948  15.165  18.645  0.00  0.00    +0.000 A 
ATOM     30 CL   UNL     1       6.555  15.451  18.102  0.00  0.00    +0.000 Cl
ATOM     31  C   UNL     1       4.707  14.890  19.988  0.00  0.00    +0.000 A 
ATOM     32  C   UNL     1       3.396  14.694  20.430  0.00  0.00    +0.000 A 
ENDBRANCH  23  26
BRANCH  22  33
ATOM     33  N   UNL     1      -2.290  13.360  19.472  0.00  0.00    +0.000 NA
ATOM     34  H   UNL     1      -3.016  13.492  20.192  0.00  0.00    +0.000 HD
ATOM     35  H   UNL     1      -2.092  12.350  19.474  0.00  0.00    +0.000 HD
ENDBRANCH  22  33
ENDBRANCH   1  20
TORSDOF 7
ENDMDL
MODEL 7
REMARK VINA RESULT:      -7.8      4.039      4.981
REMARK  Name = 
REMARK  7 active torsions:
REMARK  status: ('A' for Active; 'I' for Inactive)
REMARK    1  A    between atoms: C_2  and  C_3
REMARK    2  A    between atoms: C_9  and  O_10
REMARK    3  A    between atoms: O_10  and  C_11
REMARK    4  A    between atoms: C_14  and  S_15
REMARK    5  A    between atoms: S_15  and  N_18
REMARK    6  A    between atoms: N_20  and  N_21
REMARK    7  A    between atoms: N_22  and  C_23
REMARK                            x       y       z     vdW  Elec       q    Type
REMARK                         _______ _______ _______ _____ _____    ______ ____
ROOT
ATOM      1  S   UNL     1      -0.523  11.408  19.549  0.00  0.00    +0.000 S 
ATOM      2  O   UNL     1      -1.077  11.513  18.211  0.00  0.00    +0.000 OA
ATOM      3  O   UNL     1      -1.423  11.337  20.689  0.00  0.00    +0.000 OA
ENDROOT
BRANCH   1   7
ATOM      4  C   UNL     1       2.142   7.697  19.698  0.00  0.00    +0.000 A 
ATOM      5  C   UNL     1       1.946   8.380  18.491  0.00  0.00    +0.000 A 
ATOM      6  C   UNL     1       1.102   9.488  18.431  0.00  0.00    +0.000 A 
ATOM      7  C   UNL     1       0.450   9.913  19.590  0.00  0.00    +0.000 A 
ATOM      8  C   UNL     1       0.618   9.223  20.795  0.00  0.00    +0.000 A 
ATOM      9  C   UNL     1       1.434   8.087  20.836  0.00  0.00    +0.000 A 
BRANCH   4  10
ATOM     10  O   UNL     1       3.023   6.649  19.613  0.00  0.00    +0.000 OA
BRANCH  10  17
ATOM     11  C   UNL     1       2.933   4.403  18.544  0.00  0.00    +0.000 A 
ATOM     12  C   UNL     1       2.310   3.142  18.578  0.00  0.00    +0.000 A 
ATOM     13 CL   UNL     1       2.646   1.915  17.402  0.00  0.00    +0.000 Cl
ATOM     14  C   UNL     1       1.368   2.828  19.565  0.00  0.00    +0.000 A 
ATOM     15  C   UNL     1       1.040   3.766  20.537  0.00  0.00    +0.000 A 
ATOM     16  C   UNL     1       1.660   5.013  20.525  0.00  0.00    +0.000 A 
ATOM     17  C   UNL     1       2.616   5.335  19.547  0.00  0.00    +0.000 A 
BRANCH  11  19
ATOM     18  N   UNL     1       4.637   4.920  16.654  0.00  0.00    +0.000 NA
ATOM     19  C   UNL     1       3.852   4.698  17.478  0.00  0.00    +0.000 C 
ENDBRANCH  11  19
ENDBRANCH  10  17
ENDBRANCH   4  10
ENDBRANCH   1   7
BRANCH   1  20
ATOM     20  N   UNL     1       0.547  12.580  19.767  0.00  0.00    +0.000 NA
ATOM     21  C   UNL     1       0.216  13.820  19.943  0.00  0.00    +0.000 C 
ATOM     22  N   UNL     1      -1.010  14.479  20.024  0.00  0.00    +0.000 N 
ATOM     23  N   UNL     1       1.191  14.776  20.165  0.00  0.00    +0.000 N 
ATOM     24  H   UNL     1      -0.969  15.445  19.697  0.00  0.00    +0.000 HD
ATOM     25  H   UNL     1       0.927  15.554  20.755  0.00  0.00    +0.000 HD
BRANCH  23  26
ATOM     26  C   UNL     1       2.469  14.876  19.592  0.00  0.00    +0.000 A 
ATOM     27  C   UNL     1       2.675  15.075  18.222  0.00  0.00    +0.000 A 
ATOM     28  C   UNL     1       3.966  15.210  17.701  0.00  0.00    +0.000 A 
ATOM     29  C   UNL     1       5.070  15.113  18.544  0.00  0.00    +0.000 A 
ATOM     30 CL   UNL     1       6.655  15.307  17.909  0.00  0.00    +0.000 Cl
ATOM     31  C   UNL     1       4.891  14.863  19.901  0.00  0.00    +0.000 A 
ATOM     32  C   UNL     1       3.597  14.742  20.418  0.00  0.00    +0.000 A 
ENDBRANCH  23  26
BRANCH  22  33
ATOM     33  N   UNL     1      -2.230  13.843  19.743  0.00  0.00    +0.000 NA
ATOM     34  H   UNL     1      -2.996  14.534  19.711  0.00  0.00    +0.000 HD
ATOM     35  H   UNL     1      -2.495  13.185  20.489  0.00  0.00    +0.000 HD
ENDBRANCH  22  33
ENDBRANCH   1  20
TORSDOF 7
ENDMDL
MODEL 8
REMARK VINA RESULT:      -7.8      3.612      9.357
REMARK  Name = 
REMARK  7 active torsions:
REMARK  status: ('A' for Active; 'I' for Inactive)
REMARK    1  A    between atoms: C_2  and  C_3
REMARK    2  A    between atoms: C_9  and  O_10
REMARK    3  A    between atoms: O_10  and  C_11
REMARK    4  A    between atoms: C_14  and  S_15
REMARK    5  A    between atoms: S_15  and  N_18
REMARK    6  A    between atoms: N_20  and  N_21
REMARK    7  A    between atoms: N_22  and  C_23
REMARK                            x       y       z     vdW  Elec       q    Type
REMARK                         _______ _______ _______ _____ _____    ______ ____
ROOT
ATOM      1  S   UNL     1       2.863   4.829  19.610  0.00  0.00    +0.000 S 
ATOM      2  O   UNL     1       3.802   4.831  20.716  0.00  0.00    +0.000 OA
ATOM      3  O   UNL     1       1.595   4.130  19.751  0.00  0.00    +0.000 OA
ENDROOT
BRANCH   1   7
ATOM      4  C   UNL     1       1.625   9.132  18.690  0.00  0.00    +0.000 A 
ATOM      5  C   UNL     1       2.227   8.342  17.703  0.00  0.00    +0.000 A 
ATOM      6  C   UNL     1       2.644   7.043  17.989  0.00  0.00    +0.000 A 
ATOM      7  C   UNL     1       2.455   6.534  19.275  0.00  0.00    +0.000 A 
ATOM      8  C   UNL     1       1.879   7.323  20.276  0.00  0.00    +0.000 A 
ATOM      9  C   UNL     1       1.503   8.640  19.990  0.00  0.00    +0.000 A 
BRANCH   4  10
ATOM     10  O   UNL     1       1.237  10.375  18.255  0.00  0.00    +0.000 OA
BRANCH  10  17
ATOM     11  C   UNL     1      -0.373  11.766  19.547  0.00  0.00    +0.000 A 
ATOM     12  C   UNL     1      -1.734  12.083  19.718  0.00  0.00    +0.000 A 
ATOM     13 CL   UNL     1      -2.281  13.160  20.959  0.00  0.00    +0.000 Cl
ATOM     14  C   UNL     1      -2.714  11.521  18.894  0.00  0.00    +0.000 A 
ATOM     15  C   UNL     1      -2.353  10.639  17.882  0.00  0.00    +0.000 A 
ATOM     16  C   UNL     1      -1.008  10.328  17.691  0.00  0.00    +0.000 A 
ATOM     17  C   UNL     1      -0.013  10.896  18.503  0.00  0.00    +0.000 A 
BRANCH  11  19
ATOM     18  N   UNL     1       1.412  12.752  21.154  0.00  0.00    +0.000 NA
ATOM     19  C   UNL     1       0.592  12.325  20.454  0.00  0.00    +0.000 C 
ENDBRANCH  11  19
ENDBRANCH  10  17
ENDBRANCH   4  10
ENDBRANCH   1   7
BRANCH   1  20
ATOM     20  N   UNL     1       3.615   4.337  18.284  0.00  0.00    +0.000 NA
ATOM     21  C   UNL     1       4.110   3.149  18.147  0.00  0.00    +0.000 C 
ATOM     22  N   UNL     1       4.136   2.025  18.972  0.00  0.00    +0.000 N 
ATOM     23  N   UNL     1       4.713   2.777  16.959  0.00  0.00    +0.000 N 
ATOM     24  H   UNL     1       4.956   1.435  18.823  0.00  0.00    +0.000 HD
ATOM     25  H   UNL     1       4.634   1.801  16.704  0.00  0.00    +0.000 HD
BRANCH  23  26
ATOM     26  C   UNL     1       5.520   3.547  16.107  0.00  0.00    +0.000 A 
ATOM     27  C   UNL     1       6.536   4.388  16.576  0.00  0.00    +0.000 A 
ATOM     28  C   UNL     1       7.344   5.105  15.686  0.00  0.00    +0.000 A 
ATOM     29  C   UNL     1       7.120   5.013  14.315  0.00  0.00    +0.000 A 
ATOM     30 CL   UNL     1       8.131   5.872  13.221  0.00  0.00    +0.000 Cl
ATOM     31  C   UNL     1       6.083   4.223  13.830  0.00  0.00    +0.000 A 
ATOM     32  C   UNL     1       5.287   3.499  14.722  0.00  0.00    +0.000 A 
ENDBRANCH  23  26
BRANCH  22  33
ATOM     33  N   UNL     1       3.705   2.057  20.308  0.00  0.00    +0.000 NA
ATOM     34  H   UNL     1       2.756   1.661  20.390  0.00  0.00    +0.000 HD
ATOM     35  H   UNL     1       3.622   3.022  20.657  0.00  0.00    +0.000 HD
ENDBRANCH  22  33
ENDBRANCH   1  20
TORSDOF 7
ENDMDL
MODEL 9
REMARK VINA RESULT:      -7.8      3.791      4.672
REMARK  Name = 
REMARK  7 active torsions:
REMARK  status: ('A' for Active; 'I' for Inactive)
REMARK    1  A    between atoms: C_2  and  C_3
REMARK    2  A    between atoms: C_9  and  O_10
REMARK    3  A    between atoms: O_10  and  C_11
REMARK    4  A    between atoms: C_14  and  S_15
REMARK    5  A    between atoms: S_15  and  N_18
REMARK    6  A    between atoms: N_20  and  N_21
REMARK    7  A    between atoms: N_22  and  C_23
REMARK                            x       y       z     vdW  Elec       q    Type
REMARK                         _______ _______ _______ _____ _____    ______ ____
ROOT
ATOM      1  S   UNL     1      -0.382  10.810  19.412  0.00  0.00    +0.000 S 
ATOM      2  O   UNL     1      -0.800  10.789  18.022  0.00  0.00    +0.000 OA
ATOM      3  O   UNL     1      -1.382  10.665  20.459  0.00  0.00    +0.000 OA
ENDROOT
BRANCH   1   7
ATOM      4  C   UNL     1       2.393   7.213  19.923  0.00  0.00    +0.000 A 
ATOM      5  C   UNL     1       1.686   7.723  21.018  0.00  0.00    +0.000 A 
ATOM      6  C   UNL     1       0.870   8.845  20.878  0.00  0.00    +0.000 A 
ATOM      7  C   UNL     1       0.763   9.458  19.629  0.00  0.00    +0.000 A 
ATOM      8  C   UNL     1       1.485   8.973  18.533  0.00  0.00    +0.000 A 
ATOM      9  C   UNL     1       2.334   7.873  18.694  0.00  0.00    +0.000 A 
BRANCH   4  10
ATOM     10  O   UNL     1       3.128   6.089  20.202  0.00  0.00    +0.000 OA
BRANCH  10  17
ATOM     11  C   UNL     1       3.447   3.833  19.199  0.00  0.00    +0.000 A 
ATOM     12  C   UNL     1       2.797   2.641  18.830  0.00  0.00    +0.000 A 
ATOM     13 CL   UNL     1       3.623   1.354  18.016  0.00  0.00    +0.000 Cl
ATOM     14  C   UNL     1       1.436   2.450  19.091  0.00  0.00    +0.000 A 
ATOM     15  C   UNL     1       0.704   3.443  19.732  0.00  0.00    +0.000 A 
ATOM     16  C   UNL     1       1.337   4.622  20.117  0.00  0.00    +0.000 A 
ATOM     17  C   UNL     1       2.706   4.820  19.872  0.00  0.00    +0.000 A 
BRANCH  11  19
ATOM     18  N   UNL     1       5.936   4.149  18.532  0.00  0.00    +0.000 NA
ATOM     19  C   UNL     1       4.833   4.005  18.860  0.00  0.00    +0.000 C 
ENDBRANCH  11  19
ENDBRANCH  10  17
ENDBRANCH   4  10
ENDBRANCH   1   7
BRANCH   1  20
ATOM     20  N   UNL     1       0.502  12.120  19.676  0.00  0.00    +0.000 NA
ATOM     21  C   UNL     1       0.004  13.314  19.728  0.00  0.00    +0.000 C 
ATOM     22  N   UNL     1      -1.293  13.812  19.620  0.00  0.00    +0.000 N 
ATOM     23  N   UNL     1       0.820  14.397  19.998  0.00  0.00    +0.000 N 
ATOM     24  H   UNL     1      -1.330  14.758  19.236  0.00  0.00    +0.000 HD
ATOM     25  H   UNL     1       0.392  15.165  20.500  0.00  0.00    +0.000 HD
BRANCH  23  26
ATOM     26  C   UNL     1       2.137  14.631  19.574  0.00  0.00    +0.000 A 
ATOM     27  C   UNL     1       3.228  14.640  20.450  0.00  0.00    +0.000 A 
ATOM     28  C   UNL     1       4.530  14.837  19.976  0.00  0.00    +0.000 A 
ATOM     29  C   UNL     1       4.750  15.061  18.620  0.00  0.00    +0.000 A 
ATOM     30 CL   UNL     1       6.352  15.274  18.033  0.00  0.00    +0.000 Cl
ATOM     31  C   UNL     1       3.675  15.107  17.738  0.00  0.00    +0.000 A 
ATOM     32  C   UNL     1       2.378  14.898  18.216  0.00  0.00    +0.000 A 
ENDBRANCH  23  26
BRANCH  22  33
ATOM     33  N   UNL     1      -2.383  13.012  19.241  0.00  0.00    +0.000 NA
ATOM     34  H   UNL     1      -3.238  13.583  19.156  0.00  0.00    +0.000 HD
ATOM     35  H   UNL     1      -2.604  12.308  19.959  0.00  0.00    +0.000 HD
ENDBRANCH  22  33
ENDBRANCH   1  20
TORSDOF 7
ENDMDL
