MODEL 1
REMARK VINA RESULT:      -6.8      0.000      0.000
REMARK  Name = 
REMARK  10 active torsions:
REMARK  status: ('A' for Active; 'I' for Inactive)
REMARK    1  A    between atoms: C_1  and  O_2
REMARK    2  A    between atoms: O_2  and  C_3
REMARK    3  A    between atoms: C_7  and  C_8
REMARK    4  A    between atoms: C_9  and  C_10
REMARK    5  A    between atoms: N_11  and  C_12
REMARK    6  A    between atoms: C_12  and  C_13
REMARK    7  A    between atoms: N_23  and  C_24
REMARK    8  A    between atoms: C_24  and  C_25
REMARK    9  A    between atoms: C_25  and  N_26
REMARK   10  A    between atoms: C_25  and  C_27
REMARK                            x       y       z     vdW  Elec       q    Type
REMARK                         _______ _______ _______ _____ _____    ______ ____
ROOT
ATOM      1  C   UNL     1      -1.274  12.875  20.377  0.00  0.00    +0.000 A 
ATOM      2  C   UNL     1      -0.162  12.274  19.906  0.00  0.00    +0.000 A 
ATOM      3  C   UNL     1       1.230  12.727  20.311  0.00  0.00    +0.000 C 
ATOM      4  N   UNL     1      -0.269  11.190  19.026  0.00  0.00    +0.000 N 
ATOM      5  C   UNL     1      -1.497  10.648  18.638  0.00  0.00    +0.000 A 
ATOM      6  O   UNL     1      -1.577   9.627  17.951  0.00  0.00    +0.000 OA
ATOM      7  N   UNL     1      -2.628  11.337  19.045  0.00  0.00    +0.000 N 
ATOM      8  C   UNL     1      -2.609  12.397  19.926  0.00  0.00    +0.000 A 
ATOM      9  O   UNL     1      -3.630  12.940  20.348  0.00  0.00    +0.000 OA
ENDROOT
BRANCH   1  14
ATOM     10  C   UNL     1      -1.093  14.949  23.528  0.00  0.00    +0.000 A 
ATOM     11  C   UNL     1      -1.238  16.236  22.998  0.00  0.00    +0.000 A 
ATOM     12  C   UNL     1      -1.358  16.435  21.621  0.00  0.00    +0.000 A 
ATOM     13  C   UNL     1      -1.345  15.344  20.753  0.00  0.00    +0.000 A 
ATOM     14  C   UNL     1      -1.210  14.049  21.267  0.00  0.00    +0.000 A 
ATOM     15  C   UNL     1      -1.070  13.861  22.651  0.00  0.00    +0.000 A 
ATOM     16  F   UNL     1      -0.956  12.605  23.111  0.00  0.00    +0.000 F 
BRANCH  10  18
ATOM     17  C   UNL     1      -2.134  15.366  25.628  0.00  0.00    +0.000 C 
ATOM     18  O   UNL     1      -1.003  14.912  24.894  0.00  0.00    +0.000 OA
ENDBRANCH  10  18
ENDBRANCH   1  14
BRANCH   4  19
ATOM     19  C   UNL     1       0.921  10.555  18.444  0.00  0.00    +0.000 C 
BRANCH  19  20
ATOM     20  C   UNL     1       1.344   9.237  19.037  0.00  0.00    +0.000 A 
ATOM     21  C   UNL     1       1.026   8.798  20.322  0.00  0.00    +0.000 A 
ATOM     22  F   UNL     1       0.286   9.552  21.149  0.00  0.00    +0.000 F 
ATOM     23  C   UNL     1       1.482   7.573  20.809  0.00  0.00    +0.000 A 
ATOM     24  C   UNL     1       2.261   6.746  20.003  0.00  0.00    +0.000 A 
ATOM     25  C   UNL     1       2.571   7.149  18.708  0.00  0.00    +0.000 A 
ATOM     26  C   UNL     1       2.112   8.379  18.240  0.00  0.00    +0.000 A 
ATOM     27  F   UNL     1       2.433   8.748  16.992  0.00  0.00    +0.000 F 
ENDBRANCH  19  20
ENDBRANCH   4  19
BRANCH   7  28
ATOM     28  C   UNL     1      -3.916  10.935  18.469  0.00  0.00    +0.000 C 
BRANCH  28  29
ATOM     29  C   UNL     1      -4.407  11.802  17.277  0.00  0.00    +0.000 C 
BRANCH  29  30
ATOM     30  C   UNL     1      -5.745  12.418  17.584  0.00  0.00    +0.000 A 
ATOM     31  C   UNL     1      -6.488  13.410  16.975  0.00  0.00    +0.000 A 
ATOM     32  C   UNL     1      -7.678  13.547  17.731  0.00  0.00    +0.000 A 
ATOM     33  C   UNL     1      -7.594  12.627  18.748  0.00  0.00    +0.000 A 
ATOM     34  O   UNL     1      -6.428  11.935  18.666  0.00  0.00    +0.000 OA
ENDBRANCH  29  30
BRANCH  29  35
ATOM     35  N   UNL     1      -4.513  11.059  16.010  0.00  0.00    +0.000 NA
ATOM     36  H   UNL     1      -3.788  11.415  15.380  0.00  0.00    +0.000 HD
ATOM     37  H   UNL     1      -5.381  11.321  15.546  0.00  0.00    +0.000 HD
ENDBRANCH  29  35
ENDBRANCH  28  29
ENDBRANCH   7  28
TORSDOF 8
ENDMDL
MODEL 2
REMARK VINA RESULT:      -6.7      3.373      5.535
REMARK  Name = 
REMARK  10 active torsions:
REMARK  status: ('A' for Active; 'I' for Inactive)
REMARK    1  A    between atoms: C_1  and  O_2
REMARK    2  A    between atoms: O_2  and  C_3
REMARK    3  A    between atoms: C_7  and  C_8
REMARK    4  A    between atoms: C_9  and  C_10
REMARK    5  A    between atoms: N_11  and  C_12
REMARK    6  A    between atoms: C_12  and  C_13
REMARK    7  A    between atoms: N_23  and  C_24
REMARK    8  A    between atoms: C_24  and  C_25
REMARK    9  A    between atoms: C_25  and  N_26
REMARK   10  A    between atoms: C_25  and  C_27
REMARK                            x       y       z     vdW  Elec       q    Type
REMARK                         _______ _______ _______ _____ _____    ______ ____
ROOT
ATOM      1  C   UNL     1       1.048  13.965  20.593  0.00  0.00    +0.000 A 
ATOM      2  C   UNL     1       0.719  12.798  20.003  0.00  0.00    +0.000 A 
ATOM      3  C   UNL     1       1.328  12.367  18.680  0.00  0.00    +0.000 C 
ATOM      4  N   UNL     1      -0.198  11.935  20.616  0.00  0.00    +0.000 N 
ATOM      5  C   UNL     1      -0.768  12.198  21.864  0.00  0.00    +0.000 A 
ATOM      6  O   UNL     1      -1.488  11.382  22.443  0.00  0.00    +0.000 OA
ATOM      7  N   UNL     1      -0.503  13.444  22.409  0.00  0.00    +0.000 N 
ATOM      8  C   UNL     1       0.402  14.340  21.880  0.00  0.00    +0.000 A 
ATOM      9  O   UNL     1       0.693  15.404  22.427  0.00  0.00    +0.000 OA
ENDROOT
BRANCH   1  14
ATOM     10  C   UNL     1       2.346  16.704  18.340  0.00  0.00    +0.000 A 
ATOM     11  C   UNL     1       3.713  16.655  18.636  0.00  0.00    +0.000 A 
ATOM     12  C   UNL     1       4.208  15.763  19.590  0.00  0.00    +0.000 A 
ATOM     13  C   UNL     1       3.341  14.897  20.254  0.00  0.00    +0.000 A 
ATOM     14  C   UNL     1       1.971  14.926  19.963  0.00  0.00    +0.000 A 
ATOM     15  C   UNL     1       1.482  15.840  19.017  0.00  0.00    +0.000 A 
ATOM     16  F   UNL     1       0.165  15.832  18.752  0.00  0.00    +0.000 F 
BRANCH  10  18
ATOM     17  C   UNL     1       1.078  18.626  17.732  0.00  0.00    +0.000 C 
ATOM     18  O   UNL     1       2.015  17.616  17.374  0.00  0.00    +0.000 OA
ENDBRANCH  10  18
ENDBRANCH   1  14
BRANCH   4  19
ATOM     19  C   UNL     1      -0.626  10.687  19.969  0.00  0.00    +0.000 C 
BRANCH  19  20
ATOM     20  C   UNL     1      -1.598  10.816  18.826  0.00  0.00    +0.000 A 
ATOM     21  C   UNL     1      -2.771  11.570  18.854  0.00  0.00    +0.000 A 
ATOM     22  F   UNL     1      -3.123  12.266  19.945  0.00  0.00    +0.000 F 
ATOM     23  C   UNL     1      -3.636  11.614  17.760  0.00  0.00    +0.000 A 
ATOM     24  C   UNL     1      -3.333  10.907  16.599  0.00  0.00    +0.000 A 
ATOM     25  C   UNL     1      -2.156  10.167  16.537  0.00  0.00    +0.000 A 
ATOM     26  C   UNL     1      -1.307  10.130  17.641  0.00  0.00    +0.000 A 
ATOM     27  F   UNL     1      -0.184   9.401  17.558  0.00  0.00    +0.000 F 
ENDBRANCH  19  20
ENDBRANCH   4  19
BRANCH   7  28
ATOM     28  C   UNL     1      -1.264  13.845  23.598  0.00  0.00    +0.000 C 
BRANCH  28  29
ATOM     29  C   UNL     1      -2.546  14.675  23.313  0.00  0.00    +0.000 C 
BRANCH  29  30
ATOM     30  C   UNL     1      -3.778  13.882  23.653  0.00  0.00    +0.000 A 
ATOM     31  C   UNL     1      -5.080  13.918  23.193  0.00  0.00    +0.000 A 
ATOM     32  C   UNL     1      -5.788  12.913  23.896  0.00  0.00    +0.000 A 
ATOM     33  C   UNL     1      -4.876  12.320  24.736  0.00  0.00    +0.000 A 
ATOM     34  O   UNL     1      -3.655  12.896  24.594  0.00  0.00    +0.000 OA
ENDBRANCH  29  30
BRANCH  29  35
ATOM     35  N   UNL     1      -2.655  15.134  21.918  0.00  0.00    +0.000 NA
ATOM     36  H   UNL     1      -1.717  15.098  21.506  0.00  0.00    +0.000 HD
ATOM     37  H   UNL     1      -2.878  16.127  21.915  0.00  0.00    +0.000 HD
ENDBRANCH  29  35
ENDBRANCH  28  29
ENDBRANCH   7  28
TORSDOF 8
ENDMDL
MODEL 3
REMARK VINA RESULT:      -6.7      6.558      9.659
REMARK  Name = 
REMARK  10 active torsions:
REMARK  status: ('A' for Active; 'I' for Inactive)
REMARK    1  A    between atoms: C_1  and  O_2
REMARK    2  A    between atoms: O_2  and  C_3
REMARK    3  A    between atoms: C_7  and  C_8
REMARK    4  A    between atoms: C_9  and  C_10
REMARK    5  A    between atoms: N_11  and  C_12
REMARK    6  A    between atoms: C_12  and  C_13
REMARK    7  A    between atoms: N_23  and  C_24
REMARK    8  A    between atoms: C_24  and  C_25
REMARK    9  A    between atoms: C_25  and  N_26
REMARK   10  A    between atoms: C_25  and  C_27
REMARK                            x       y       z     vdW  Elec       q    Type
REMARK                         _______ _______ _______ _____ _____    ______ ____
ROOT
ATOM      1  C   UNL     1       3.981  14.640  19.959  0.00  0.00    +0.000 A 
ATOM      2  C   UNL     1       4.983  15.068  19.164  0.00  0.00    +0.000 A 
ATOM      3  C   UNL     1       4.754  15.428  17.706  0.00  0.00    +0.000 C 
ATOM      4  N   UNL     1       6.278  15.204  19.678  0.00  0.00    +0.000 N 
ATOM      5  C   UNL     1       6.590  14.965  21.019  0.00  0.00    +0.000 A 
ATOM      6  O   UNL     1       7.709  15.193  21.484  0.00  0.00    +0.000 OA
ATOM      7  N   UNL     1       5.578  14.429  21.797  0.00  0.00    +0.000 N 
ATOM      8  C   UNL     1       4.274  14.284  21.374  0.00  0.00    +0.000 A 
ATOM      9  O   UNL     1       3.367  13.892  22.109  0.00  0.00    +0.000 OA
ENDROOT
BRANCH   1  14
ATOM     10  C   UNL     1       0.366  15.313  19.094  0.00  0.00    +0.000 A 
ATOM     11  C   UNL     1      -0.029  14.050  18.640  0.00  0.00    +0.000 A 
ATOM     12  C   UNL     1       0.881  12.992  18.580  0.00  0.00    +0.000 A 
ATOM     13  C   UNL     1       2.202  13.182  18.984  0.00  0.00    +0.000 A 
ATOM     14  C   UNL     1       2.612  14.437  19.450  0.00  0.00    +0.000 A 
ATOM     15  C   UNL     1       1.694  15.498  19.488  0.00  0.00    +0.000 A 
ATOM     16  F   UNL     1       2.118  16.685  19.953  0.00  0.00    +0.000 F 
BRANCH  10  18
ATOM     17  C   UNL     1      -0.641  17.213  18.071  0.00  0.00    +0.000 C 
ATOM     18  O   UNL     1      -0.639  16.242  19.111  0.00  0.00    +0.000 OA
ENDBRANCH  10  18
ENDBRANCH   1  14
BRANCH   4  19
ATOM     19  C   UNL     1       7.404  15.604  18.822  0.00  0.00    +0.000 C 
BRANCH  19  20
ATOM     20  C   UNL     1       8.407  14.535  18.477  0.00  0.00    +0.000 A 
ATOM     21  C   UNL     1       8.123  13.372  17.761  0.00  0.00    +0.000 A 
ATOM     22  F   UNL     1       6.887  13.121  17.307  0.00  0.00    +0.000 F 
ATOM     23  C   UNL     1       9.105  12.414  17.508  0.00  0.00    +0.000 A 
ATOM     24  C   UNL     1      10.408  12.610  17.959  0.00  0.00    +0.000 A 
ATOM     25  C   UNL     1      10.722  13.774  18.654  0.00  0.00    +0.000 A 
ATOM     26  C   UNL     1       9.728  14.718  18.903  0.00  0.00    +0.000 A 
ATOM     27  F   UNL     1      10.056  15.825  19.584  0.00  0.00    +0.000 F 
ENDBRANCH  19  20
ENDBRANCH   4  19
BRANCH   7  28
ATOM     28  C   UNL     1       5.930  13.951  23.140  0.00  0.00    +0.000 C 
BRANCH  28  29
ATOM     29  C   UNL     1       6.397  12.472  23.213  0.00  0.00    +0.000 C 
BRANCH  29  30
ATOM     30  C   UNL     1       6.287  11.949  24.619  0.00  0.00    +0.000 A 
ATOM     31  C   UNL     1       7.116  12.023  25.721  0.00  0.00    +0.000 A 
ATOM     32  C   UNL     1       6.459  11.335  26.770  0.00  0.00    +0.000 A 
ATOM     33  C   UNL     1       5.268  10.891  26.250  0.00  0.00    +0.000 A 
ATOM     34  O   UNL     1       5.151  11.260  24.949  0.00  0.00    +0.000 OA
ENDBRANCH  29  30
BRANCH  29  35
ATOM     35  N   UNL     1       7.778  12.265  22.743  0.00  0.00    +0.000 NA
ATOM     36  H   UNL     1       8.122  11.397  23.164  0.00  0.00    +0.000 HD
ATOM     37  H   UNL     1       8.376  12.981  23.153  0.00  0.00    +0.000 HD
ENDBRANCH  29  35
ENDBRANCH  28  29
ENDBRANCH   7  28
TORSDOF 8
ENDMDL
MODEL 4
REMARK VINA RESULT:      -6.6      7.376     10.113
REMARK  Name = 
REMARK  10 active torsions:
REMARK  status: ('A' for Active; 'I' for Inactive)
REMARK    1  A    between atoms: C_1  and  O_2
REMARK    2  A    between atoms: O_2  and  C_3
REMARK    3  A    between atoms: C_7  and  C_8
REMARK    4  A    between atoms: C_9  and  C_10
REMARK    5  A    between atoms: N_11  and  C_12
REMARK    6  A    between atoms: C_12  and  C_13
REMARK    7  A    between atoms: N_23  and  C_24
REMARK    8  A    between atoms: C_24  and  C_25
REMARK    9  A    between atoms: C_25  and  N_26
REMARK   10  A    between atoms: C_25  and  C_27
REMARK                            x       y       z     vdW  Elec       q    Type
REMARK                         _______ _______ _______ _____ _____    ______ ____
ROOT
ATOM      1  C   UNL     1       5.550  14.891  20.984  0.00  0.00    +0.000 A 
ATOM      2  C   UNL     1       6.806  14.950  20.496  0.00  0.00    +0.000 A 
ATOM      3  C   UNL     1       7.101  15.461  19.096  0.00  0.00    +0.000 C 
ATOM      4  N   UNL     1       7.887  14.545  21.289  0.00  0.00    +0.000 N 
ATOM      5  C   UNL     1       7.740  14.121  22.612  0.00  0.00    +0.000 A 
ATOM      6  O   UNL     1       8.707  13.872  23.334  0.00  0.00    +0.000 OA
ATOM      7  N   UNL     1       6.440  13.967  23.065  0.00  0.00    +0.000 N 
ATOM      8  C   UNL     1       5.325  14.361  22.357  0.00  0.00    +0.000 A 
ATOM      9  O   UNL     1       4.182  14.302  22.812  0.00  0.00    +0.000 OA
ENDROOT
BRANCH   1  14
ATOM     10  C   UNL     1       2.782  16.961  19.462  0.00  0.00    +0.000 A 
ATOM     11  C   UNL     1       2.074  15.973  18.767  0.00  0.00    +0.000 A 
ATOM     12  C   UNL     1       2.512  14.647  18.762  0.00  0.00    +0.000 A 
ATOM     13  C   UNL     1       3.663  14.287  19.462  0.00  0.00    +0.000 A 
ATOM     14  C   UNL     1       4.378  15.261  20.171  0.00  0.00    +0.000 A 
ATOM     15  C   UNL     1       3.940  16.594  20.154  0.00  0.00    +0.000 A 
ATOM     16  F   UNL     1       4.641  17.500  20.855  0.00  0.00    +0.000 F 
BRANCH  10  18
ATOM     17  C   UNL     1       1.332  18.580  20.435  0.00  0.00    +0.000 C 
ATOM     18  O   UNL     1       2.222  18.208  19.389  0.00  0.00    +0.000 OA
ENDBRANCH  10  18
ENDBRANCH   1  14
BRANCH   4  19
ATOM     19  C   UNL     1       9.260  14.535  20.764  0.00  0.00    +0.000 C 
BRANCH  19  20
ATOM     20  C   UNL     1       9.582  13.491  19.728  0.00  0.00    +0.000 A 
ATOM     21  C   UNL     1       9.997  13.759  18.424  0.00  0.00    +0.000 A 
ATOM     22  F   UNL     1      10.149  15.019  17.989  0.00  0.00    +0.000 F 
ATOM     23  C   UNL     1      10.248  12.733  17.513  0.00  0.00    +0.000 A 
ATOM     24  C   UNL     1      10.103  11.402  17.899  0.00  0.00    +0.000 A 
ATOM     25  C   UNL     1       9.714  11.108  19.202  0.00  0.00    +0.000 A 
ATOM     26  C   UNL     1       9.462  12.146  20.097  0.00  0.00    +0.000 A 
ATOM     27  F   UNL     1       9.079  11.834  21.344  0.00  0.00    +0.000 F 
ENDBRANCH  19  20
ENDBRANCH   4  19
BRANCH   7  28
ATOM     28  C   UNL     1       6.242  13.307  24.361  0.00  0.00    +0.000 C 
BRANCH  28  29
ATOM     29  C   UNL     1       6.280  11.755  24.325  0.00  0.00    +0.000 C 
BRANCH  29  30
ATOM     30  C   UNL     1       5.760  11.181  25.614  0.00  0.00    +0.000 A 
ATOM     31  C   UNL     1       6.241  11.181  26.909  0.00  0.00    +0.000 A 
ATOM     32  C   UNL     1       5.296  10.477  27.693  0.00  0.00    +0.000 A 
ATOM     33  C   UNL     1       4.293  10.097  26.835  0.00  0.00    +0.000 A 
ATOM     34  O   UNL     1       4.562  10.521  25.574  0.00  0.00    +0.000 OA
ENDBRANCH  29  30
BRANCH  29  35
ATOM     35  N   UNL     1       7.622  11.202  24.073  0.00  0.00    +0.000 NA
ATOM     36  H   UNL     1       7.887  11.455  23.116  0.00  0.00    +0.000 HD
ATOM     37  H   UNL     1       7.559  10.186  24.042  0.00  0.00    +0.000 HD
ENDBRANCH  29  35
ENDBRANCH  28  29
ENDBRANCH   7  28
TORSDOF 8
ENDMDL
MODEL 5
REMARK VINA RESULT:      -6.6      6.846      9.803
REMARK  Name = 
REMARK  10 active torsions:
REMARK  status: ('A' for Active; 'I' for Inactive)
REMARK    1  A    between atoms: C_1  and  O_2
REMARK    2  A    between atoms: O_2  and  C_3
REMARK    3  A    between atoms: C_7  and  C_8
REMARK    4  A    between atoms: C_9  and  C_10
REMARK    5  A    between atoms: N_11  and  C_12
REMARK    6  A    between atoms: C_12  and  C_13
REMARK    7  A    between atoms: N_23  and  C_24
REMARK    8  A    between atoms: C_24  and  C_25
REMARK    9  A    between atoms: C_25  and  N_26
REMARK   10  A    between atoms: C_25  and  C_27
REMARK                            x       y       z     vdW  Elec       q    Type
REMARK                         _______ _______ _______ _____ _____    ______ ____
ROOT
ATOM      1  C   UNL     1       4.987  15.141  20.784  0.00  0.00    +0.000 A 
ATOM      2  C   UNL     1       6.132  15.272  20.084  0.00  0.00    +0.000 A 
ATOM      3  C   UNL     1       6.151  15.830  18.671  0.00  0.00    +0.000 C 
ATOM      4  N   UNL     1       7.354  14.901  20.660  0.00  0.00    +0.000 N 
ATOM      5  C   UNL     1       7.463  14.439  21.974  0.00  0.00    +0.000 A 
ATOM      6  O   UNL     1       8.553  14.219  22.505  0.00  0.00    +0.000 OA
ATOM      7  N   UNL     1       6.272  14.212  22.644  0.00  0.00    +0.000 N 
ATOM      8  C   UNL     1       5.033  14.569  22.157  0.00  0.00    +0.000 A 
ATOM      9  O   UNL     1       3.993  14.443  22.805  0.00  0.00    +0.000 OA
ENDROOT
BRANCH   1  14
ATOM     10  C   UNL     1       1.696  14.764  18.970  0.00  0.00    +0.000 A 
ATOM     11  C   UNL     1       1.255  16.092  18.957  0.00  0.00    +0.000 A 
ATOM     12  C   UNL     1       2.004  17.102  19.567  0.00  0.00    +0.000 A 
ATOM     13  C   UNL     1       3.213  16.797  20.190  0.00  0.00    +0.000 A 
ATOM     14  C   UNL     1       3.674  15.474  20.203  0.00  0.00    +0.000 A 
ATOM     15  C   UNL     1       2.905  14.465  19.605  0.00  0.00    +0.000 A 
ATOM     16  F   UNL     1       3.383  13.210  19.624  0.00  0.00    +0.000 F 
BRANCH  10  18
ATOM     17  C   UNL     1      -0.414  13.664  18.898  0.00  0.00    +0.000 C 
ATOM     18  O   UNL     1       0.866  13.892  18.319  0.00  0.00    +0.000 OA
ENDBRANCH  10  18
ENDBRANCH   1  14
BRANCH   4  19
ATOM     19  C   UNL     1       8.610  14.970  19.901  0.00  0.00    +0.000 C 
BRANCH  19  20
ATOM     20  C   UNL     1       9.161  13.668  19.382  0.00  0.00    +0.000 A 
ATOM     21  C   UNL     1       8.589  12.906  18.363  0.00  0.00    +0.000 A 
ATOM     22  F   UNL     1       7.465  13.303  17.747  0.00  0.00    +0.000 F 
ATOM     23  C   UNL     1       9.146  11.692  17.959  0.00  0.00    +0.000 A 
ATOM     24  C   UNL     1      10.309  11.220  18.563  0.00  0.00    +0.000 A 
ATOM     25  C   UNL     1      10.913  11.974  19.564  0.00  0.00    +0.000 A 
ATOM     26  C   UNL     1      10.339  13.181  19.960  0.00  0.00    +0.000 A 
ATOM     27  F   UNL     1      10.936  13.882  20.934  0.00  0.00    +0.000 F 
ENDBRANCH  19  20
ENDBRANCH   4  19
BRANCH   7  28
ATOM     28  C   UNL     1       6.337  13.512  23.933  0.00  0.00    +0.000 C 
BRANCH  28  29
ATOM     29  C   UNL     1       6.334  11.961  23.844  0.00  0.00    +0.000 C 
BRANCH  29  30
ATOM     30  C   UNL     1       5.895  11.355  25.149  0.00  0.00    +0.000 A 
ATOM     31  C   UNL     1       6.425  11.377  26.424  0.00  0.00    +0.000 A 
ATOM     32  C   UNL     1       5.549  10.620  27.240  0.00  0.00    +0.000 A 
ATOM     33  C   UNL     1       4.536  10.190  26.418  0.00  0.00    +0.000 A 
ATOM     34  O   UNL     1       4.734  10.633  25.150  0.00  0.00    +0.000 OA
ENDBRANCH  29  30
BRANCH  29  35
ATOM     35  N   UNL     1       7.641  11.388  23.477  0.00  0.00    +0.000 NA
ATOM     36  H   UNL     1       7.465  10.523  22.958  0.00  0.00    +0.000 HD
ATOM     37  H   UNL     1       8.109  11.068  24.323  0.00  0.00    +0.000 HD
ENDBRANCH  29  35
ENDBRANCH  28  29
ENDBRANCH   7  28
TORSDOF 8
ENDMDL
MODEL 6
REMARK VINA RESULT:      -6.6      3.461      5.127
REMARK  Name = 
REMARK  10 active torsions:
REMARK  status: ('A' for Active; 'I' for Inactive)
REMARK    1  A    between atoms: C_1  and  O_2
REMARK    2  A    between atoms: O_2  and  C_3
REMARK    3  A    between atoms: C_7  and  C_8
REMARK    4  A    between atoms: C_9  and  C_10
REMARK    5  A    between atoms: N_11  and  C_12
REMARK    6  A    between atoms: C_12  and  C_13
REMARK    7  A    between atoms: N_23  and  C_24
REMARK    8  A    between atoms: C_24  and  C_25
REMARK    9  A    between atoms: C_25  and  N_26
REMARK   10  A    between atoms: C_25  and  C_27
REMARK                            x       y       z     vdW  Elec       q    Type
REMARK                         _______ _______ _______ _____ _____    ______ ____
ROOT
ATOM      1  C   UNL     1      -0.858  14.999  19.706  0.00  0.00    +0.000 A 
ATOM      2  C   UNL     1      -0.850  13.703  19.334  0.00  0.00    +0.000 A 
ATOM      3  C   UNL     1       0.049  13.192  18.221  0.00  0.00    +0.000 C 
ATOM      4  N   UNL     1      -1.676  12.780  19.987  0.00  0.00    +0.000 N 
ATOM      5  C   UNL     1      -2.493  13.125  21.067  0.00  0.00    +0.000 A 
ATOM      6  O   UNL     1      -3.132  12.284  21.703  0.00  0.00    +0.000 OA
ATOM      7  N   UNL     1      -2.570  14.474  21.370  0.00  0.00    +0.000 N 
ATOM      8  C   UNL     1      -1.776  15.441  20.791  0.00  0.00    +0.000 A 
ATOM      9  O   UNL     1      -1.793  16.623  21.138  0.00  0.00    +0.000 OA
ENDROOT
BRANCH   1  14
ATOM     10  C   UNL     1       2.082  17.191  18.803  0.00  0.00    +0.000 A 
ATOM     11  C   UNL     1       1.495  18.028  17.846  0.00  0.00    +0.000 A 
ATOM     12  C   UNL     1       0.161  17.859  17.467  0.00  0.00    +0.000 A 
ATOM     13  C   UNL     1      -0.610  16.854  18.051  0.00  0.00    +0.000 A 
ATOM     14  C   UNL     1      -0.041  16.015  19.017  0.00  0.00    +0.000 A 
ATOM     15  C   UNL     1       1.305  16.181  19.376  0.00  0.00    +0.000 A 
ATOM     16  F   UNL     1       1.815  15.367  20.315  0.00  0.00    +0.000 F 
BRANCH  10  18
ATOM     17  C   UNL     1       4.374  16.576  18.612  0.00  0.00    +0.000 C 
ATOM     18  O   UNL     1       3.388  17.489  19.081  0.00  0.00    +0.000 OA
ENDBRANCH  10  18
ENDBRANCH   1  14
BRANCH   4  19
ATOM     19  C   UNL     1      -1.739  11.374  19.563  0.00  0.00    +0.000 C 
BRANCH  19  20
ATOM     20  C   UNL     1      -2.490  11.083  18.291  0.00  0.00    +0.000 A 
ATOM     21  C   UNL     1      -3.777  11.535  18.000  0.00  0.00    +0.000 A 
ATOM     22  F   UNL     1      -4.458  12.295  18.868  0.00  0.00    +0.000 F 
ATOM     23  C   UNL     1      -4.416  11.195  16.807  0.00  0.00    +0.000 A 
ATOM     24  C   UNL     1      -3.766  10.401  15.865  0.00  0.00    +0.000 A 
ATOM     25  C   UNL     1      -2.472   9.960  16.121  0.00  0.00    +0.000 A 
ATOM     26  C   UNL     1      -1.850  10.303  17.320  0.00  0.00    +0.000 A 
ATOM     27  F   UNL     1      -0.607   9.855  17.545  0.00  0.00    +0.000 F 
ENDBRANCH  19  20
ENDBRANCH   4  19
BRANCH   7  28
ATOM     28  C   UNL     1      -3.587  14.899  22.339  0.00  0.00    +0.000 C 
BRANCH  28  29
ATOM     29  C   UNL     1      -4.968  15.266  21.729  0.00  0.00    +0.000 C 
BRANCH  29  30
ATOM     30  C   UNL     1      -5.968  14.171  21.982  0.00  0.00    +0.000 A 
ATOM     31  C   UNL     1      -6.887  13.527  21.176  0.00  0.00    +0.000 A 
ATOM     32  C   UNL     1      -7.544  12.573  21.991  0.00  0.00    +0.000 A 
ATOM     33  C   UNL     1      -6.983  12.686  23.240  0.00  0.00    +0.000 A 
ATOM     34  O   UNL     1      -6.025  13.647  23.245  0.00  0.00    +0.000 OA
ENDBRANCH  29  30
BRANCH  29  35
ATOM     35  N   UNL     1      -4.922  15.533  20.282  0.00  0.00    +0.000 NA
ATOM     36  H   UNL     1      -4.563  16.484  20.153  0.00  0.00    +0.000 HD
ATOM     37  H   UNL     1      -5.875  15.588  19.927  0.00  0.00    +0.000 HD
ENDBRANCH  29  35
ENDBRANCH  28  29
ENDBRANCH   7  28
TORSDOF 8
ENDMDL
MODEL 7
REMARK VINA RESULT:      -6.6      7.532     10.327
REMARK  Name = 
REMARK  10 active torsions:
REMARK  status: ('A' for Active; 'I' for Inactive)
REMARK    1  A    between atoms: C_1  and  O_2
REMARK    2  A    between atoms: O_2  and  C_3
REMARK    3  A    between atoms: C_7  and  C_8
REMARK    4  A    between atoms: C_9  and  C_10
REMARK    5  A    between atoms: N_11  and  C_12
REMARK    6  A    between atoms: C_12  and  C_13
REMARK    7  A    between atoms: N_23  and  C_24
REMARK    8  A    between atoms: C_24  and  C_25
REMARK    9  A    between atoms: C_25  and  N_26
REMARK   10  A    between atoms: C_25  and  C_27
REMARK                            x       y       z     vdW  Elec       q    Type
REMARK                         _______ _______ _______ _____ _____    ______ ____
ROOT
ATOM      1  C   UNL     1       5.807  15.117  20.318  0.00  0.00    +0.000 A 
ATOM      2  C   UNL     1       6.933  15.219  19.582  0.00  0.00    +0.000 A 
ATOM      3  C   UNL     1       6.915  15.730  18.152  0.00  0.00    +0.000 C 
ATOM      4  N   UNL     1       8.168  14.859  20.136  0.00  0.00    +0.000 N 
ATOM      5  C   UNL     1       8.311  14.440  21.461  0.00  0.00    +0.000 A 
ATOM      6  O   UNL     1       9.414  14.231  21.969  0.00  0.00    +0.000 OA
ATOM      7  N   UNL     1       7.138  14.242  22.171  0.00  0.00    +0.000 N 
ATOM      8  C   UNL     1       5.888  14.590  21.707  0.00  0.00    +0.000 A 
ATOM      9  O   UNL     1       4.866  14.493  22.387  0.00  0.00    +0.000 OA
ENDROOT
BRANCH   1  14
ATOM     10  C   UNL     1       2.700  17.068  19.418  0.00  0.00    +0.000 A 
ATOM     11  C   UNL     1       1.912  16.053  18.861  0.00  0.00    +0.000 A 
ATOM     12  C   UNL     1       2.399  14.750  18.744  0.00  0.00    +0.000 A 
ATOM     13  C   UNL     1       3.681  14.439  19.194  0.00  0.00    +0.000 A 
ATOM     14  C   UNL     1       4.480  15.439  19.762  0.00  0.00    +0.000 A 
ATOM     15  C   UNL     1       3.988  16.750  19.857  0.00  0.00    +0.000 A 
ATOM     16  F   UNL     1       4.775  17.682  20.420  0.00  0.00    +0.000 F 
BRANCH  10  18
ATOM     17  C   UNL     1       0.771  18.320  20.035  0.00  0.00    +0.000 C 
ATOM     18  O   UNL     1       2.081  18.287  19.481  0.00  0.00    +0.000 OA
ENDBRANCH  10  18
ENDBRANCH   1  14
BRANCH   4  19
ATOM     19  C   UNL     1       9.403  14.895  19.341  0.00  0.00    +0.000 C 
BRANCH  19  20
ATOM     20  C   UNL     1      10.088  13.577  19.092  0.00  0.00    +0.000 A 
ATOM     21  C   UNL     1      11.359  13.236  19.553  0.00  0.00    +0.000 A 
ATOM     22  F   UNL     1      12.085  14.093  20.285  0.00  0.00    +0.000 F 
ATOM     23  C   UNL     1      11.936  12.001  19.253  0.00  0.00    +0.000 A 
ATOM     24  C   UNL     1      11.238  11.068  18.490  0.00  0.00    +0.000 A 
ATOM     25  C   UNL     1       9.958  11.375  18.040  0.00  0.00    +0.000 A 
ATOM     26  C   UNL     1       9.399  12.615  18.343  0.00  0.00    +0.000 A 
ATOM     27  F   UNL     1       8.168  12.889  17.888  0.00  0.00    +0.000 F 
ENDBRANCH  19  20
ENDBRANCH   4  19
BRANCH   7  28
ATOM     28  C   UNL     1       7.235  13.585  23.480  0.00  0.00    +0.000 C 
BRANCH  28  29
ATOM     29  C   UNL     1       7.042  12.044  23.462  0.00  0.00    +0.000 C 
BRANCH  29  30
ATOM     30  C   UNL     1       6.485  11.563  24.774  0.00  0.00    +0.000 A 
ATOM     31  C   UNL     1       6.954  11.611  26.072  0.00  0.00    +0.000 A 
ATOM     32  C   UNL     1       5.971  10.992  26.882  0.00  0.00    +0.000 A 
ATOM     33  C   UNL     1       4.959  10.612  26.033  0.00  0.00    +0.000 A 
ATOM     34  O   UNL     1       5.259  10.957  24.754  0.00  0.00    +0.000 OA
ENDBRANCH  29  30
BRANCH  29  35
ATOM     35  N   UNL     1       8.279  11.297  23.176  0.00  0.00    +0.000 NA
ATOM     36  H   UNL     1       8.946  11.504  23.926  0.00  0.00    +0.000 HD
ATOM     37  H   UNL     1       8.720  11.695  22.349  0.00  0.00    +0.000 HD
ENDBRANCH  29  35
ENDBRANCH  28  29
ENDBRANCH   7  28
TORSDOF 8
ENDMDL
MODEL 8
REMARK VINA RESULT:      -6.6      3.474      5.624
REMARK  Name = 
REMARK  10 active torsions:
REMARK  status: ('A' for Active; 'I' for Inactive)
REMARK    1  A    between atoms: C_1  and  O_2
REMARK    2  A    between atoms: O_2  and  C_3
REMARK    3  A    between atoms: C_7  and  C_8
REMARK    4  A    between atoms: C_9  and  C_10
REMARK    5  A    between atoms: N_11  and  C_12
REMARK    6  A    between atoms: C_12  and  C_13
REMARK    7  A    between atoms: N_23  and  C_24
REMARK    8  A    between atoms: C_24  and  C_25
REMARK    9  A    between atoms: C_25  and  N_26
REMARK   10  A    between atoms: C_25  and  C_27
REMARK                            x       y       z     vdW  Elec       q    Type
REMARK                         _______ _______ _______ _____ _____    ______ ____
ROOT
ATOM      1  C   UNL     1       1.240  13.890  20.377  0.00  0.00    +0.000 A 
ATOM      2  C   UNL     1       0.844  12.711  19.857  0.00  0.00    +0.000 A 
ATOM      3  C   UNL     1       1.414  12.173  18.556  0.00  0.00    +0.000 C 
ATOM      4  N   UNL     1      -0.112  11.935  20.525  0.00  0.00    +0.000 N 
ATOM      5  C   UNL     1      -0.655  12.299  21.761  0.00  0.00    +0.000 A 
ATOM      6  O   UNL     1      -1.412  11.557  22.390  0.00  0.00    +0.000 OA
ATOM      7  N   UNL     1      -0.318  13.557  22.231  0.00  0.00    +0.000 N 
ATOM      8  C   UNL     1       0.628  14.371  21.646  0.00  0.00    +0.000 A 
ATOM      9  O   UNL     1       0.982  15.448  22.129  0.00  0.00    +0.000 OA
ENDROOT
BRANCH   1  14
ATOM     10  C   UNL     1       4.495  15.569  19.455  0.00  0.00    +0.000 A 
ATOM     11  C   UNL     1       4.046  16.502  18.513  0.00  0.00    +0.000 A 
ATOM     12  C   UNL     1       2.698  16.563  18.150  0.00  0.00    +0.000 A 
ATOM     13  C   UNL     1       1.777  15.695  18.735  0.00  0.00    +0.000 A 
ATOM     14  C   UNL     1       2.208  14.762  19.687  0.00  0.00    +0.000 A 
ATOM     15  C   UNL     1       3.567  14.697  20.029  0.00  0.00    +0.000 A 
ATOM     16  F   UNL     1       3.944  13.799  20.955  0.00  0.00    +0.000 F 
BRANCH  10  18
ATOM     17  C   UNL     1       6.674  16.140  18.681  0.00  0.00    +0.000 C 
ATOM     18  O   UNL     1       5.836  15.642  19.718  0.00  0.00    +0.000 OA
ENDBRANCH  10  18
ENDBRANCH   1  14
BRANCH   4  19
ATOM     19  C   UNL     1      -0.613  10.678  19.954  0.00  0.00    +0.000 C 
BRANCH  19  20
ATOM     20  C   UNL     1      -1.613  10.794  18.833  0.00  0.00    +0.000 A 
ATOM     21  C   UNL     1      -2.787  11.545  18.882  0.00  0.00    +0.000 A 
ATOM     22  F   UNL     1      -3.116  12.248  19.975  0.00  0.00    +0.000 F 
ATOM     23  C   UNL     1      -3.678  11.576  17.808  0.00  0.00    +0.000 A 
ATOM     24  C   UNL     1      -3.399  10.862  16.646  0.00  0.00    +0.000 A 
ATOM     25  C   UNL     1      -2.222  10.125  16.563  0.00  0.00    +0.000 A 
ATOM     26  C   UNL     1      -1.346  10.099  17.646  0.00  0.00    +0.000 A 
ATOM     27  F   UNL     1      -0.224   9.374  17.543  0.00  0.00    +0.000 F 
ENDBRANCH  19  20
ENDBRANCH   4  19
BRANCH   7  28
ATOM     28  C   UNL     1      -1.044  14.066  23.401  0.00  0.00    +0.000 C 
BRANCH  28  29
ATOM     29  C   UNL     1      -2.320  14.891  23.079  0.00  0.00    +0.000 C 
BRANCH  29  30
ATOM     30  C   UNL     1      -3.558  14.074  23.331  0.00  0.00    +0.000 A 
ATOM     31  C   UNL     1      -4.761  13.954  22.663  0.00  0.00    +0.000 A 
ATOM     32  C   UNL     1      -5.536  13.016  23.387  0.00  0.00    +0.000 A 
ATOM     33  C   UNL     1      -4.759  12.614  24.446  0.00  0.00    +0.000 A 
ATOM     34  O   UNL     1      -3.557  13.245  24.419  0.00  0.00    +0.000 OA
ENDBRANCH  29  30
BRANCH  29  35
ATOM     35  N   UNL     1      -2.364  15.395  21.696  0.00  0.00    +0.000 NA
ATOM     36  H   UNL     1      -3.325  15.695  21.506  0.00  0.00    +0.000 HD
ATOM     37  H   UNL     1      -2.229  14.614  21.057  0.00  0.00    +0.000 HD
ENDBRANCH  29  35
ENDBRANCH  28  29
ENDBRANCH   7  28
TORSDOF 8
ENDMDL
MODEL 9
REMARK VINA RESULT:      -6.6      7.626     10.502
REMARK  Name = 
REMARK  10 active torsions:
REMARK  status: ('A' for Active; 'I' for Inactive)
REMARK    1  A    between atoms: C_1  and  O_2
REMARK    2  A    between atoms: O_2  and  C_3
REMARK    3  A    between atoms: C_7  and  C_8
REMARK    4  A    between atoms: C_9  and  C_10
REMARK    5  A    between atoms: N_11  and  C_12
REMARK    6  A    between atoms: C_12  and  C_13
REMARK    7  A    between atoms: N_23  and  C_24
REMARK    8  A    between atoms: C_24  and  C_25
REMARK    9  A    between atoms: C_25  and  N_26
REMARK   10  A    between atoms: C_25  and  C_27
REMARK                            x       y       z     vdW  Elec       q    Type
REMARK                         _______ _______ _______ _____ _____    ______ ____
ROOT
ATOM      1  C   UNL     1       5.773  15.127  20.287  0.00  0.00    +0.000 A 
ATOM      2  C   UNL     1       6.914  15.231  19.576  0.00  0.00    +0.000 A 
ATOM      3  C   UNL     1       6.918  15.675  18.123  0.00  0.00    +0.000 C 
ATOM      4  N   UNL     1       8.145  14.937  20.176  0.00  0.00    +0.000 N 
ATOM      5  C   UNL     1       8.266  14.584  21.522  0.00  0.00    +0.000 A 
ATOM      6  O   UNL     1       9.361  14.434  22.066  0.00  0.00    +0.000 OA
ATOM      7  N   UNL     1       7.082  14.381  22.211  0.00  0.00    +0.000 N 
ATOM      8  C   UNL     1       5.833  14.667  21.701  0.00  0.00    +0.000 A 
ATOM      9  O   UNL     1       4.798  14.567  22.359  0.00  0.00    +0.000 OA
ENDROOT
BRANCH   1  14
ATOM     10  C   UNL     1       2.651  16.944  19.182  0.00  0.00    +0.000 A 
ATOM     11  C   UNL     1       1.891  15.875  18.693  0.00  0.00    +0.000 A 
ATOM     12  C   UNL     1       2.402  14.575  18.687  0.00  0.00    +0.000 A 
ATOM     13  C   UNL     1       3.681  14.324  19.182  0.00  0.00    +0.000 A 
ATOM     14  C   UNL     1       4.451  15.380  19.684  0.00  0.00    +0.000 A 
ATOM     15  C   UNL     1       3.936  16.685  19.668  0.00  0.00    +0.000 A 
ATOM     16  F   UNL     1       4.696  17.673  20.169  0.00  0.00    +0.000 F 
BRANCH  10  18
ATOM     17  C   UNL     1       1.444  18.629  20.353  0.00  0.00    +0.000 C 
ATOM     18  O   UNL     1       2.011  18.153  19.138  0.00  0.00    +0.000 OA
ENDBRANCH  10  18
ENDBRANCH   1  14
BRANCH   4  19
ATOM     19  C   UNL     1       9.398  14.977  19.411  0.00  0.00    +0.000 C 
BRANCH  19  20
ATOM     20  C   UNL     1      10.039  13.652  19.089  0.00  0.00    +0.000 A 
ATOM     21  C   UNL     1       9.435  12.627  18.361  0.00  0.00    +0.000 A 
ATOM     22  F   UNL     1       8.193  12.761  17.874  0.00  0.00    +0.000 F 
ATOM     23  C   UNL     1      10.086  11.415  18.131  0.00  0.00    +0.000 A 
ATOM     24  C   UNL     1      11.375  11.208  18.617  0.00  0.00    +0.000 A 
ATOM     25  C   UNL     1      12.008  12.225  19.324  0.00  0.00    +0.000 A 
ATOM     26  C   UNL     1      11.341  13.428  19.551  0.00  0.00    +0.000 A 
ATOM     27  F   UNL     1      11.972  14.387  20.244  0.00  0.00    +0.000 F 
ENDBRANCH  19  20
ENDBRANCH   4  19
BRANCH   7  28
ATOM     28  C   UNL     1       7.165  13.788  23.551  0.00  0.00    +0.000 C 
BRANCH  28  29
ATOM     29  C   UNL     1       7.146  12.235  23.589  0.00  0.00    +0.000 C 
BRANCH  29  30
ATOM     30  C   UNL     1       6.671  11.742  24.929  0.00  0.00    +0.000 A 
ATOM     31  C   UNL     1       5.577  10.999  25.327  0.00  0.00    +0.000 A 
ATOM     32  C   UNL     1       5.678  10.850  26.732  0.00  0.00    +0.000 A 
ATOM     33  C   UNL     1       6.829  11.501  27.105  0.00  0.00    +0.000 A 
ATOM     34  O   UNL     1       7.440  12.042  26.020  0.00  0.00    +0.000 OA
ENDBRANCH  29  30
BRANCH  29  35
ATOM     35  N   UNL     1       8.453  11.621  23.300  0.00  0.00    +0.000 NA
ATOM     36  H   UNL     1       8.548  11.559  22.282  0.00  0.00    +0.000 HD
ATOM     37  H   UNL     1       8.432  10.647  23.597  0.00  0.00    +0.000 HD
ENDBRANCH  29  35
ENDBRANCH  28  29
ENDBRANCH   7  28
TORSDOF 8
ENDMDL
