MODEL 1
REMARK VINA RESULT:      -8.5      0.000      0.000
REMARK  Name = 
REMARK  2 active torsions:
REMARK  status: ('A' for Active; 'I' for Inactive)
REMARK    1  A    between atoms: C_5  and  N_6
REMARK    2  A    between atoms: C_13  and  N_14
REMARK                            x       y       z     vdW  Elec       q    Type
REMARK                         _______ _______ _______ _____ _____    ______ ____
ROOT
ATOM      1  N   UNL     1       4.585   5.904  18.261  0.00  0.00    +0.000 N 
ATOM      2  C   UNL     1       4.901   4.501  18.512  0.00  0.00    +0.000 C 
ATOM      3  C   UNL     1       3.788   4.073  19.416  0.00  0.00    +0.000 A 
ATOM      4  C   UNL     1       2.914   5.141  19.610  0.00  0.00    +0.000 A 
ATOM      5  C   UNL     1       1.796   5.087  20.424  0.00  0.00    +0.000 A 
ATOM      6  C   UNL     1       1.531   3.885  21.074  0.00  0.00    +0.000 A 
ATOM      7  C   UNL     1       2.375   2.776  20.882  0.00  0.00    +0.000 A 
ATOM      8  C   UNL     1       3.508   2.868  20.045  0.00  0.00    +0.000 A 
ATOM      9  C   UNL     1       3.384   6.276  18.826  0.00  0.00    +0.000 C 
ATOM     10  O   UNL     1       2.769   7.317  18.704  0.00  0.00    +0.000 OA
ENDROOT
BRANCH   1  15
ATOM     11  O   UNL     1       7.505   4.483  14.608  0.00  0.00    +0.000 OA
ATOM     12  C   UNL     1       6.872   5.192  15.389  0.00  0.00    +0.000 C 
ATOM     13  C   UNL     1       5.427   5.559  15.143  0.00  0.00    +0.000 C 
ATOM     14  C   UNL     1       4.993   6.782  15.932  0.00  0.00    +0.000 C 
ATOM     15  C   UNL     1       5.414   6.744  17.400  0.00  0.00    +0.000 C 
ATOM     16  C   UNL     1       6.887   6.370  17.563  0.00  0.00    +0.000 C 
ATOM     17  O   UNL     1       7.511   6.595  18.601  0.00  0.00    +0.000 OA
ATOM     18  N   UNL     1       7.464   5.670  16.531  0.00  0.00    +0.000 N 
ATOM     19  H   UNL     1       8.412   5.361  16.687  0.00  0.00    +0.000 HD
ENDBRANCH   1  15
BRANCH   8  20
ATOM     20  N   UNL     1       4.357   1.688  19.854  0.00  0.00    +0.000 N 
ATOM     21  O   UNL     1       4.109   0.949  18.893  0.00  0.00    +0.000 OA
ATOM     22  O   UNL     1       5.273   1.501  20.666  0.00  0.00    +0.000 OA
ENDBRANCH   8  20
TORSDOF 2
ENDMDL
MODEL 2
REMARK VINA RESULT:      -7.9      1.561      3.897
REMARK  Name = 
REMARK  2 active torsions:
REMARK  status: ('A' for Active; 'I' for Inactive)
REMARK    1  A    between atoms: C_5  and  N_6
REMARK    2  A    between atoms: C_13  and  N_14
REMARK                            x       y       z     vdW  Elec       q    Type
REMARK                         _______ _______ _______ _____ _____    ______ ____
ROOT
ATOM      1  N   UNL     1       5.261   4.611  18.509  0.00  0.00    +0.000 N 
ATOM      2  C   UNL     1       4.481   5.830  18.696  0.00  0.00    +0.000 C 
ATOM      3  C   UNL     1       3.315   5.352  19.501  0.00  0.00    +0.000 A 
ATOM      4  C   UNL     1       3.466   3.992  19.767  0.00  0.00    +0.000 A 
ATOM      5  C   UNL     1       2.540   3.233  20.463  0.00  0.00    +0.000 A 
ATOM      6  C   UNL     1       1.400   3.880  20.930  0.00  0.00    +0.000 A 
ATOM      7  C   UNL     1       1.225   5.257  20.705  0.00  0.00    +0.000 A 
ATOM      8  C   UNL     1       2.189   5.999  19.990  0.00  0.00    +0.000 A 
ATOM      9  C   UNL     1       4.728   3.542  19.196  0.00  0.00    +0.000 C 
ATOM     10  O   UNL     1       5.189   2.430  19.360  0.00  0.00    +0.000 OA
ENDROOT
BRANCH   1  15
ATOM     11  O   UNL     1       8.018   8.445  17.249  0.00  0.00    +0.000 OA
ATOM     12  C   UNL     1       7.633   7.290  17.419  0.00  0.00    +0.000 C 
ATOM     13  C   UNL     1       7.853   6.558  18.723  0.00  0.00    +0.000 C 
ATOM     14  C   UNL     1       7.744   5.051  18.572  0.00  0.00    +0.000 C 
ATOM     15  C   UNL     1       6.522   4.602  17.772  0.00  0.00    +0.000 C 
ATOM     16  C   UNL     1       6.374   5.385  16.468  0.00  0.00    +0.000 C 
ATOM     17  O   UNL     1       5.678   4.982  15.535  0.00  0.00    +0.000 OA
ATOM     18  N   UNL     1       6.972   6.621  16.419  0.00  0.00    +0.000 N 
ATOM     19  H   UNL     1       6.799   7.160  15.583  0.00  0.00    +0.000 HD
ENDBRANCH   1  15
BRANCH   8  20
ATOM     20  N   UNL     1       1.984   7.437  19.788  0.00  0.00    +0.000 N 
ATOM     21  O   UNL     1       1.703   8.125  20.779  0.00  0.00    +0.000 OA
ATOM     22  O   UNL     1       2.104   7.879  18.638  0.00  0.00    +0.000 OA
ENDBRANCH   8  20
TORSDOF 2
ENDMDL
MODEL 3
REMARK VINA RESULT:      -7.7      2.079      2.704
REMARK  Name = 
REMARK  2 active torsions:
REMARK  status: ('A' for Active; 'I' for Inactive)
REMARK    1  A    between atoms: C_5  and  N_6
REMARK    2  A    between atoms: C_13  and  N_14
REMARK                            x       y       z     vdW  Elec       q    Type
REMARK                         _______ _______ _______ _____ _____    ______ ____
ROOT
ATOM      1  N   UNL     1       4.979   4.838  18.042  0.00  0.00    +0.000 N 
ATOM      2  C   UNL     1       4.276   4.950  19.316  0.00  0.00    +0.000 C 
ATOM      3  C   UNL     1       3.275   3.841  19.236  0.00  0.00    +0.000 A 
ATOM      4  C   UNL     1       3.444   3.153  18.036  0.00  0.00    +0.000 A 
ATOM      5  C   UNL     1       2.653   2.090  17.636  0.00  0.00    +0.000 A 
ATOM      6  C   UNL     1       1.638   1.684  18.498  0.00  0.00    +0.000 A 
ATOM      7  C   UNL     1       1.454   2.336  19.730  0.00  0.00    +0.000 A 
ATOM      8  C   UNL     1       2.278   3.418  20.105  0.00  0.00    +0.000 A 
ATOM      9  C   UNL     1       4.564   3.743  17.314  0.00  0.00    +0.000 C 
ATOM     10  O   UNL     1       5.023   3.288  16.285  0.00  0.00    +0.000 OA
ENDROOT
BRANCH   1  15
ATOM     11  O   UNL     1       7.298   5.140  13.751  0.00  0.00    +0.000 OA
ATOM     12  C   UNL     1       6.938   5.376  14.902  0.00  0.00    +0.000 C 
ATOM     13  C   UNL     1       5.726   6.227  15.202  0.00  0.00    +0.000 C 
ATOM     14  C   UNL     1       5.734   6.777  16.617  0.00  0.00    +0.000 C 
ATOM     15  C   UNL     1       6.075   5.732  17.678  0.00  0.00    +0.000 C 
ATOM     16  C   UNL     1       7.314   4.919  17.304  0.00  0.00    +0.000 C 
ATOM     17  O   UNL     1       7.949   4.269  18.135  0.00  0.00    +0.000 OA
ATOM     18  N   UNL     1       7.631   4.859  15.968  0.00  0.00    +0.000 N 
ATOM     19  H   UNL     1       8.403   4.254  15.727  0.00  0.00    +0.000 HD
ENDBRANCH   1  15
BRANCH   8  20
ATOM     20  N   UNL     1       2.069   4.065  21.404  0.00  0.00    +0.000 N 
ATOM     21  O   UNL     1       1.788   5.270  21.410  0.00  0.00    +0.000 OA
ATOM     22  O   UNL     1       2.186   3.366  22.419  0.00  0.00    +0.000 OA
ENDBRANCH   8  20
TORSDOF 2
ENDMDL
MODEL 4
REMARK VINA RESULT:      -7.7      1.720      3.833
REMARK  Name = 
REMARK  2 active torsions:
REMARK  status: ('A' for Active; 'I' for Inactive)
REMARK    1  A    between atoms: C_5  and  N_6
REMARK    2  A    between atoms: C_13  and  N_14
REMARK                            x       y       z     vdW  Elec       q    Type
REMARK                         _______ _______ _______ _____ _____    ______ ____
ROOT
ATOM      1  N   UNL     1       4.782   4.790  17.883  0.00  0.00    +0.000 N 
ATOM      2  C   UNL     1       4.138   5.956  18.478  0.00  0.00    +0.000 C 
ATOM      3  C   UNL     1       2.976   5.354  19.202  0.00  0.00    +0.000 A 
ATOM      4  C   UNL     1       3.006   3.968  19.049  0.00  0.00    +0.000 A 
ATOM      5  C   UNL     1       2.049   3.113  19.568  0.00  0.00    +0.000 A 
ATOM      6  C   UNL     1       1.005   3.680  20.294  0.00  0.00    +0.000 A 
ATOM      7  C   UNL     1       0.956   5.071  20.493  0.00  0.00    +0.000 A 
ATOM      8  C   UNL     1       1.948   5.914  19.948  0.00  0.00    +0.000 A 
ATOM      9  C   UNL     1       4.185   3.610  18.272  0.00  0.00    +0.000 C 
ATOM     10  O   UNL     1       4.541   2.467  18.069  0.00  0.00    +0.000 OA
ENDROOT
BRANCH   1  15
ATOM     11  O   UNL     1       8.261   8.212  18.159  0.00  0.00    +0.000 OA
ATOM     12  C   UNL     1       7.643   7.199  17.837  0.00  0.00    +0.000 C 
ATOM     13  C   UNL     1       7.733   5.920  18.637  0.00  0.00    +0.000 C 
ATOM     14  C   UNL     1       7.303   4.702  17.839  0.00  0.00    +0.000 C 
ATOM     15  C   UNL     1       5.994   4.901  17.076  0.00  0.00    +0.000 C 
ATOM     16  C   UNL     1       5.985   6.212  16.290  0.00  0.00    +0.000 C 
ATOM     17  O   UNL     1       5.196   6.419  15.367  0.00  0.00    +0.000 OA
ATOM     18  N   UNL     1       6.830   7.201  16.731  0.00  0.00    +0.000 N 
ATOM     19  H   UNL     1       6.755   8.088  16.254  0.00  0.00    +0.000 HD
ENDBRANCH   1  15
BRANCH   8  20
ATOM     20  N   UNL     1       1.875   7.358  20.189  0.00  0.00    +0.000 N 
ATOM     21  O   UNL     1       2.100   8.114  19.234  0.00  0.00    +0.000 OA
ATOM     22  O   UNL     1       1.591   7.737  21.333  0.00  0.00    +0.000 OA
ENDBRANCH   8  20
TORSDOF 2
ENDMDL
MODEL 5
REMARK VINA RESULT:      -7.6      2.451      5.977
REMARK  Name = 
REMARK  2 active torsions:
REMARK  status: ('A' for Active; 'I' for Inactive)
REMARK    1  A    between atoms: C_5  and  N_6
REMARK    2  A    between atoms: C_13  and  N_14
REMARK                            x       y       z     vdW  Elec       q    Type
REMARK                         _______ _______ _______ _____ _____    ______ ____
ROOT
ATOM      1  N   UNL     1       3.124   4.555  18.415  0.00  0.00    +0.000 N 
ATOM      2  C   UNL     1       4.326   5.131  19.008  0.00  0.00    +0.000 C 
ATOM      3  C   UNL     1       5.369   4.848  17.973  0.00  0.00    +0.000 A 
ATOM      4  C   UNL     1       4.777   4.207  16.886  0.00  0.00    +0.000 A 
ATOM      5  C   UNL     1       5.474   3.774  15.771  0.00  0.00    +0.000 A 
ATOM      6  C   UNL     1       6.845   4.011  15.738  0.00  0.00    +0.000 A 
ATOM      7  C   UNL     1       7.473   4.680  16.803  0.00  0.00    +0.000 A 
ATOM      8  C   UNL     1       6.732   5.105  17.926  0.00  0.00    +0.000 A 
ATOM      9  C   UNL     1       3.348   4.083  17.140  0.00  0.00    +0.000 C 
ATOM     10  O   UNL     1       2.548   3.665  16.325  0.00  0.00    +0.000 OA
ENDROOT
BRANCH   1  15
ATOM     11  O   UNL     1       1.727   2.144  22.431  0.00  0.00    +0.000 OA
ATOM     12  C   UNL     1       1.729   2.917  21.475  0.00  0.00    +0.000 C 
ATOM     13  C   UNL     1       2.351   4.292  21.559  0.00  0.00    +0.000 C 
ATOM     14  C   UNL     1       1.842   5.230  20.479  0.00  0.00    +0.000 C 
ATOM     15  C   UNL     1       1.827   4.608  19.084  0.00  0.00    +0.000 C 
ATOM     16  C   UNL     1       1.178   3.224  19.083  0.00  0.00    +0.000 C 
ATOM     17  O   UNL     1       0.768   2.692  18.051  0.00  0.00    +0.000 OA
ATOM     18  N   UNL     1       1.167   2.547  20.278  0.00  0.00    +0.000 N 
ATOM     19  H   UNL     1       0.808   1.603  20.245  0.00  0.00    +0.000 HD
ENDBRANCH   1  15
BRANCH   8  20
ATOM     20  N   UNL     1       7.416   5.815  19.012  0.00  0.00    +0.000 N 
ATOM     21  O   UNL     1       7.372   5.316  20.144  0.00  0.00    +0.000 OA
ATOM     22  O   UNL     1       7.998   6.871  18.731  0.00  0.00    +0.000 OA
ENDBRANCH   8  20
TORSDOF 2
ENDMDL
MODEL 6
REMARK VINA RESULT:      -7.4      2.049      6.092
REMARK  Name = 
REMARK  2 active torsions:
REMARK  status: ('A' for Active; 'I' for Inactive)
REMARK    1  A    between atoms: C_5  and  N_6
REMARK    2  A    between atoms: C_13  and  N_14
REMARK                            x       y       z     vdW  Elec       q    Type
REMARK                         _______ _______ _______ _____ _____    ______ ____
ROOT
ATOM      1  N   UNL     1       3.647   3.910  18.186  0.00  0.00    +0.000 N 
ATOM      2  C   UNL     1       4.093   4.498  16.926  0.00  0.00    +0.000 C 
ATOM      3  C   UNL     1       5.376   5.164  17.312  0.00  0.00    +0.000 A 
ATOM      4  C   UNL     1       5.632   4.925  18.661  0.00  0.00    +0.000 A 
ATOM      5  C   UNL     1       6.725   5.432  19.342  0.00  0.00    +0.000 A 
ATOM      6  C   UNL     1       7.623   6.216  18.624  0.00  0.00    +0.000 A 
ATOM      7  C   UNL     1       7.414   6.457  17.254  0.00  0.00    +0.000 A 
ATOM      8  C   UNL     1       6.286   5.925  16.592  0.00  0.00    +0.000 A 
ATOM      9  C   UNL     1       4.573   4.077  19.194  0.00  0.00    +0.000 C 
ATOM     10  O   UNL     1       4.578   3.608  20.314  0.00  0.00    +0.000 OA
ENDROOT
BRANCH   1  15
ATOM     11  O   UNL     1       1.238   2.634  22.242  0.00  0.00    +0.000 OA
ATOM     12  C   UNL     1       1.527   2.796  21.058  0.00  0.00    +0.000 C 
ATOM     13  C   UNL     1       1.210   4.080  20.326  0.00  0.00    +0.000 C 
ATOM     14  C   UNL     1       1.206   3.906  18.818  0.00  0.00    +0.000 C 
ATOM     15  C   UNL     1       2.414   3.136  18.287  0.00  0.00    +0.000 C 
ATOM     16  C   UNL     1       2.663   1.850  19.075  0.00  0.00    +0.000 C 
ATOM     17  O   UNL     1       3.355   0.933  18.633  0.00  0.00    +0.000 OA
ATOM     18  N   UNL     1       2.166   1.805  20.355  0.00  0.00    +0.000 N 
ATOM     19  H   UNL     1       2.407   0.984  20.891  0.00  0.00    +0.000 HD
ENDBRANCH   1  15
BRANCH   8  20
ATOM     20  N   UNL     1       6.107   6.182  15.160  0.00  0.00    +0.000 N 
ATOM     21  O   UNL     1       5.210   6.964  14.822  0.00  0.00    +0.000 OA
ATOM     22  O   UNL     1       6.866   5.601  14.372  0.00  0.00    +0.000 OA
ENDBRANCH   8  20
TORSDOF 2
ENDMDL
MODEL 7
REMARK VINA RESULT:      -7.4      1.891      5.828
REMARK  Name = 
REMARK  2 active torsions:
REMARK  status: ('A' for Active; 'I' for Inactive)
REMARK    1  A    between atoms: C_5  and  N_6
REMARK    2  A    between atoms: C_13  and  N_14
REMARK                            x       y       z     vdW  Elec       q    Type
REMARK                         _______ _______ _______ _____ _____    ______ ____
ROOT
ATOM      1  N   UNL     1       3.777   3.301  18.258  0.00  0.00    +0.000 N 
ATOM      2  C   UNL     1       4.624   3.293  17.070  0.00  0.00    +0.000 C 
ATOM      3  C   UNL     1       4.735   4.748  16.738  0.00  0.00    +0.000 A 
ATOM      4  C   UNL     1       4.041   5.492  17.691  0.00  0.00    +0.000 A 
ATOM      5  C   UNL     1       3.917   6.870  17.655  0.00  0.00    +0.000 A 
ATOM      6  C   UNL     1       4.537   7.544  16.608  0.00  0.00    +0.000 A 
ATOM      7  C   UNL     1       5.271   6.831  15.643  0.00  0.00    +0.000 A 
ATOM      8  C   UNL     1       5.375   5.425  15.709  0.00  0.00    +0.000 A 
ATOM      9  C   UNL     1       3.493   4.580  18.686  0.00  0.00    +0.000 C 
ATOM     10  O   UNL     1       2.931   4.941  19.701  0.00  0.00    +0.000 OA
ENDROOT
BRANCH   1  15
ATOM     11  O   UNL     1       1.164   2.858  22.364  0.00  0.00    +0.000 OA
ATOM     12  C   UNL     1       1.786   2.580  21.341  0.00  0.00    +0.000 C 
ATOM     13  C   UNL     1       1.124   2.566  19.982  0.00  0.00    +0.000 C 
ATOM     14  C   UNL     1       1.907   1.761  18.960  0.00  0.00    +0.000 C 
ATOM     15  C   UNL     1       3.403   2.071  18.952  0.00  0.00    +0.000 C 
ATOM     16  C   UNL     1       3.996   2.061  20.360  0.00  0.00    +0.000 C 
ATOM     17  O   UNL     1       5.207   1.959  20.562  0.00  0.00    +0.000 OA
ATOM     18  N   UNL     1       3.124   2.279  21.399  0.00  0.00    +0.000 N 
ATOM     19  H   UNL     1       3.542   2.350  22.315  0.00  0.00    +0.000 HD
ENDBRANCH   1  15
BRANCH   8  20
ATOM     20  N   UNL     1       6.161   4.714  14.696  0.00  0.00    +0.000 N 
ATOM     21  O   UNL     1       5.545   4.091  13.821  0.00  0.00    +0.000 OA
ATOM     22  O   UNL     1       7.395   4.779  14.776  0.00  0.00    +0.000 OA
ENDBRANCH   8  20
TORSDOF 2
ENDMDL
MODEL 8
REMARK VINA RESULT:      -7.2      1.853      2.743
REMARK  Name = 
REMARK  2 active torsions:
REMARK  status: ('A' for Active; 'I' for Inactive)
REMARK    1  A    between atoms: C_5  and  N_6
REMARK    2  A    between atoms: C_13  and  N_14
REMARK                            x       y       z     vdW  Elec       q    Type
REMARK                         _______ _______ _______ _____ _____    ______ ____
ROOT
ATOM      1  N   UNL     1       4.738   4.932  17.818  0.00  0.00    +0.000 N 
ATOM      2  C   UNL     1       3.896   3.741  17.855  0.00  0.00    +0.000 C 
ATOM      3  C   UNL     1       2.800   4.144  18.790  0.00  0.00    +0.000 A 
ATOM      4  C   UNL     1       3.004   5.462  19.197  0.00  0.00    +0.000 A 
ATOM      5  C   UNL     1       2.186   6.129  20.093  0.00  0.00    +0.000 A 
ATOM      6  C   UNL     1       1.091   5.437  20.602  0.00  0.00    +0.000 A 
ATOM      7  C   UNL     1       0.836   4.115  20.193  0.00  0.00    +0.000 A 
ATOM      8  C   UNL     1       1.692   3.465  19.279  0.00  0.00    +0.000 A 
ATOM      9  C   UNL     1       4.191   5.978  18.530  0.00  0.00    +0.000 C 
ATOM     10  O   UNL     1       4.560   7.133  18.599  0.00  0.00    +0.000 OA
ENDROOT
BRANCH   1  15
ATOM     11  O   UNL     1       8.362   8.198  18.115  0.00  0.00    +0.000 OA
ATOM     12  C   UNL     1       7.699   7.217  17.784  0.00  0.00    +0.000 C 
ATOM     13  C   UNL     1       7.739   5.924  18.566  0.00  0.00    +0.000 C 
ATOM     14  C   UNL     1       7.252   4.736  17.755  0.00  0.00    +0.000 C 
ATOM     15  C   UNL     1       5.948   5.001  17.004  0.00  0.00    +0.000 C 
ATOM     16  C   UNL     1       5.990   6.322  16.235  0.00  0.00    +0.000 C 
ATOM     17  O   UNL     1       5.206   6.575  15.320  0.00  0.00    +0.000 OA
ATOM     18  N   UNL     1       6.880   7.268  16.683  0.00  0.00    +0.000 N 
ATOM     19  H   UNL     1       6.841   8.163  16.217  0.00  0.00    +0.000 HD
ENDBRANCH   1  15
BRANCH   8  20
ATOM     20  N   UNL     1       1.389   2.093  18.862  0.00  0.00    +0.000 N 
ATOM     21  O   UNL     1       2.273   1.238  19.004  0.00  0.00    +0.000 OA
ATOM     22  O   UNL     1       0.265   1.870  18.392  0.00  0.00    +0.000 OA
ENDBRANCH   8  20
TORSDOF 2
ENDMDL
MODEL 9
REMARK VINA RESULT:      -7.0      1.697      2.667
REMARK  Name = 
REMARK  2 active torsions:
REMARK  status: ('A' for Active; 'I' for Inactive)
REMARK    1  A    between atoms: C_5  and  N_6
REMARK    2  A    between atoms: C_13  and  N_14
REMARK                            x       y       z     vdW  Elec       q    Type
REMARK                         _______ _______ _______ _____ _____    ______ ____
ROOT
ATOM      1  N   UNL     1       5.104   4.932  18.389  0.00  0.00    +0.000 N 
ATOM      2  C   UNL     1       4.453   3.800  19.040  0.00  0.00    +0.000 C 
ATOM      3  C   UNL     1       3.220   4.419  19.618  0.00  0.00    +0.000 A 
ATOM      4  C   UNL     1       3.180   5.770  19.276  0.00  0.00    +0.000 A 
ATOM      5  C   UNL     1       2.185   6.641  19.685  0.00  0.00    +0.000 A 
ATOM      6  C   UNL     1       1.162   6.124  20.474  0.00  0.00    +0.000 A 
ATOM      7  C   UNL     1       1.153   4.760  20.817  0.00  0.00    +0.000 A 
ATOM      8  C   UNL     1       2.185   3.901  20.384  0.00  0.00    +0.000 A 
ATOM      9  C   UNL     1       4.336   6.075  18.444  0.00  0.00    +0.000 C 
ATOM     10  O   UNL     1       4.516   7.147  17.900  0.00  0.00    +0.000 OA
ENDROOT
BRANCH   1  15
ATOM     11  O   UNL     1       8.273   8.453  17.186  0.00  0.00    +0.000 OA
ATOM     12  C   UNL     1       7.763   7.345  17.344  0.00  0.00    +0.000 C 
ATOM     13  C   UNL     1       7.887   6.587  18.646  0.00  0.00    +0.000 C 
ATOM     14  C   UNL     1       7.619   5.101  18.483  0.00  0.00    +0.000 C 
ATOM     15  C   UNL     1       6.365   4.791  17.667  0.00  0.00    +0.000 C 
ATOM     16  C   UNL     1       6.318   5.593  16.366  0.00  0.00    +0.000 C 
ATOM     17  O   UNL     1       5.594   5.273  15.423  0.00  0.00    +0.000 OA
ATOM     18  N   UNL     1       7.046   6.758  16.332  0.00  0.00    +0.000 N 
ATOM     19  H   UNL     1       6.942   7.317  15.498  0.00  0.00    +0.000 HD
ENDBRANCH   1  15
BRANCH   8  20
ATOM     20  N   UNL     1       2.137   2.481  20.746  0.00  0.00    +0.000 N 
ATOM     21  O   UNL     1       2.359   2.178  21.926  0.00  0.00    +0.000 OA
ATOM     22  O   UNL     1       1.876   1.668  19.849  0.00  0.00    +0.000 OA
ENDBRANCH   8  20
TORSDOF 2
ENDMDL
