MODEL 1
REMARK VINA RESULT:      -8.1      0.000      0.000
REMARK  Name = 
REMARK  8 active torsions:
REMARK  status: ('A' for Active; 'I' for Inactive)
REMARK    1  A    between atoms: C_1  and  C_2
REMARK    2  A    between atoms: C_2  and  N_3
REMARK    3  A    between atoms: C_9  and  C_10
REMARK    4  A    between atoms: C_10  and  C_11
REMARK    5  A    between atoms: C_11  and  C_12
REMARK    6  A    between atoms: N_14  and  C_15
REMARK    7  A    between atoms: C_18  and  N_19
REMARK    8  A    between atoms: C_20  and  C_21
REMARK                            x       y       z     vdW  Elec       q    Type
REMARK                         _______ _______ _______ _____ _____    ______ ____
ROOT
ATOM      1  C   UNL     1       1.858   4.882  20.750  0.00  0.00    +0.000 C 
ATOM      2  O   UNL     1       0.724   4.645  20.342  0.00  0.00    +0.000 OA
ATOM      3  N   UNL     1       2.530   6.091  20.638  0.00  0.00    +0.000 N 
ATOM      4  H   UNL     1       3.522   6.093  20.840  0.00  0.00    +0.000 HD
ENDROOT
BRANCH   3   5
ATOM      5  C   UNL     1       2.011   7.236  19.993  0.00  0.00    +0.000 A 
ATOM      6  C   UNL     1       2.292   7.533  18.666  0.00  0.00    +0.000 A 
ATOM      7  C   UNL     1       1.924   8.760  18.118  0.00  0.00    +0.000 A 
ATOM      8  C   UNL     1       1.237   9.712  18.864  0.00  0.00    +0.000 A 
ATOM      9  C   UNL     1       0.829   9.357  20.157  0.00  0.00    +0.000 A 
ATOM     10  C   UNL     1       1.218   8.127  20.722  0.00  0.00    +0.000 A 
BRANCH   8  11
ATOM     11  N   UNL     1       0.996  11.025  18.375  0.00  0.00    +0.000 N 
ATOM     12  C   UNL     1       1.250  12.200  19.070  0.00  0.00    +0.000 C 
ATOM     13  C   UNL     1       0.797  13.468  18.393  0.00  0.00    +0.000 C 
ATOM     14  O   UNL     1       1.849  12.296  20.145  0.00  0.00    +0.000 OA
ATOM     15  H   UNL     1       0.585  11.096  17.452  0.00  0.00    +0.000 HD
ENDBRANCH   8  11
ENDBRANCH   3   5
BRANCH   1  16
ATOM     16  C   UNL     1       2.659   3.809  21.458  0.00  0.00    +0.000 C 
BRANCH  16  17
ATOM     17  C   UNL     1       2.972   2.682  20.470  0.00  0.00    +0.000 C 
BRANCH  17  24
ATOM     18  N   UNL     1       6.505   4.709  17.480  0.00  0.00    +0.000 N 
ATOM     19  C   UNL     1       6.509   4.994  16.137  0.00  0.00    +0.000 A 
ATOM     20  C   UNL     1       5.303   4.595  15.613  0.00  0.00    +0.000 A 
ATOM     21  C   UNL     1       4.528   4.060  16.679  0.00  0.00    +0.000 A 
ATOM     22  C   UNL     1       3.236   3.506  16.752  0.00  0.00    +0.000 A 
ATOM     23  C   UNL     1       2.740   3.067  17.985  0.00  0.00    +0.000 A 
ATOM     24  C   UNL     1       3.509   3.171  19.148  0.00  0.00    +0.000 A 
ATOM     25  C   UNL     1       4.805   3.717  19.088  0.00  0.00    +0.000 A 
ATOM     26  C   UNL     1       5.294   4.151  17.844  0.00  0.00    +0.000 A 
BRANCH  18  28
ATOM     27  C   UNL     1       7.825   6.437  18.644  0.00  0.00    +0.000 C 
ATOM     28  C   UNL     1       7.634   4.958  18.361  0.00  0.00    +0.000 C 
ENDBRANCH  18  28
ENDBRANCH  17  24
ENDBRANCH  16  17
ENDBRANCH   1  16
TORSDOF 6
ENDMDL
MODEL 2
REMARK VINA RESULT:      -8.1      0.518      1.071
REMARK  Name = 
REMARK  8 active torsions:
REMARK  status: ('A' for Active; 'I' for Inactive)
REMARK    1  A    between atoms: C_1  and  C_2
REMARK    2  A    between atoms: C_2  and  N_3
REMARK    3  A    between atoms: C_9  and  C_10
REMARK    4  A    between atoms: C_10  and  C_11
REMARK    5  A    between atoms: C_11  and  C_12
REMARK    6  A    between atoms: N_14  and  C_15
REMARK    7  A    between atoms: C_18  and  N_19
REMARK    8  A    between atoms: C_20  and  C_21
REMARK                            x       y       z     vdW  Elec       q    Type
REMARK                         _______ _______ _______ _____ _____    ______ ____
ROOT
ATOM      1  C   UNL     1       1.795   4.787  20.676  0.00  0.00    +0.000 C 
ATOM      2  O   UNL     1       0.640   4.676  20.274  0.00  0.00    +0.000 OA
ATOM      3  N   UNL     1       2.545   5.954  20.694  0.00  0.00    +0.000 N 
ATOM      4  H   UNL     1       3.539   5.868  20.868  0.00  0.00    +0.000 HD
ENDROOT
BRANCH   3   5
ATOM      5  C   UNL     1       2.092   7.202  20.210  0.00  0.00    +0.000 A 
ATOM      6  C   UNL     1       1.336   8.070  20.988  0.00  0.00    +0.000 A 
ATOM      7  C   UNL     1       0.746   9.200  20.424  0.00  0.00    +0.000 A 
ATOM      8  C   UNL     1       0.918   9.515  19.080  0.00  0.00    +0.000 A 
ATOM      9  C   UNL     1       1.795   8.719  18.330  0.00  0.00    +0.000 A 
ATOM     10  C   UNL     1       2.376   7.564  18.891  0.00  0.00    +0.000 A 
BRANCH   8  11
ATOM     11  N   UNL     1       0.198  10.568  18.453  0.00  0.00    +0.000 N 
ATOM     12  C   UNL     1       0.338  11.919  18.739  0.00  0.00    +0.000 C 
ATOM     13  C   UNL     1      -0.622  12.839  18.029  0.00  0.00    +0.000 C 
ATOM     14  O   UNL     1       1.197  12.424  19.467  0.00  0.00    +0.000 OA
ATOM     15  H   UNL     1      -0.486  10.296  17.757  0.00  0.00    +0.000 HD
ENDBRANCH   8  11
ENDBRANCH   3   5
BRANCH   1  16
ATOM     16  C   UNL     1       2.536   3.585  21.224  0.00  0.00    +0.000 C 
BRANCH  16  17
ATOM     17  C   UNL     1       2.746   2.568  20.100  0.00  0.00    +0.000 C 
BRANCH  17  24
ATOM     18  N   UNL     1       6.466   4.874  17.574  0.00  0.00    +0.000 N 
ATOM     19  C   UNL     1       6.580   5.249  16.258  0.00  0.00    +0.000 A 
ATOM     20  C   UNL     1       5.436   4.858  15.604  0.00  0.00    +0.000 A 
ATOM     21  C   UNL     1       4.587   4.234  16.560  0.00  0.00    +0.000 A 
ATOM     22  C   UNL     1       3.310   3.647  16.481  0.00  0.00    +0.000 A 
ATOM     23  C   UNL     1       2.721   3.114  17.633  0.00  0.00    +0.000 A 
ATOM     24  C   UNL     1       3.383   3.157  18.865  0.00  0.00    +0.000 A 
ATOM     25  C   UNL     1       4.662   3.736  18.956  0.00  0.00    +0.000 A 
ATOM     26  C   UNL     1       5.245   4.264  17.791  0.00  0.00    +0.000 A 
BRANCH  18  28
ATOM     27  C   UNL     1       7.914   6.547  18.663  0.00  0.00    +0.000 C 
ATOM     28  C   UNL     1       7.507   5.088  18.567  0.00  0.00    +0.000 C 
ENDBRANCH  18  28
ENDBRANCH  17  24
ENDBRANCH  16  17
ENDBRANCH   1  16
TORSDOF 6
ENDMDL
MODEL 3
REMARK VINA RESULT:      -8.1      1.005      1.005
REMARK  Name = 
REMARK  8 active torsions:
REMARK  status: ('A' for Active; 'I' for Inactive)
REMARK    1  A    between atoms: C_1  and  C_2
REMARK    2  A    between atoms: C_2  and  N_3
REMARK    3  A    between atoms: C_9  and  C_10
REMARK    4  A    between atoms: C_10  and  C_11
REMARK    5  A    between atoms: C_11  and  C_12
REMARK    6  A    between atoms: N_14  and  C_15
REMARK    7  A    between atoms: C_18  and  N_19
REMARK    8  A    between atoms: C_20  and  C_21
REMARK                            x       y       z     vdW  Elec       q    Type
REMARK                         _______ _______ _______ _____ _____    ______ ____
ROOT
ATOM      1  C   UNL     1       1.783   4.720  20.781  0.00  0.00    +0.000 C 
ATOM      2  O   UNL     1       0.658   4.497  20.343  0.00  0.00    +0.000 OA
ATOM      3  N   UNL     1       2.417   5.954  20.815  0.00  0.00    +0.000 N 
ATOM      4  H   UNL     1       3.408   5.964  21.022  0.00  0.00    +0.000 HD
ENDROOT
BRANCH   3   5
ATOM      5  C   UNL     1       1.862   7.150  20.308  0.00  0.00    +0.000 A 
ATOM      6  C   UNL     1       2.093   7.584  19.008  0.00  0.00    +0.000 A 
ATOM      7  C   UNL     1       1.692   8.854  18.600  0.00  0.00    +0.000 A 
ATOM      8  C   UNL     1       1.019   9.715  19.461  0.00  0.00    +0.000 A 
ATOM      9  C   UNL     1       0.660   9.225  20.724  0.00  0.00    +0.000 A 
ATOM     10  C   UNL     1       1.083   7.950  21.148  0.00  0.00    +0.000 A 
BRANCH   8  11
ATOM     11  N   UNL     1       0.744  11.067  19.116  0.00  0.00    +0.000 N 
ATOM     12  C   UNL     1      -0.484  11.554  18.693  0.00  0.00    +0.000 C 
ATOM     13  C   UNL     1      -0.501  12.999  18.267  0.00  0.00    +0.000 C 
ATOM     14  O   UNL     1      -1.551  10.933  18.687  0.00  0.00    +0.000 OA
ATOM     15  H   UNL     1       1.523  11.713  19.166  0.00  0.00    +0.000 HD
ENDBRANCH   8  11
ENDBRANCH   3   5
BRANCH   1  16
ATOM     16  C   UNL     1       2.617   3.597  21.362  0.00  0.00    +0.000 C 
BRANCH  16  17
ATOM     17  C   UNL     1       2.948   2.593  20.255  0.00  0.00    +0.000 C 
BRANCH  17  24
ATOM     18  N   UNL     1       6.458   5.261  17.787  0.00  0.00    +0.000 N 
ATOM     19  C   UNL     1       6.570   5.620  16.467  0.00  0.00    +0.000 A 
ATOM     20  C   UNL     1       5.500   5.087  15.789  0.00  0.00    +0.000 A 
ATOM     21  C   UNL     1       4.698   4.389  16.733  0.00  0.00    +0.000 A 
ATOM     22  C   UNL     1       3.500   3.657  16.631  0.00  0.00    +0.000 A 
ATOM     23  C   UNL     1       2.940   3.083  17.777  0.00  0.00    +0.000 A 
ATOM     24  C   UNL     1       3.552   3.226  19.026  0.00  0.00    +0.000 A 
ATOM     25  C   UNL     1       4.753   3.951  19.141  0.00  0.00    +0.000 A 
ATOM     26  C   UNL     1       5.309   4.519  17.982  0.00  0.00    +0.000 A 
BRANCH  18  28
ATOM     27  C   UNL     1       8.078   6.963  18.539  0.00  0.00    +0.000 C 
ATOM     28  C   UNL     1       7.435   5.614  18.805  0.00  0.00    +0.000 C 
ENDBRANCH  18  28
ENDBRANCH  17  24
ENDBRANCH  16  17
ENDBRANCH   1  16
TORSDOF 6
ENDMDL
MODEL 4
REMARK VINA RESULT:      -7.8      3.966      5.671
REMARK  Name = 
REMARK  8 active torsions:
REMARK  status: ('A' for Active; 'I' for Inactive)
REMARK    1  A    between atoms: C_1  and  C_2
REMARK    2  A    between atoms: C_2  and  N_3
REMARK    3  A    between atoms: C_9  and  C_10
REMARK    4  A    between atoms: C_10  and  C_11
REMARK    5  A    between atoms: C_11  and  C_12
REMARK    6  A    between atoms: N_14  and  C_15
REMARK    7  A    between atoms: C_18  and  N_19
REMARK    8  A    between atoms: C_20  and  C_21
REMARK                            x       y       z     vdW  Elec       q    Type
REMARK                         _______ _______ _______ _____ _____    ______ ____
ROOT
ATOM      1  C   UNL     1       0.892  10.275  18.020  0.00  0.00    +0.000 C 
ATOM      2  O   UNL     1       0.935  11.424  18.454  0.00  0.00    +0.000 OA
ATOM      3  N   UNL     1      -0.241   9.616  17.565  0.00  0.00    +0.000 N 
ATOM      4  H   UNL     1      -0.173   8.617  17.419  0.00  0.00    +0.000 HD
ENDROOT
BRANCH   3   5
ATOM      5  C   UNL     1      -1.541  10.169  17.568  0.00  0.00    +0.000 A 
ATOM      6  C   UNL     1      -2.392  10.074  16.474  0.00  0.00    +0.000 A 
ATOM      7  C   UNL     1      -3.587  10.789  16.437  0.00  0.00    +0.000 A 
ATOM      8  C   UNL     1      -3.986  11.592  17.501  0.00  0.00    +0.000 A 
ATOM      9  C   UNL     1      -3.199  11.577  18.661  0.00  0.00    +0.000 A 
ATOM     10  C   UNL     1      -1.980  10.872  18.694  0.00  0.00    +0.000 A 
BRANCH   8  11
ATOM     11  N   UNL     1      -5.116  12.451  17.418  0.00  0.00    +0.000 N 
ATOM     12  C   UNL     1      -6.426  12.083  17.694  0.00  0.00    +0.000 C 
ATOM     13  C   UNL     1      -7.470  13.134  17.417  0.00  0.00    +0.000 C 
ATOM     14  O   UNL     1      -6.794  11.013  18.187  0.00  0.00    +0.000 OA
ATOM     15  H   UNL     1      -4.942  13.400  17.110  0.00  0.00    +0.000 HD
ENDBRANCH   8  11
ENDBRANCH   3   5
BRANCH   1  16
ATOM     16  C   UNL     1       2.152   9.439  17.936  0.00  0.00    +0.000 C 
BRANCH  16  17
ATOM     17  C   UNL     1       2.050   8.276  18.926  0.00  0.00    +0.000 C 
BRANCH  17  24
ATOM     18  N   UNL     1       2.282   3.259  18.374  0.00  0.00    +0.000 N 
ATOM     19  C   UNL     1       3.186   2.453  17.727  0.00  0.00    +0.000 A 
ATOM     20  C   UNL     1       4.134   3.260  17.145  0.00  0.00    +0.000 A 
ATOM     21  C   UNL     1       3.805   4.607  17.461  0.00  0.00    +0.000 A 
ATOM     22  C   UNL     1       4.397   5.846  17.150  0.00  0.00    +0.000 A 
ATOM     23  C   UNL     1       3.823   7.027  17.632  0.00  0.00    +0.000 A 
ATOM     24  C   UNL     1       2.669   6.996  18.422  0.00  0.00    +0.000 A 
ATOM     25  C   UNL     1       2.064   5.765  18.736  0.00  0.00    +0.000 A 
ATOM     26  C   UNL     1       2.647   4.585  18.242  0.00  0.00    +0.000 A 
BRANCH  18  28
ATOM     27  C   UNL     1       1.295   2.772  20.581  0.00  0.00    +0.000 C 
ATOM     28  C   UNL     1       1.111   2.757  19.075  0.00  0.00    +0.000 C 
ENDBRANCH  18  28
ENDBRANCH  17  24
ENDBRANCH  16  17
ENDBRANCH   1  16
TORSDOF 6
ENDMDL
MODEL 5
REMARK VINA RESULT:      -7.8      5.707      9.656
REMARK  Name = 
REMARK  8 active torsions:
REMARK  status: ('A' for Active; 'I' for Inactive)
REMARK    1  A    between atoms: C_1  and  C_2
REMARK    2  A    between atoms: C_2  and  N_3
REMARK    3  A    between atoms: C_9  and  C_10
REMARK    4  A    between atoms: C_10  and  C_11
REMARK    5  A    between atoms: C_11  and  C_12
REMARK    6  A    between atoms: N_14  and  C_15
REMARK    7  A    between atoms: C_18  and  N_19
REMARK    8  A    between atoms: C_20  and  C_21
REMARK                            x       y       z     vdW  Elec       q    Type
REMARK                         _______ _______ _______ _____ _____    ______ ____
ROOT
ATOM      1  C   UNL     1       8.079   8.336  18.038  0.00  0.00    +0.000 C 
ATOM      2  O   UNL     1       8.477   7.539  18.884  0.00  0.00    +0.000 OA
ATOM      3  N   UNL     1       7.059   8.114  17.124  0.00  0.00    +0.000 N 
ATOM      4  H   UNL     1       6.963   8.774  16.362  0.00  0.00    +0.000 HD
ENDROOT
BRANCH   3   5
ATOM      5  C   UNL     1       6.340   6.904  17.009  0.00  0.00    +0.000 A 
ATOM      6  C   UNL     1       4.964   6.837  17.188  0.00  0.00    +0.000 A 
ATOM      7  C   UNL     1       4.314   5.606  17.256  0.00  0.00    +0.000 A 
ATOM      8  C   UNL     1       5.009   4.409  17.114  0.00  0.00    +0.000 A 
ATOM      9  C   UNL     1       6.371   4.480  16.791  0.00  0.00    +0.000 A 
ATOM     10  C   UNL     1       7.035   5.721  16.743  0.00  0.00    +0.000 A 
BRANCH   8  11
ATOM     11  N   UNL     1       4.394   3.147  17.339  0.00  0.00    +0.000 N 
ATOM     12  C   UNL     1       4.112   2.602  18.584  0.00  0.00    +0.000 C 
ATOM     13  C   UNL     1       3.569   1.196  18.572  0.00  0.00    +0.000 C 
ATOM     14  O   UNL     1       4.214   3.177  19.671  0.00  0.00    +0.000 OA
ATOM     15  H   UNL     1       4.169   2.601  16.517  0.00  0.00    +0.000 HD
ENDBRANCH   8  11
ENDBRANCH   3   5
BRANCH   1  16
ATOM     16  C   UNL     1       8.705   9.710  17.923  0.00  0.00    +0.000 C 
BRANCH  16  17
ATOM     17  C   UNL     1       9.279  10.116  19.283  0.00  0.00    +0.000 C 
BRANCH  17  24
ATOM     18  N   UNL     1       9.502  15.088  18.405  0.00  0.00    +0.000 N 
ATOM     19  C   UNL     1      10.509  16.002  18.590  0.00  0.00    +0.000 A 
ATOM     20  C   UNL     1      11.586  15.345  19.134  0.00  0.00    +0.000 A 
ATOM     21  C   UNL     1      11.228  13.976  19.274  0.00  0.00    +0.000 A 
ATOM     22  C   UNL     1      11.907  12.843  19.763  0.00  0.00    +0.000 A 
ATOM     23  C   UNL     1      11.269  11.598  19.757  0.00  0.00    +0.000 A 
ATOM     24  C   UNL     1       9.964  11.460  19.272  0.00  0.00    +0.000 A 
ATOM     25  C   UNL     1       9.272  12.585  18.786  0.00  0.00    +0.000 A 
ATOM     26  C   UNL     1       9.922  13.832  18.800  0.00  0.00    +0.000 A 
BRANCH  18  28
ATOM     27  C   UNL     1       7.508  16.509  18.699  0.00  0.00    +0.000 C 
ATOM     28  C   UNL     1       8.189  15.427  17.881  0.00  0.00    +0.000 C 
ENDBRANCH  18  28
ENDBRANCH  17  24
ENDBRANCH  16  17
ENDBRANCH   1  16
TORSDOF 6
ENDMDL
MODEL 6
REMARK VINA RESULT:      -7.7      5.355      9.096
REMARK  Name = 
REMARK  8 active torsions:
REMARK  status: ('A' for Active; 'I' for Inactive)
REMARK    1  A    between atoms: C_1  and  C_2
REMARK    2  A    between atoms: C_2  and  N_3
REMARK    3  A    between atoms: C_9  and  C_10
REMARK    4  A    between atoms: C_10  and  C_11
REMARK    5  A    between atoms: C_11  and  C_12
REMARK    6  A    between atoms: N_14  and  C_15
REMARK    7  A    between atoms: C_18  and  N_19
REMARK    8  A    between atoms: C_20  and  C_21
REMARK                            x       y       z     vdW  Elec       q    Type
REMARK                         _______ _______ _______ _____ _____    ______ ____
ROOT
ATOM      1  C   UNL     1       7.788   7.843  17.874  0.00  0.00    +0.000 C 
ATOM      2  O   UNL     1       8.374   7.172  18.720  0.00  0.00    +0.000 OA
ATOM      3  N   UNL     1       6.622   7.485  17.213  0.00  0.00    +0.000 N 
ATOM      4  H   UNL     1       6.354   8.037  16.408  0.00  0.00    +0.000 HD
ENDROOT
BRANCH   3   5
ATOM      5  C   UNL     1       5.947   6.257  17.393  0.00  0.00    +0.000 A 
ATOM      6  C   UNL     1       5.507   5.487  16.324  0.00  0.00    +0.000 A 
ATOM      7  C   UNL     1       4.683   4.383  16.534  0.00  0.00    +0.000 A 
ATOM      8  C   UNL     1       4.299   3.995  17.814  0.00  0.00    +0.000 A 
ATOM      9  C   UNL     1       4.857   4.685  18.899  0.00  0.00    +0.000 A 
ATOM     10  C   UNL     1       5.674   5.814  18.690  0.00  0.00    +0.000 A 
BRANCH   8  11
ATOM     11  N   UNL     1       3.334   2.976  18.038  0.00  0.00    +0.000 N 
ATOM     12  C   UNL     1       2.012   3.188  18.402  0.00  0.00    +0.000 C 
ATOM     13  C   UNL     1       1.212   1.946  18.702  0.00  0.00    +0.000 C 
ATOM     14  O   UNL     1       1.435   4.278  18.449  0.00  0.00    +0.000 OA
ATOM     15  H   UNL     1       3.656   2.020  17.941  0.00  0.00    +0.000 HD
ENDBRANCH   8  11
ENDBRANCH   3   5
BRANCH   1  16
ATOM     16  C   UNL     1       8.320   9.202  17.467  0.00  0.00    +0.000 C 
BRANCH  16  17
ATOM     17  C   UNL     1       8.991   9.861  18.675  0.00  0.00    +0.000 C 
BRANCH  17  24
ATOM     18  N   UNL     1       8.933  14.852  17.890  0.00  0.00    +0.000 N 
ATOM     19  C   UNL     1       9.935  15.739  17.582  0.00  0.00    +0.000 A 
ATOM     20  C   UNL     1      11.117  15.042  17.527  0.00  0.00    +0.000 A 
ATOM     21  C   UNL     1      10.824  13.676  17.797  0.00  0.00    +0.000 A 
ATOM     22  C   UNL     1      11.616  12.514  17.875  0.00  0.00    +0.000 A 
ATOM     23  C   UNL     1      11.012  11.284  18.156  0.00  0.00    +0.000 A 
ATOM     24  C   UNL     1       9.631  11.190  18.359  0.00  0.00    +0.000 A 
ATOM     25  C   UNL     1       8.830  12.344  18.289  0.00  0.00    +0.000 A 
ATOM     26  C   UNL     1       9.448  13.576  18.011  0.00  0.00    +0.000 A 
BRANCH  18  28
ATOM     27  C   UNL     1       7.205  15.493  19.529  0.00  0.00    +0.000 C 
ATOM     28  C   UNL     1       7.543  15.237  18.072  0.00  0.00    +0.000 C 
ENDBRANCH  18  28
ENDBRANCH  17  24
ENDBRANCH  16  17
ENDBRANCH   1  16
TORSDOF 6
ENDMDL
MODEL 7
REMARK VINA RESULT:      -7.7      2.459      3.951
REMARK  Name = 
REMARK  8 active torsions:
REMARK  status: ('A' for Active; 'I' for Inactive)
REMARK    1  A    between atoms: C_1  and  C_2
REMARK    2  A    between atoms: C_2  and  N_3
REMARK    3  A    between atoms: C_9  and  C_10
REMARK    4  A    between atoms: C_10  and  C_11
REMARK    5  A    between atoms: C_11  and  C_12
REMARK    6  A    between atoms: N_14  and  C_15
REMARK    7  A    between atoms: C_18  and  N_19
REMARK    8  A    between atoms: C_20  and  C_21
REMARK                            x       y       z     vdW  Elec       q    Type
REMARK                         _______ _______ _______ _____ _____    ______ ____
ROOT
ATOM      1  C   UNL     1       2.449   4.527  17.593  0.00  0.00    +0.000 C 
ATOM      2  O   UNL     1       1.236   4.546  17.400  0.00  0.00    +0.000 OA
ATOM      3  N   UNL     1       3.191   5.514  18.226  0.00  0.00    +0.000 N 
ATOM      4  H   UNL     1       4.199   5.463  18.147  0.00  0.00    +0.000 HD
ENDROOT
BRANCH   3   5
ATOM      5  C   UNL     1       2.653   6.723  18.720  0.00  0.00    +0.000 A 
ATOM      6  C   UNL     1       2.245   6.871  20.040  0.00  0.00    +0.000 A 
ATOM      7  C   UNL     1       1.547   8.006  20.446  0.00  0.00    +0.000 A 
ATOM      8  C   UNL     1       1.265   9.041  19.560  0.00  0.00    +0.000 A 
ATOM      9  C   UNL     1       1.799   8.957  18.267  0.00  0.00    +0.000 A 
ATOM     10  C   UNL     1       2.486   7.801  17.847  0.00  0.00    +0.000 A 
BRANCH   8  11
ATOM     11  N   UNL     1       0.419  10.128  19.913  0.00  0.00    +0.000 N 
ATOM     12  C   UNL     1      -0.636  10.606  19.148  0.00  0.00    +0.000 C 
ATOM     13  C   UNL     1      -1.311  11.847  19.671  0.00  0.00    +0.000 C 
ATOM     14  O   UNL     1      -1.091  10.083  18.126  0.00  0.00    +0.000 OA
ATOM     15  H   UNL     1       0.627  10.598  20.785  0.00  0.00    +0.000 HD
ENDBRANCH   8  11
ENDBRANCH   3   5
BRANCH   1  16
ATOM     16  C   UNL     1       3.282   3.349  17.131  0.00  0.00    +0.000 C 
BRANCH  16  17
ATOM     17  C   UNL     1       4.746   3.592  17.503  0.00  0.00    +0.000 C 
BRANCH  17  24
ATOM     18  N   UNL     1       6.237   3.604  12.675  0.00  0.00    +0.000 N 
ATOM     19  C   UNL     1       7.198   4.332  12.019  0.00  0.00    +0.000 A 
ATOM     20  C   UNL     1       7.772   5.192  12.924  0.00  0.00    +0.000 A 
ATOM     21  C   UNL     1       7.148   4.969  14.183  0.00  0.00    +0.000 A 
ATOM     22  C   UNL     1       7.315   5.539  15.459  0.00  0.00    +0.000 A 
ATOM     23  C   UNL     1       6.536   5.084  16.528  0.00  0.00    +0.000 A 
ATOM     24  C   UNL     1       5.592   4.068  16.348  0.00  0.00    +0.000 A 
ATOM     25  C   UNL     1       5.411   3.493  15.076  0.00  0.00    +0.000 A 
ATOM     26  C   UNL     1       6.197   3.961  14.009  0.00  0.00    +0.000 A 
BRANCH  18  28
ATOM     27  C   UNL     1       4.215   3.252  11.308  0.00  0.00    +0.000 C 
ATOM     28  C   UNL     1       5.390   2.616  12.026  0.00  0.00    +0.000 C 
ENDBRANCH  18  28
ENDBRANCH  17  24
ENDBRANCH  16  17
ENDBRANCH   1  16
TORSDOF 6
ENDMDL
MODEL 8
REMARK VINA RESULT:      -7.6      5.268      7.337
REMARK  Name = 
REMARK  8 active torsions:
REMARK  status: ('A' for Active; 'I' for Inactive)
REMARK    1  A    between atoms: C_1  and  C_2
REMARK    2  A    between atoms: C_2  and  N_3
REMARK    3  A    between atoms: C_9  and  C_10
REMARK    4  A    between atoms: C_10  and  C_11
REMARK    5  A    between atoms: C_11  and  C_12
REMARK    6  A    between atoms: N_14  and  C_15
REMARK    7  A    between atoms: C_18  and  N_19
REMARK    8  A    between atoms: C_20  and  C_21
REMARK                            x       y       z     vdW  Elec       q    Type
REMARK                         _______ _______ _______ _____ _____    ______ ____
ROOT
ATOM      1  C   UNL     1       8.160   8.612  18.167  0.00  0.00    +0.000 C 
ATOM      2  O   UNL     1       7.642   9.323  17.310  0.00  0.00    +0.000 OA
ATOM      3  N   UNL     1       9.025   9.036  19.166  0.00  0.00    +0.000 N 
ATOM      4  H   UNL     1       9.527   8.325  19.682  0.00  0.00    +0.000 HD
ENDROOT
BRANCH   3   5
ATOM      5  C   UNL     1       9.472  10.368  19.322  0.00  0.00    +0.000 A 
ATOM      6  C   UNL     1       9.995  11.104  18.267  0.00  0.00    +0.000 A 
ATOM      7  C   UNL     1      10.599  12.339  18.492  0.00  0.00    +0.000 A 
ATOM      8  C   UNL     1      10.672  12.892  19.767  0.00  0.00    +0.000 A 
ATOM      9  C   UNL     1      10.020  12.216  20.807  0.00  0.00    +0.000 A 
ATOM     10  C   UNL     1       9.427  10.957  20.588  0.00  0.00    +0.000 A 
BRANCH   8  11
ATOM     11  N   UNL     1      11.422  14.068  20.039  0.00  0.00    +0.000 N 
ATOM     12  C   UNL     1      11.024  15.362  19.737  0.00  0.00    +0.000 C 
ATOM     13  C   UNL     1      12.042  16.439  20.011  0.00  0.00    +0.000 C 
ATOM     14  O   UNL     1       9.913  15.705  19.321  0.00  0.00    +0.000 OA
ATOM     15  H   UNL     1      12.329  13.936  20.471  0.00  0.00    +0.000 HD
ENDBRANCH   8  11
ENDBRANCH   3   5
BRANCH   1  16
ATOM     16  C   UNL     1       7.872   7.126  18.209  0.00  0.00    +0.000 C 
BRANCH  16  17
ATOM     17  C   UNL     1       7.381   6.671  16.833  0.00  0.00    +0.000 C 
BRANCH  17  24
ATOM     18  N   UNL     1       2.822   5.277  18.508  0.00  0.00    +0.000 N 
ATOM     19  C   UNL     1       2.032   4.194  18.211  0.00  0.00    +0.000 A 
ATOM     20  C   UNL     1       2.684   3.440  17.266  0.00  0.00    +0.000 A 
ATOM     21  C   UNL     1       3.924   4.079  16.986  0.00  0.00    +0.000 A 
ATOM     22  C   UNL     1       4.993   3.778  16.121  0.00  0.00    +0.000 A 
ATOM     23  C   UNL     1       6.110   4.621  16.082  0.00  0.00    +0.000 A 
ATOM     24  C   UNL     1       6.179   5.760  16.891  0.00  0.00    +0.000 A 
ATOM     25  C   UNL     1       5.115   6.074  17.756  0.00  0.00    +0.000 A 
ATOM     26  C   UNL     1       3.997   5.223  17.784  0.00  0.00    +0.000 A 
BRANCH  18  28
ATOM     27  C   UNL     1       1.711   5.768  20.655  0.00  0.00    +0.000 C 
ATOM     28  C   UNL     1       2.439   6.322  19.445  0.00  0.00    +0.000 C 
ENDBRANCH  18  28
ENDBRANCH  17  24
ENDBRANCH  16  17
ENDBRANCH   1  16
TORSDOF 6
ENDMDL
MODEL 9
REMARK VINA RESULT:      -7.6      2.834      8.611
REMARK  Name = 
REMARK  8 active torsions:
REMARK  status: ('A' for Active; 'I' for Inactive)
REMARK    1  A    between atoms: C_1  and  C_2
REMARK    2  A    between atoms: C_2  and  N_3
REMARK    3  A    between atoms: C_9  and  C_10
REMARK    4  A    between atoms: C_10  and  C_11
REMARK    5  A    between atoms: C_11  and  C_12
REMARK    6  A    between atoms: N_14  and  C_15
REMARK    7  A    between atoms: C_18  and  N_19
REMARK    8  A    between atoms: C_20  and  C_21
REMARK                            x       y       z     vdW  Elec       q    Type
REMARK                         _______ _______ _______ _____ _____    ______ ____
ROOT
ATOM      1  C   UNL     1       1.844   7.211  20.258  0.00  0.00    +0.000 C 
ATOM      2  O   UNL     1       2.117   8.009  19.365  0.00  0.00    +0.000 OA
ATOM      3  N   UNL     1       2.298   5.903  20.350  0.00  0.00    +0.000 N 
ATOM      4  H   UNL     1       1.847   5.298  21.025  0.00  0.00    +0.000 HD
ENDROOT
BRANCH   3   5
ATOM      5  C   UNL     1       3.127   5.276  19.392  0.00  0.00    +0.000 A 
ATOM      6  C   UNL     1       4.510   5.398  19.414  0.00  0.00    +0.000 A 
ATOM      7  C   UNL     1       5.283   4.930  18.353  0.00  0.00    +0.000 A 
ATOM      8  C   UNL     1       4.704   4.298  17.257  0.00  0.00    +0.000 A 
ATOM      9  C   UNL     1       3.326   4.048  17.300  0.00  0.00    +0.000 A 
ATOM     10  C   UNL     1       2.539   4.539  18.361  0.00  0.00    +0.000 A 
BRANCH   8  11
ATOM     11  N   UNL     1       5.454   3.959  16.097  0.00  0.00    +0.000 N 
ATOM     12  C   UNL     1       5.784   4.832  15.071  0.00  0.00    +0.000 C 
ATOM     13  C   UNL     1       6.480   4.213  13.886  0.00  0.00    +0.000 C 
ATOM     14  O   UNL     1       5.607   6.054  15.068  0.00  0.00    +0.000 OA
ATOM     15  H   UNL     1       5.747   2.993  16.015  0.00  0.00    +0.000 HD
ENDBRANCH   8  11
ENDBRANCH   3   5
BRANCH   1  16
ATOM     16  C   UNL     1       0.941   7.619  21.404  0.00  0.00    +0.000 C 
BRANCH  16  17
ATOM     17  C   UNL     1       1.385   8.985  21.931  0.00  0.00    +0.000 C 
BRANCH  17  24
ATOM     18  N   UNL     1      -1.568  12.561  19.923  0.00  0.00    +0.000 N 
ATOM     19  C   UNL     1      -2.590  13.305  20.456  0.00  0.00    +0.000 A 
ATOM     20  C   UNL     1      -2.770  12.909  21.759  0.00  0.00    +0.000 A 
ATOM     21  C   UNL     1      -1.812  11.894  22.035  0.00  0.00    +0.000 A 
ATOM     22  C   UNL     1      -1.519  11.125  23.179  0.00  0.00    +0.000 A 
ATOM     23  C   UNL     1      -0.480  10.189  23.136  0.00  0.00    +0.000 A 
ATOM     24  C   UNL     1       0.275  10.006  21.973  0.00  0.00    +0.000 A 
ATOM     25  C   UNL     1      -0.011  10.764  20.822  0.00  0.00    +0.000 A 
ATOM     26  C   UNL     1      -1.060  11.698  20.875  0.00  0.00    +0.000 A 
BRANCH  18  28
ATOM     27  C   UNL     1      -0.070  13.760  18.373  0.00  0.00    +0.000 C 
ATOM     28  C   UNL     1      -1.119  12.677  18.544  0.00  0.00    +0.000 C 
ENDBRANCH  18  28
ENDBRANCH  17  24
ENDBRANCH  16  17
ENDBRANCH   1  16
TORSDOF 6
ENDMDL
