MODEL 1
REMARK VINA RESULT:      -7.7      0.000      0.000
REMARK  Name = 
REMARK  13 active torsions:
REMARK  status: ('A' for Active; 'I' for Inactive)
REMARK    1  A    between atoms: C_2  and  C_3
REMARK    2  A    between atoms: C_3  and  N_4
REMARK    3  A    between atoms: N_4  and  C_5
REMARK    4  A    between atoms: N_4  and  C_6
REMARK    5  A    between atoms: C_6  and  C_7
REMARK    6  A    between atoms: C_11  and  O_12
REMARK    7  A    between atoms: O_12  and  C_13
REMARK    8  A    between atoms: C_13  and  C_14
REMARK    9  A    between atoms: C_14  and  C_15
REMARK   10  A    between atoms: C_15  and  C_16
REMARK   11  A    between atoms: N_19  and  C_20
REMARK   12  A    between atoms: C_20  and  C_21
REMARK   13  A    between atoms: N_32  and  C_33
REMARK                            x       y       z     vdW  Elec       q    Type
REMARK                         _______ _______ _______ _____ _____    ______ ____
ROOT
ATOM      1  O   UNL     1       2.338   8.728  17.401  0.00  0.00    +0.000 OA
ENDROOT
BRANCH   1   6
ATOM      2  C   UNL     1      -1.519  12.365  19.961  0.00  0.00    +0.000 A 
ATOM      3  C   UNL     1      -1.483  11.092  19.420  0.00  0.00    +0.000 A 
ATOM      4  C   UNL     1      -0.189  10.879  18.877  0.00  0.00    +0.000 A 
ATOM      5  C   UNL     1       0.459   9.764  18.309  0.00  0.00    +0.000 A 
ATOM      6  C   UNL     1       1.798   9.870  17.915  0.00  0.00    +0.000 A 
ATOM      7  C   UNL     1       2.464  11.087  18.006  0.00  0.00    +0.000 A 
ATOM      8  C   UNL     1       1.830  12.211  18.542  0.00  0.00    +0.000 A 
ATOM      9  C   UNL     1       0.511  12.079  19.001  0.00  0.00    +0.000 A 
ATOM     10  N   UNL     1      -0.329  12.981  19.625  0.00  0.00    +0.000 N 
ATOM     11  C   UNL     1       0.012  14.356  19.920  0.00  0.00    +0.000 C 
BRANCH   2  12
ATOM     12  C   UNL     1      -2.597  13.012  20.780  0.00  0.00    +0.000 C 
BRANCH  12  13
ATOM     13  N   UNL     1      -2.884  12.300  22.031  0.00  0.00    +0.000 NA
ATOM     14  C   UNL     1      -4.106  12.846  22.639  0.00  0.00    +0.000 C 
BRANCH  13  15
ATOM     15  C   UNL     1      -1.738  12.398  22.944  0.00  0.00    +0.000 C 
BRANCH  15  17
ATOM     16  C   UNL     1      -0.525   9.858  23.153  0.00  0.00    +0.000 C 
ATOM     17  C   UNL     1      -1.085  11.031  23.056  0.00  0.00    +0.000 C 
ENDBRANCH  15  17
ENDBRANCH  13  15
ENDBRANCH  12  13
ENDBRANCH   2  12
ENDBRANCH   1   6
BRANCH   1  18
ATOM     18  C   UNL     1       1.932   7.486  17.996  0.00  0.00    +0.000 C 
BRANCH  18  19
ATOM     19  C   UNL     1       3.158   6.571  17.898  0.00  0.00    +0.000 C 
BRANCH  19  20
ATOM     20  C   UNL     1       4.404   7.244  17.329  0.00  0.00    +0.000 C 
BRANCH  20  21
ATOM     21  C   UNL     1       5.521   6.260  16.873  0.00  0.00    +0.000 C 
ATOM     22  C   UNL     1       5.102   4.876  16.346  0.00  0.00    +0.000 C 
ATOM     23  C   UNL     1       4.624   3.892  17.430  0.00  0.00    +0.000 C 
ATOM     24  N   UNL     1       5.481   3.822  18.636  0.00  0.00    +0.000 NA
ATOM     25  C   UNL     1       5.817   5.165  19.125  0.00  0.00    +0.000 C 
ATOM     26  C   UNL     1       6.490   5.999  18.033  0.00  0.00    +0.000 C 
BRANCH  24  27
ATOM     27  C   UNL     1       4.779   3.036  19.682  0.00  0.00    +0.000 C 
BRANCH  27  28
ATOM     28  C   UNL     1       3.278   3.201  19.736  0.00  0.00    +0.000 A 
ATOM     29  C   UNL     1       2.433   2.292  19.069  0.00  0.00    +0.000 A 
ATOM     30  C   UNL     1       1.047   2.390  19.155  0.00  0.00    +0.000 A 
ATOM     31  C   UNL     1       0.465   3.408  19.914  0.00  0.00    +0.000 A 
ATOM     32  C   UNL     1       1.277   4.320  20.577  0.00  0.00    +0.000 A 
ATOM     33  C   UNL     1       2.670   4.227  20.487  0.00  0.00    +0.000 A 
ENDBRANCH  27  28
ENDBRANCH  24  27
ENDBRANCH  20  21
ENDBRANCH  19  20
ENDBRANCH  18  19
ENDBRANCH   1  18
TORSDOF 11
ENDMDL
MODEL 2
REMARK VINA RESULT:      -7.7      2.389     10.950
REMARK  Name = 
REMARK  13 active torsions:
REMARK  status: ('A' for Active; 'I' for Inactive)
REMARK    1  A    between atoms: C_2  and  C_3
REMARK    2  A    between atoms: C_3  and  N_4
REMARK    3  A    between atoms: N_4  and  C_5
REMARK    4  A    between atoms: N_4  and  C_6
REMARK    5  A    between atoms: C_6  and  C_7
REMARK    6  A    between atoms: C_11  and  O_12
REMARK    7  A    between atoms: O_12  and  C_13
REMARK    8  A    between atoms: C_13  and  C_14
REMARK    9  A    between atoms: C_14  and  C_15
REMARK   10  A    between atoms: C_15  and  C_16
REMARK   11  A    between atoms: N_19  and  C_20
REMARK   12  A    between atoms: C_20  and  C_21
REMARK   13  A    between atoms: N_32  and  C_33
REMARK                            x       y       z     vdW  Elec       q    Type
REMARK                         _______ _______ _______ _____ _____    ______ ____
ROOT
ATOM      1  O   UNL     1       1.538   8.499  20.169  0.00  0.00    +0.000 OA
ENDROOT
BRANCH   1   6
ATOM      2  C   UNL     1       4.518   4.367  17.219  0.00  0.00    +0.000 A 
ATOM      3  C   UNL     1       4.112   5.679  17.056  0.00  0.00    +0.000 A 
ATOM      4  C   UNL     1       3.319   6.039  18.176  0.00  0.00    +0.000 A 
ATOM      5  C   UNL     1       2.734   7.245  18.611  0.00  0.00    +0.000 A 
ATOM      6  C   UNL     1       2.044   7.279  19.829  0.00  0.00    +0.000 A 
ATOM      7  C   UNL     1       1.862   6.115  20.567  0.00  0.00    +0.000 A 
ATOM      8  C   UNL     1       2.412   4.903  20.139  0.00  0.00    +0.000 A 
ATOM      9  C   UNL     1       3.164   4.891  18.955  0.00  0.00    +0.000 A 
ATOM     10  N   UNL     1       3.865   3.877  18.334  0.00  0.00    +0.000 N 
ATOM     11  C   UNL     1       3.939   2.513  18.812  0.00  0.00    +0.000 C 
BRANCH   2  12
ATOM     12  C   UNL     1       5.488   3.569  16.396  0.00  0.00    +0.000 C 
BRANCH  12  13
ATOM     13  N   UNL     1       6.819   4.183  16.310  0.00  0.00    +0.000 NA
ATOM     14  C   UNL     1       7.100   4.922  17.550  0.00  0.00    +0.000 C 
BRANCH  13  15
ATOM     15  C   UNL     1       6.898   5.056  15.133  0.00  0.00    +0.000 C 
BRANCH  15  17
ATOM     16  C   UNL     1       6.087   3.589  12.861  0.00  0.00    +0.000 C 
ATOM     17  C   UNL     1       6.462   4.267  13.910  0.00  0.00    +0.000 C 
ENDBRANCH  15  17
ENDBRANCH  13  15
ENDBRANCH  12  13
ENDBRANCH   2  12
ENDBRANCH   1   6
BRANCH   1  18
ATOM     18  C   UNL     1       0.654   8.549  21.300  0.00  0.00    +0.000 C 
BRANCH  18  19
ATOM     19  C   UNL     1      -0.118   9.865  21.151  0.00  0.00    +0.000 C 
BRANCH  19  20
ATOM     20  C   UNL     1      -0.183  10.400  19.724  0.00  0.00    +0.000 C 
BRANCH  20  21
ATOM     21  C   UNL     1      -1.383  11.351  19.442  0.00  0.00    +0.000 C 
ATOM     22  C   UNL     1      -1.341  12.222  18.174  0.00  0.00    +0.000 C 
ATOM     23  C   UNL     1      -0.364  13.412  18.243  0.00  0.00    +0.000 C 
ATOM     24  N   UNL     1      -0.428  14.203  19.493  0.00  0.00    +0.000 NA
ATOM     25  C   UNL     1      -0.422  13.330  20.674  0.00  0.00    +0.000 C 
ATOM     26  C   UNL     1      -1.569  12.317  20.618  0.00  0.00    +0.000 C 
BRANCH  24  27
ATOM     27  C   UNL     1       0.718  15.147  19.526  0.00  0.00    +0.000 C 
BRANCH  27  28
ATOM     28  C   UNL     1       0.603  16.356  18.626  0.00  0.00    +0.000 A 
ATOM     29  C   UNL     1       1.738  16.869  17.967  0.00  0.00    +0.000 A 
ATOM     30  C   UNL     1       1.643  17.943  17.086  0.00  0.00    +0.000 A 
ATOM     31  C   UNL     1       0.404  18.538  16.841  0.00  0.00    +0.000 A 
ATOM     32  C   UNL     1      -0.729  18.053  17.483  0.00  0.00    +0.000 A 
ATOM     33  C   UNL     1      -0.636  16.978  18.374  0.00  0.00    +0.000 A 
ENDBRANCH  27  28
ENDBRANCH  24  27
ENDBRANCH  20  21
ENDBRANCH  19  20
ENDBRANCH  18  19
ENDBRANCH   1  18
TORSDOF 11
ENDMDL
MODEL 3
REMARK VINA RESULT:      -7.5      1.325      2.408
REMARK  Name = 
REMARK  13 active torsions:
REMARK  status: ('A' for Active; 'I' for Inactive)
REMARK    1  A    between atoms: C_2  and  C_3
REMARK    2  A    between atoms: C_3  and  N_4
REMARK    3  A    between atoms: N_4  and  C_5
REMARK    4  A    between atoms: N_4  and  C_6
REMARK    5  A    between atoms: C_6  and  C_7
REMARK    6  A    between atoms: C_11  and  O_12
REMARK    7  A    between atoms: O_12  and  C_13
REMARK    8  A    between atoms: C_13  and  C_14
REMARK    9  A    between atoms: C_14  and  C_15
REMARK   10  A    between atoms: C_15  and  C_16
REMARK   11  A    between atoms: N_19  and  C_20
REMARK   12  A    between atoms: C_20  and  C_21
REMARK   13  A    between atoms: N_32  and  C_33
REMARK                            x       y       z     vdW  Elec       q    Type
REMARK                         _______ _______ _______ _____ _____    ______ ____
ROOT
ATOM      1  O   UNL     1       2.069   7.686  19.655  0.00  0.00    +0.000 OA
ENDROOT
BRANCH   1   6
ATOM      2  C   UNL     1      -1.683  12.130  20.571  0.00  0.00    +0.000 A 
ATOM      3  C   UNL     1      -0.931  11.592  19.542  0.00  0.00    +0.000 A 
ATOM      4  C   UNL     1      -0.154  10.529  20.071  0.00  0.00    +0.000 A 
ATOM      5  C   UNL     1       0.698   9.564  19.497  0.00  0.00    +0.000 A 
ATOM      6  C   UNL     1       1.283   8.587  20.312  0.00  0.00    +0.000 A 
ATOM      7  C   UNL     1       1.094   8.614  21.689  0.00  0.00    +0.000 A 
ATOM      8  C   UNL     1       0.274   9.579  22.280  0.00  0.00    +0.000 A 
ATOM      9  C   UNL     1      -0.367  10.511  21.449  0.00  0.00    +0.000 A 
ATOM     10  N   UNL     1      -1.267  11.518  21.738  0.00  0.00    +0.000 N 
ATOM     11  C   UNL     1      -1.735  11.848  23.067  0.00  0.00    +0.000 C 
BRANCH   2  12
ATOM     12  C   UNL     1      -2.768  13.165  20.507  0.00  0.00    +0.000 C 
BRANCH  12  13
ATOM     13  N   UNL     1      -4.119  12.590  20.491  0.00  0.00    +0.000 NA
ATOM     14  C   UNL     1      -4.432  12.109  19.137  0.00  0.00    +0.000 C 
BRANCH  13  15
ATOM     15  C   UNL     1      -5.097  13.584  20.949  0.00  0.00    +0.000 C 
BRANCH  15  17
ATOM     16  C   UNL     1      -4.596  14.163  23.666  0.00  0.00    +0.000 C 
ATOM     17  C   UNL     1      -4.828  13.895  22.412  0.00  0.00    +0.000 C 
ENDBRANCH  15  17
ENDBRANCH  13  15
ENDBRANCH  12  13
ENDBRANCH   2  12
ENDBRANCH   1   6
BRANCH   1  18
ATOM     18  C   UNL     1       2.337   7.940  18.267  0.00  0.00    +0.000 C 
BRANCH  18  19
ATOM     19  C   UNL     1       3.306   6.835  17.834  0.00  0.00    +0.000 C 
BRANCH  19  20
ATOM     20  C   UNL     1       4.694   7.331  17.438  0.00  0.00    +0.000 C 
BRANCH  20  21
ATOM     21  C   UNL     1       5.634   6.233  16.860  0.00  0.00    +0.000 C 
ATOM     22  C   UNL     1       5.001   4.926  16.350  0.00  0.00    +0.000 C 
ATOM     23  C   UNL     1       4.508   3.976  17.457  0.00  0.00    +0.000 C 
ATOM     24  N   UNL     1       5.457   3.767  18.574  0.00  0.00    +0.000 NA
ATOM     25  C   UNL     1       6.000   5.044  19.053  0.00  0.00    +0.000 C 
ATOM     26  C   UNL     1       6.667   5.823  17.917  0.00  0.00    +0.000 C 
BRANCH  24  27
ATOM     27  C   UNL     1       4.764   3.040  19.668  0.00  0.00    +0.000 C 
BRANCH  27  28
ATOM     28  C   UNL     1       3.268   3.238  19.746  0.00  0.00    +0.000 A 
ATOM     29  C   UNL     1       2.392   2.333  19.114  0.00  0.00    +0.000 A 
ATOM     30  C   UNL     1       1.010   2.461  19.224  0.00  0.00    +0.000 A 
ATOM     31  C   UNL     1       0.463   3.506  19.972  0.00  0.00    +0.000 A 
ATOM     32  C   UNL     1       1.306   4.415  20.600  0.00  0.00    +0.000 A 
ATOM     33  C   UNL     1       2.695   4.292  20.486  0.00  0.00    +0.000 A 
ENDBRANCH  27  28
ENDBRANCH  24  27
ENDBRANCH  20  21
ENDBRANCH  19  20
ENDBRANCH  18  19
ENDBRANCH   1  18
TORSDOF 11
ENDMDL
MODEL 4
REMARK VINA RESULT:      -7.5      2.049     10.487
REMARK  Name = 
REMARK  13 active torsions:
REMARK  status: ('A' for Active; 'I' for Inactive)
REMARK    1  A    between atoms: C_2  and  C_3
REMARK    2  A    between atoms: C_3  and  N_4
REMARK    3  A    between atoms: N_4  and  C_5
REMARK    4  A    between atoms: N_4  and  C_6
REMARK    5  A    between atoms: C_6  and  C_7
REMARK    6  A    between atoms: C_11  and  O_12
REMARK    7  A    between atoms: O_12  and  C_13
REMARK    8  A    between atoms: C_13  and  C_14
REMARK    9  A    between atoms: C_14  and  C_15
REMARK   10  A    between atoms: C_15  and  C_16
REMARK   11  A    between atoms: N_19  and  C_20
REMARK   12  A    between atoms: C_20  and  C_21
REMARK   13  A    between atoms: N_32  and  C_33
REMARK                            x       y       z     vdW  Elec       q    Type
REMARK                         _______ _______ _______ _____ _____    ______ ____
ROOT
ATOM      1  O   UNL     1       1.312   8.679  20.833  0.00  0.00    +0.000 OA
ENDROOT
BRANCH   1   6
ATOM      2  C   UNL     1       4.005   4.655  17.485  0.00  0.00    +0.000 A 
ATOM      3  C   UNL     1       3.722   6.009  17.468  0.00  0.00    +0.000 A 
ATOM      4  C   UNL     1       2.929   6.310  18.606  0.00  0.00    +0.000 A 
ATOM      5  C   UNL     1       2.441   7.507  19.165  0.00  0.00    +0.000 A 
ATOM      6  C   UNL     1       1.718   7.465  20.364  0.00  0.00    +0.000 A 
ATOM      7  C   UNL     1       1.411   6.246  20.958  0.00  0.00    +0.000 A 
ATOM      8  C   UNL     1       1.864   5.046  20.404  0.00  0.00    +0.000 A 
ATOM      9  C   UNL     1       2.649   5.100  19.242  0.00  0.00    +0.000 A 
ATOM     10  N   UNL     1       3.277   4.103  18.522  0.00  0.00    +0.000 N 
ATOM     11  C   UNL     1       3.215   2.693  18.840  0.00  0.00    +0.000 C 
BRANCH   2  12
ATOM     12  C   UNL     1       4.926   3.871  16.596  0.00  0.00    +0.000 C 
BRANCH  12  13
ATOM     13  N   UNL     1       5.980   4.689  15.985  0.00  0.00    +0.000 NA
ATOM     14  C   UNL     1       6.346   4.124  14.679  0.00  0.00    +0.000 C 
BRANCH  13  15
ATOM     15  C   UNL     1       7.141   4.771  16.881  0.00  0.00    +0.000 C 
BRANCH  15  17
ATOM     16  C   UNL     1       7.570   7.476  17.562  0.00  0.00    +0.000 C 
ATOM     17  C   UNL     1       7.372   6.227  17.248  0.00  0.00    +0.000 C 
ENDBRANCH  15  17
ENDBRANCH  13  15
ENDBRANCH  12  13
ENDBRANCH   2  12
ENDBRANCH   1   6
BRANCH   1  18
ATOM     18  C   UNL     1       0.695   9.572  19.892  0.00  0.00    +0.000 C 
BRANCH  18  19
ATOM     19  C   UNL     1       0.791  10.962  20.532  0.00  0.00    +0.000 C 
BRANCH  19  20
ATOM     20  C   UNL     1      -0.554  11.593  20.877  0.00  0.00    +0.000 C 
BRANCH  20  21
ATOM     21  C   UNL     1      -0.665  12.130  22.333  0.00  0.00    +0.000 C 
ATOM     22  C   UNL     1      -1.848  11.658  23.197  0.00  0.00    +0.000 C 
ATOM     23  C   UNL     1      -3.206  12.281  22.823  0.00  0.00    +0.000 C 
ATOM     24  N   UNL     1      -3.187  13.746  22.611  0.00  0.00    +0.000 NA
ATOM     25  C   UNL     1      -2.066  14.142  21.747  0.00  0.00    +0.000 C 
ATOM     26  C   UNL     1      -0.731  13.662  22.320  0.00  0.00    +0.000 C 
BRANCH  24  27
ATOM     27  C   UNL     1      -4.484  14.167  22.023  0.00  0.00    +0.000 C 
BRANCH  27  28
ATOM     28  C   UNL     1      -5.198  13.129  21.188  0.00  0.00    +0.000 A 
ATOM     29  C   UNL     1      -6.402  12.552  21.638  0.00  0.00    +0.000 A 
ATOM     30  C   UNL     1      -7.107  11.640  20.858  0.00  0.00    +0.000 A 
ATOM     31  C   UNL     1      -6.622  11.274  19.600  0.00  0.00    +0.000 A 
ATOM     32  C   UNL     1      -5.433  11.825  19.137  0.00  0.00    +0.000 A 
ATOM     33  C   UNL     1      -4.720  12.738  19.922  0.00  0.00    +0.000 A 
ENDBRANCH  27  28
ENDBRANCH  24  27
ENDBRANCH  20  21
ENDBRANCH  19  20
ENDBRANCH  18  19
ENDBRANCH   1  18
TORSDOF 11
ENDMDL
MODEL 5
REMARK VINA RESULT:      -7.4      6.375      7.952
REMARK  Name = 
REMARK  13 active torsions:
REMARK  status: ('A' for Active; 'I' for Inactive)
REMARK    1  A    between atoms: C_2  and  C_3
REMARK    2  A    between atoms: C_3  and  N_4
REMARK    3  A    between atoms: N_4  and  C_5
REMARK    4  A    between atoms: N_4  and  C_6
REMARK    5  A    between atoms: C_6  and  C_7
REMARK    6  A    between atoms: C_11  and  O_12
REMARK    7  A    between atoms: O_12  and  C_13
REMARK    8  A    between atoms: C_13  and  C_14
REMARK    9  A    between atoms: C_14  and  C_15
REMARK   10  A    between atoms: C_15  and  C_16
REMARK   11  A    between atoms: N_19  and  C_20
REMARK   12  A    between atoms: C_20  and  C_21
REMARK   13  A    between atoms: N_32  and  C_33
REMARK                            x       y       z     vdW  Elec       q    Type
REMARK                         _______ _______ _______ _____ _____    ______ ____
ROOT
ATOM      1  O   UNL     1       8.991   9.093  18.793  0.00  0.00    +0.000 OA
ENDROOT
BRANCH   1   6
ATOM      2  C   UNL     1      10.023  14.586  20.642  0.00  0.00    +0.000 A 
ATOM      3  C   UNL     1       9.993  13.300  21.151  0.00  0.00    +0.000 A 
ATOM      4  C   UNL     1       9.566  12.425  20.119  0.00  0.00    +0.000 A 
ATOM      5  C   UNL     1       9.452  11.025  20.012  0.00  0.00    +0.000 A 
ATOM      6  C   UNL     1       9.045  10.456  18.799  0.00  0.00    +0.000 A 
ATOM      7  C   UNL     1       8.678  11.265  17.730  0.00  0.00    +0.000 A 
ATOM      8  C   UNL     1       8.759  12.657  17.825  0.00  0.00    +0.000 A 
ATOM      9  C   UNL     1       9.236  13.218  19.019  0.00  0.00    +0.000 A 
ATOM     10  N   UNL     1       9.481  14.531  19.372  0.00  0.00    +0.000 N 
ATOM     11  C   UNL     1       9.245  15.672  18.515  0.00  0.00    +0.000 C 
BRANCH   2  12
ATOM     12  C   UNL     1      10.544  15.842  21.278  0.00  0.00    +0.000 C 
BRANCH  12  13
ATOM     13  N   UNL     1       9.895  16.159  22.555  0.00  0.00    +0.000 NA
ATOM     14  C   UNL     1       9.014  17.323  22.383  0.00  0.00    +0.000 C 
BRANCH  13  15
ATOM     15  C   UNL     1      10.907  16.397  23.592  0.00  0.00    +0.000 C 
BRANCH  15  17
ATOM     16  C   UNL     1       9.644  16.360  26.116  0.00  0.00    +0.000 C 
ATOM     17  C   UNL     1      10.227  16.377  24.951  0.00  0.00    +0.000 C 
ENDBRANCH  15  17
ENDBRANCH  13  15
ENDBRANCH  12  13
ENDBRANCH   2  12
ENDBRANCH   1   6
BRANCH   1  18
ATOM     18  C   UNL     1       7.978   8.481  17.980  0.00  0.00    +0.000 C 
BRANCH  18  19
ATOM     19  C   UNL     1       7.894   7.029  18.463  0.00  0.00    +0.000 C 
BRANCH  19  20
ATOM     20  C   UNL     1       7.192   6.081  17.495  0.00  0.00    +0.000 C 
BRANCH  20  21
ATOM     21  C   UNL     1       5.894   6.651  16.855  0.00  0.00    +0.000 C 
ATOM     22  C   UNL     1       4.640   6.780  17.740  0.00  0.00    +0.000 C 
ATOM     23  C   UNL     1       3.942   5.446  18.063  0.00  0.00    +0.000 C 
ATOM     24  N   UNL     1       3.749   4.543  16.905  0.00  0.00    +0.000 NA
ATOM     25  C   UNL     1       4.982   4.420  16.118  0.00  0.00    +0.000 C 
ATOM     26  C   UNL     1       5.482   5.790  15.655  0.00  0.00    +0.000 C 
BRANCH  24  27
ATOM     27  C   UNL     1       3.298   3.216  17.397  0.00  0.00    +0.000 C 
BRANCH  27  28
ATOM     28  C   UNL     1       2.715   3.192  18.791  0.00  0.00    +0.000 A 
ATOM     29  C   UNL     1       1.393   3.622  19.022  0.00  0.00    +0.000 A 
ATOM     30  C   UNL     1       0.816   3.551  20.287  0.00  0.00    +0.000 A 
ATOM     31  C   UNL     1       1.552   3.050  21.363  0.00  0.00    +0.000 A 
ATOM     32  C   UNL     1       2.860   2.625  21.162  0.00  0.00    +0.000 A 
ATOM     33  C   UNL     1       3.444   2.700  19.892  0.00  0.00    +0.000 A 
ENDBRANCH  27  28
ENDBRANCH  24  27
ENDBRANCH  20  21
ENDBRANCH  19  20
ENDBRANCH  18  19
ENDBRANCH   1  18
TORSDOF 11
ENDMDL
MODEL 6
REMARK VINA RESULT:      -7.4      5.705      7.410
REMARK  Name = 
REMARK  13 active torsions:
REMARK  status: ('A' for Active; 'I' for Inactive)
REMARK    1  A    between atoms: C_2  and  C_3
REMARK    2  A    between atoms: C_3  and  N_4
REMARK    3  A    between atoms: N_4  and  C_5
REMARK    4  A    between atoms: N_4  and  C_6
REMARK    5  A    between atoms: C_6  and  C_7
REMARK    6  A    between atoms: C_11  and  O_12
REMARK    7  A    between atoms: O_12  and  C_13
REMARK    8  A    between atoms: C_13  and  C_14
REMARK    9  A    between atoms: C_14  and  C_15
REMARK   10  A    between atoms: C_15  and  C_16
REMARK   11  A    between atoms: N_19  and  C_20
REMARK   12  A    between atoms: C_20  and  C_21
REMARK   13  A    between atoms: N_32  and  C_33
REMARK                            x       y       z     vdW  Elec       q    Type
REMARK                         _______ _______ _______ _____ _____    ______ ____
ROOT
ATOM      1  O   UNL     1       9.827  10.310  17.927  0.00  0.00    +0.000 OA
ENDROOT
BRANCH   1   6
ATOM      2  C   UNL     1       8.262  15.978  18.210  0.00  0.00    +0.000 A 
ATOM      3  C   UNL     1       7.668  14.729  18.210  0.00  0.00    +0.000 A 
ATOM      4  C   UNL     1       8.684  13.756  18.018  0.00  0.00    +0.000 A 
ATOM      5  C   UNL     1       8.702  12.347  18.037  0.00  0.00    +0.000 A 
ATOM      6  C   UNL     1       9.915  11.670  17.867  0.00  0.00    +0.000 A 
ATOM      7  C   UNL     1      11.083  12.374  17.598  0.00  0.00    +0.000 A 
ATOM      8  C   UNL     1      11.080  13.771  17.549  0.00  0.00    +0.000 A 
ATOM      9  C   UNL     1       9.875  14.446  17.792  0.00  0.00    +0.000 A 
ATOM     10  N   UNL     1       9.589  15.795  17.872  0.00  0.00    +0.000 N 
ATOM     11  C   UNL     1      10.554  16.855  17.673  0.00  0.00    +0.000 C 
BRANCH   2  12
ATOM     12  C   UNL     1       7.652  17.313  18.524  0.00  0.00    +0.000 C 
BRANCH  12  13
ATOM     13  N   UNL     1       7.708  17.657  19.950  0.00  0.00    +0.000 NA
ATOM     14  C   UNL     1       8.132  16.480  20.723  0.00  0.00    +0.000 C 
BRANCH  13  15
ATOM     15  C   UNL     1       6.403  18.156  20.401  0.00  0.00    +0.000 C 
BRANCH  15  17
ATOM     16  C   UNL     1       4.461  16.160  19.939  0.00  0.00    +0.000 C 
ATOM     17  C   UNL     1       5.357  17.082  20.153  0.00  0.00    +0.000 C 
ENDBRANCH  15  17
ENDBRANCH  13  15
ENDBRANCH  12  13
ENDBRANCH   2  12
ENDBRANCH   1   6
BRANCH   1  18
ATOM     18  C   UNL     1       8.752   9.757  18.702  0.00  0.00    +0.000 C 
BRANCH  18  19
ATOM     19  C   UNL     1       7.873   9.005  17.695  0.00  0.00    +0.000 C 
BRANCH  19  20
ATOM     20  C   UNL     1       7.820   7.495  17.907  0.00  0.00    +0.000 C 
BRANCH  20  21
ATOM     21  C   UNL     1       6.996   6.720  16.840  0.00  0.00    +0.000 C 
ATOM     22  C   UNL     1       5.459   6.789  16.912  0.00  0.00    +0.000 C 
ATOM     23  C   UNL     1       4.832   5.965  18.052  0.00  0.00    +0.000 C 
ATOM     24  N   UNL     1       5.361   4.589  18.197  0.00  0.00    +0.000 NA
ATOM     25  C   UNL     1       6.830   4.581  18.164  0.00  0.00    +0.000 C 
ATOM     26  C   UNL     1       7.358   5.230  16.883  0.00  0.00    +0.000 C 
BRANCH  24  27
ATOM     27  C   UNL     1       4.855   4.008  19.466  0.00  0.00    +0.000 C 
BRANCH  27  28
ATOM     28  C   UNL     1       3.379   3.687  19.502  0.00  0.00    +0.000 A 
ATOM     29  C   UNL     1       2.851   2.653  18.704  0.00  0.00    +0.000 A 
ATOM     30  C   UNL     1       1.505   2.301  18.767  0.00  0.00    +0.000 A 
ATOM     31  C   UNL     1       0.645   2.980  19.633  0.00  0.00    +0.000 A 
ATOM     32  C   UNL     1       1.141   4.008  20.426  0.00  0.00    +0.000 A 
ATOM     33  C   UNL     1       2.492   4.367  20.360  0.00  0.00    +0.000 A 
ENDBRANCH  27  28
ENDBRANCH  24  27
ENDBRANCH  20  21
ENDBRANCH  19  20
ENDBRANCH  18  19
ENDBRANCH   1  18
TORSDOF 11
ENDMDL
MODEL 7
REMARK VINA RESULT:      -7.4      2.059      4.257
REMARK  Name = 
REMARK  13 active torsions:
REMARK  status: ('A' for Active; 'I' for Inactive)
REMARK    1  A    between atoms: C_2  and  C_3
REMARK    2  A    between atoms: C_3  and  N_4
REMARK    3  A    between atoms: N_4  and  C_5
REMARK    4  A    between atoms: N_4  and  C_6
REMARK    5  A    between atoms: C_6  and  C_7
REMARK    6  A    between atoms: C_11  and  O_12
REMARK    7  A    between atoms: O_12  and  C_13
REMARK    8  A    between atoms: C_13  and  C_14
REMARK    9  A    between atoms: C_14  and  C_15
REMARK   10  A    between atoms: C_15  and  C_16
REMARK   11  A    between atoms: N_19  and  C_20
REMARK   12  A    between atoms: C_20  and  C_21
REMARK   13  A    between atoms: N_32  and  C_33
REMARK                            x       y       z     vdW  Elec       q    Type
REMARK                         _______ _______ _______ _____ _____    ______ ____
ROOT
ATOM      1  O   UNL     1       1.304   7.858  21.680  0.00  0.00    +0.000 OA
ENDROOT
BRANCH   1   6
ATOM      2  C   UNL     1      -1.785  12.808  22.464  0.00  0.00    +0.000 A 
ATOM      3  C   UNL     1      -1.472  11.651  23.155  0.00  0.00    +0.000 A 
ATOM      4  C   UNL     1      -0.722  10.810  22.292  0.00  0.00    +0.000 A 
ATOM      5  C   UNL     1      -0.049   9.584  22.467  0.00  0.00    +0.000 A 
ATOM      6  C   UNL     1       0.669   9.032  21.400  0.00  0.00    +0.000 A 
ATOM      7  C   UNL     1       0.655   9.643  20.151  0.00  0.00    +0.000 A 
ATOM      8  C   UNL     1      -0.028  10.845  19.951  0.00  0.00    +0.000 A 
ATOM      9  C   UNL     1      -0.686  11.430  21.043  0.00  0.00    +0.000 A 
ATOM     10  N   UNL     1      -1.374  12.623  21.158  0.00  0.00    +0.000 N 
ATOM     11  C   UNL     1      -1.588  13.558  20.075  0.00  0.00    +0.000 C 
BRANCH   2  12
ATOM     12  C   UNL     1      -2.430  14.065  22.971  0.00  0.00    +0.000 C 
BRANCH  12  13
ATOM     13  N   UNL     1      -3.380  13.831  24.064  0.00  0.00    +0.000 NA
ATOM     14  C   UNL     1      -4.654  13.348  23.513  0.00  0.00    +0.000 C 
BRANCH  13  15
ATOM     15  C   UNL     1      -3.563  15.060  24.847  0.00  0.00    +0.000 C 
BRANCH  15  17
ATOM     16  C   UNL     1      -1.144  15.657  26.174  0.00  0.00    +0.000 C 
ATOM     17  C   UNL     1      -2.261  15.381  25.562  0.00  0.00    +0.000 C 
ENDBRANCH  15  17
ENDBRANCH  13  15
ENDBRANCH  12  13
ENDBRANCH   2  12
ENDBRANCH   1   6
BRANCH   1  18
ATOM     18  C   UNL     1       1.849   7.127  20.571  0.00  0.00    +0.000 C 
BRANCH  18  19
ATOM     19  C   UNL     1       1.704   5.649  20.951  0.00  0.00    +0.000 C 
BRANCH  19  20
ATOM     20  C   UNL     1       2.566   4.697  20.126  0.00  0.00    +0.000 C 
BRANCH  20  21
ATOM     21  C   UNL     1       1.979   4.335  18.731  0.00  0.00    +0.000 C 
ATOM     22  C   UNL     1       2.372   2.986  18.103  0.00  0.00    +0.000 C 
ATOM     23  C   UNL     1       3.811   2.926  17.556  0.00  0.00    +0.000 C 
ATOM     24  N   UNL     1       4.220   4.092  16.739  0.00  0.00    +0.000 NA
ATOM     25  C   UNL     1       3.862   5.353  17.400  0.00  0.00    +0.000 C 
ATOM     26  C   UNL     1       2.364   5.410  17.708  0.00  0.00    +0.000 C 
BRANCH  24  27
ATOM     27  C   UNL     1       5.683   4.018  16.491  0.00  0.00    +0.000 C 
BRANCH  27  28
ATOM     28  C   UNL     1       6.525   5.049  17.208  0.00  0.00    +0.000 A 
ATOM     29  C   UNL     1       6.734   6.322  16.641  0.00  0.00    +0.000 A 
ATOM     30  C   UNL     1       7.456   7.306  17.312  0.00  0.00    +0.000 A 
ATOM     31  C   UNL     1       7.993   7.041  18.573  0.00  0.00    +0.000 A 
ATOM     32  C   UNL     1       7.805   5.790  19.150  0.00  0.00    +0.000 A 
ATOM     33  C   UNL     1       7.085   4.798  18.476  0.00  0.00    +0.000 A 
ENDBRANCH  27  28
ENDBRANCH  24  27
ENDBRANCH  20  21
ENDBRANCH  19  20
ENDBRANCH  18  19
ENDBRANCH   1  18
TORSDOF 11
ENDMDL
MODEL 8
REMARK VINA RESULT:      -7.4      2.258      4.567
REMARK  Name = 
REMARK  13 active torsions:
REMARK  status: ('A' for Active; 'I' for Inactive)
REMARK    1  A    between atoms: C_2  and  C_3
REMARK    2  A    between atoms: C_3  and  N_4
REMARK    3  A    between atoms: N_4  and  C_5
REMARK    4  A    between atoms: N_4  and  C_6
REMARK    5  A    between atoms: C_6  and  C_7
REMARK    6  A    between atoms: C_11  and  O_12
REMARK    7  A    between atoms: O_12  and  C_13
REMARK    8  A    between atoms: C_13  and  C_14
REMARK    9  A    between atoms: C_14  and  C_15
REMARK   10  A    between atoms: C_15  and  C_16
REMARK   11  A    between atoms: N_19  and  C_20
REMARK   12  A    between atoms: C_20  and  C_21
REMARK   13  A    between atoms: N_32  and  C_33
REMARK                            x       y       z     vdW  Elec       q    Type
REMARK                         _______ _______ _______ _____ _____    ______ ____
ROOT
ATOM      1  O   UNL     1       2.051   7.481  21.392  0.00  0.00    +0.000 OA
ENDROOT
BRANCH   1   6
ATOM      2  C   UNL     1      -1.636  11.373  18.961  0.00  0.00    +0.000 A 
ATOM      3  C   UNL     1      -0.726  10.409  18.567  0.00  0.00    +0.000 A 
ATOM      4  C   UNL     1      -0.102   9.888  19.730  0.00  0.00    +0.000 A 
ATOM      5  C   UNL     1       0.805   8.835  19.963  0.00  0.00    +0.000 A 
ATOM      6  C   UNL     1       1.191   8.532  21.274  0.00  0.00    +0.000 A 
ATOM      7  C   UNL     1       0.749   9.314  22.336  0.00  0.00    +0.000 A 
ATOM      8  C   UNL     1      -0.129  10.379  22.123  0.00  0.00    +0.000 A 
ATOM      9  C   UNL     1      -0.568  10.633  20.814  0.00  0.00    +0.000 A 
ATOM     10  N   UNL     1      -1.468  11.556  20.320  0.00  0.00    +0.000 N 
ATOM     11  C   UNL     1      -2.164  12.540  21.122  0.00  0.00    +0.000 C 
BRANCH   2  12
ATOM     12  C   UNL     1      -2.651  12.108  18.134  0.00  0.00    +0.000 C 
BRANCH  12  13
ATOM     13  N   UNL     1      -3.875  11.334  17.894  0.00  0.00    +0.000 NA
ATOM     14  C   UNL     1      -4.124  11.245  16.448  0.00  0.00    +0.000 C 
BRANCH  13  15
ATOM     15  C   UNL     1      -5.008  11.947  18.599  0.00  0.00    +0.000 C 
BRANCH  15  17
ATOM     16  C   UNL     1      -6.921   9.946  19.151  0.00  0.00    +0.000 C 
ATOM     17  C   UNL     1      -6.037  10.870  18.896  0.00  0.00    +0.000 C 
ENDBRANCH  15  17
ENDBRANCH  13  15
ENDBRANCH  12  13
ENDBRANCH   2  12
ENDBRANCH   1   6
BRANCH   1  18
ATOM     18  C   UNL     1       2.069   6.526  20.319  0.00  0.00    +0.000 C 
BRANCH  18  19
ATOM     19  C   UNL     1       1.543   5.222  20.930  0.00  0.00    +0.000 C 
BRANCH  19  20
ATOM     20  C   UNL     1       1.202   4.139  19.911  0.00  0.00    +0.000 C 
BRANCH  20  21
ATOM     21  C   UNL     1       2.022   2.825  20.062  0.00  0.00    +0.000 C 
ATOM     22  C   UNL     1       3.548   2.934  20.236  0.00  0.00    +0.000 C 
ATOM     23  C   UNL     1       4.316   3.312  18.955  0.00  0.00    +0.000 C 
ATOM     24  N   UNL     1       3.919   2.563  17.742  0.00  0.00    +0.000 NA
ATOM     25  C   UNL     1       2.458   2.524  17.597  0.00  0.00    +0.000 C 
ATOM     26  C   UNL     1       1.795   1.926  18.840  0.00  0.00    +0.000 C 
BRANCH  24  27
ATOM     27  C   UNL     1       4.553   3.193  16.555  0.00  0.00    +0.000 C 
BRANCH  27  28
ATOM     28  C   UNL     1       5.233   4.520  16.799  0.00  0.00    +0.000 A 
ATOM     29  C   UNL     1       4.472   5.693  16.977  0.00  0.00    +0.000 A 
ATOM     30  C   UNL     1       5.076   6.914  17.264  0.00  0.00    +0.000 A 
ATOM     31  C   UNL     1       6.465   6.997  17.376  0.00  0.00    +0.000 A 
ATOM     32  C   UNL     1       7.238   5.856  17.199  0.00  0.00    +0.000 A 
ATOM     33  C   UNL     1       6.634   4.628  16.906  0.00  0.00    +0.000 A 
ENDBRANCH  27  28
ENDBRANCH  24  27
ENDBRANCH  20  21
ENDBRANCH  19  20
ENDBRANCH  18  19
ENDBRANCH   1  18
TORSDOF 11
ENDMDL
MODEL 9
REMARK VINA RESULT:      -7.4      1.453      2.465
REMARK  Name = 
REMARK  13 active torsions:
REMARK  status: ('A' for Active; 'I' for Inactive)
REMARK    1  A    between atoms: C_2  and  C_3
REMARK    2  A    between atoms: C_3  and  N_4
REMARK    3  A    between atoms: N_4  and  C_5
REMARK    4  A    between atoms: N_4  and  C_6
REMARK    5  A    between atoms: C_6  and  C_7
REMARK    6  A    between atoms: C_11  and  O_12
REMARK    7  A    between atoms: O_12  and  C_13
REMARK    8  A    between atoms: C_13  and  C_14
REMARK    9  A    between atoms: C_14  and  C_15
REMARK   10  A    between atoms: C_15  and  C_16
REMARK   11  A    between atoms: N_19  and  C_20
REMARK   12  A    between atoms: C_20  and  C_21
REMARK   13  A    between atoms: N_32  and  C_33
REMARK                            x       y       z     vdW  Elec       q    Type
REMARK                         _______ _______ _______ _____ _____    ______ ____
ROOT
ATOM      1  O   UNL     1       2.416   7.324  18.562  0.00  0.00    +0.000 OA
ENDROOT
BRANCH   1   6
ATOM      2  C   UNL     1      -0.914  11.651  20.762  0.00  0.00    +0.000 A 
ATOM      3  C   UNL     1      -0.206  11.360  19.610  0.00  0.00    +0.000 A 
ATOM      4  C   UNL     1       0.464  10.124  19.803  0.00  0.00    +0.000 A 
ATOM      5  C   UNL     1       1.227   9.287  18.965  0.00  0.00    +0.000 A 
ATOM      6  C   UNL     1       1.711   8.070  19.460  0.00  0.00    +0.000 A 
ATOM      7  C   UNL     1       1.512   7.723  20.791  0.00  0.00    +0.000 A 
ATOM      8  C   UNL     1       0.780   8.552  21.645  0.00  0.00    +0.000 A 
ATOM      9  C   UNL     1       0.237   9.736  21.124  0.00  0.00    +0.000 A 
ATOM     10  N   UNL     1      -0.568  10.698  21.701  0.00  0.00    +0.000 N 
ATOM     11  C   UNL     1      -1.017  10.680  23.077  0.00  0.00    +0.000 C 
BRANCH   2  12
ATOM     12  C   UNL     1      -1.898  12.757  21.013  0.00  0.00    +0.000 C 
BRANCH  12  13
ATOM     13  N   UNL     1      -3.295  12.344  20.834  0.00  0.00    +0.000 NA
ATOM     14  C   UNL     1      -3.609  12.282  19.399  0.00  0.00    +0.000 C 
BRANCH  13  15
ATOM     15  C   UNL     1      -4.191  13.267  21.542  0.00  0.00    +0.000 C 
BRANCH  15  17
ATOM     16  C   UNL     1      -3.846  12.910  24.321  0.00  0.00    +0.000 C 
ATOM     17  C   UNL     1      -4.005  13.074  23.038  0.00  0.00    +0.000 C 
ENDBRANCH  15  17
ENDBRANCH  13  15
ENDBRANCH  12  13
ENDBRANCH   2  12
ENDBRANCH   1   6
BRANCH   1  18
ATOM     18  C   UNL     1       3.317   8.027  17.691  0.00  0.00    +0.000 C 
BRANCH  18  19
ATOM     19  C   UNL     1       4.215   6.945  17.081  0.00  0.00    +0.000 C 
BRANCH  19  20
ATOM     20  C   UNL     1       5.709   7.168  17.296  0.00  0.00    +0.000 C 
BRANCH  20  21
ATOM     21  C   UNL     1       6.582   5.887  17.163  0.00  0.00    +0.000 C 
ATOM     22  C   UNL     1       6.280   4.916  16.007  0.00  0.00    +0.000 C 
ATOM     23  C   UNL     1       5.003   4.075  16.191  0.00  0.00    +0.000 C 
ATOM     24  N   UNL     1       4.845   3.457  17.527  0.00  0.00    +0.000 NA
ATOM     25  C   UNL     1       5.102   4.432  18.595  0.00  0.00    +0.000 C 
ATOM     26  C   UNL     1       6.491   5.058  18.450  0.00  0.00    +0.000 C 
BRANCH  24  27
ATOM     27  C   UNL     1       3.476   2.893  17.640  0.00  0.00    +0.000 C 
BRANCH  27  28
ATOM     28  C   UNL     1       2.789   3.090  18.972  0.00  0.00    +0.000 A 
ATOM     29  C   UNL     1       1.631   3.887  19.069  0.00  0.00    +0.000 A 
ATOM     30  C   UNL     1       0.948   4.033  20.274  0.00  0.00    +0.000 A 
ATOM     31  C   UNL     1       1.410   3.385  21.421  0.00  0.00    +0.000 A 
ATOM     32  C   UNL     1       2.553   2.598  21.352  0.00  0.00    +0.000 A 
ATOM     33  C   UNL     1       3.245   2.454  20.144  0.00  0.00    +0.000 A 
ENDBRANCH  27  28
ENDBRANCH  24  27
ENDBRANCH  20  21
ENDBRANCH  19  20
ENDBRANCH  18  19
ENDBRANCH   1  18
TORSDOF 11
ENDMDL
