MODEL 1
REMARK VINA RESULT:      -7.5      0.000      0.000
REMARK  Name = 
REMARK  5 active torsions:
REMARK  status: ('A' for Active; 'I' for Inactive)
REMARK    1  A    between atoms: N_1  and  C_2
REMARK    2  A    between atoms: C_2  and  C_3
REMARK    3  A    between atoms: C_3  and  N_4
REMARK    4  A    between atoms: C_5  and  C_7
REMARK    5  A    between atoms: C_8  and  O_9
REMARK                            x       y       z     vdW  Elec       q    Type
REMARK                         _______ _______ _______ _____ _____    ______ ____
ROOT
ATOM      1  C   UNL     1       4.707   4.531  17.000  0.00  0.00    +0.000 A 
ATOM      2  C   UNL     1       4.163   3.494  17.670  0.00  0.00    +0.000 A 
ATOM      3  C   UNL     1       3.213   3.717  18.768  0.00  0.00    +0.000 A 
ATOM      4  C   UNL     1       2.716   2.635  19.513  0.00  0.00    +0.000 A 
ATOM      5  C   UNL     1       1.823   2.841  20.556  0.00  0.00    +0.000 A 
ATOM      6  C   UNL     1       1.416   4.134  20.859  0.00  0.00    +0.000 A 
ATOM      7  C   UNL     1       1.902   5.234  20.130  0.00  0.00    +0.000 A 
ATOM      8  C   UNL     1       2.809   5.024  19.085  0.00  0.00    +0.000 A 
ATOM      9  N   UNL     1       3.347   6.107  18.353  0.00  0.00    +0.000 N 
ATOM     10  C   UNL     1       4.304   5.923  17.351  0.00  0.00    +0.000 A 
ATOM     11  O   UNL     1       4.815   6.877  16.754  0.00  0.00    +0.000 OA
ATOM     12  C   UNL     1       2.948   7.473  18.622  0.00  0.00    +0.000 C 
ATOM     13  C   UNL     1       1.930   7.757  19.714  0.00  0.00    +0.000 C 
ATOM     14  C   UNL     1       1.432   6.592  20.542  0.00  0.00    +0.000 C 
ENDROOT
BRANCH   1  16
ATOM     15  N   UNL     1       5.336   4.297  14.655  0.00  0.00    +0.000 N 
ATOM     16  C   UNL     1       5.735   4.221  15.959  0.00  0.00    +0.000 C 
ATOM     17  O   UNL     1       6.899   3.970  16.280  0.00  0.00    +0.000 OA
ATOM     18  H   UNL     1       4.336   4.291  14.454  0.00  0.00    +0.000 HD
BRANCH  15  19
ATOM     19  C   UNL     1       6.248   4.053  13.554  0.00  0.00    +0.000 C 
BRANCH  19  20
ATOM     20  C   UNL     1       5.560   3.373  12.363  0.00  0.00    +0.000 C 
BRANCH  20  21
ATOM     21  N   UNL     1       6.308   2.203  11.895  0.00  0.00    +0.000 NA
ATOM     22  H   UNL     1       5.978   1.943  10.967  0.00  0.00    +0.000 HD
ATOM     23  H   UNL     1       6.122   1.408  12.504  0.00  0.00    +0.000 HD
ENDBRANCH  20  21
ENDBRANCH  19  20
ENDBRANCH  15  19
ENDBRANCH   1  16
BRANCH   2  24
ATOM     24  O   UNL     1       4.455   2.160  17.420  0.00  0.00    +0.000 OA
ATOM     25  H   UNL     1       5.101   2.116  16.678  0.00  0.00    +0.000 HD
ENDBRANCH   2  24
TORSDOF 5
ENDMDL
MODEL 2
REMARK VINA RESULT:      -7.3      3.158      7.103
REMARK  Name = 
REMARK  5 active torsions:
REMARK  status: ('A' for Active; 'I' for Inactive)
REMARK    1  A    between atoms: N_1  and  C_2
REMARK    2  A    between atoms: C_2  and  C_3
REMARK    3  A    between atoms: C_3  and  N_4
REMARK    4  A    between atoms: C_5  and  C_7
REMARK    5  A    between atoms: C_8  and  O_9
REMARK                            x       y       z     vdW  Elec       q    Type
REMARK                         _______ _______ _______ _____ _____    ______ ____
ROOT
ATOM      1  C   UNL     1       2.272   6.864  19.390  0.00  0.00    +0.000 A 
ATOM      2  C   UNL     1       3.077   7.085  18.331  0.00  0.00    +0.000 A 
ATOM      3  C   UNL     1       3.742   5.972  17.640  0.00  0.00    +0.000 A 
ATOM      4  C   UNL     1       4.644   6.219  16.592  0.00  0.00    +0.000 A 
ATOM      5  C   UNL     1       5.280   5.170  15.940  0.00  0.00    +0.000 A 
ATOM      6  C   UNL     1       5.016   3.864  16.331  0.00  0.00    +0.000 A 
ATOM      7  C   UNL     1       4.119   3.592  17.381  0.00  0.00    +0.000 A 
ATOM      8  C   UNL     1       3.486   4.651  18.041  0.00  0.00    +0.000 A 
ATOM      9  N   UNL     1       2.607   4.419  19.124  0.00  0.00    +0.000 N 
ATOM     10  C   UNL     1       2.018   5.465  19.839  0.00  0.00    +0.000 A 
ATOM     11  O   UNL     1       1.297   5.259  20.821  0.00  0.00    +0.000 OA
ATOM     12  C   UNL     1       2.289   3.076  19.564  0.00  0.00    +0.000 C 
ATOM     13  C   UNL     1       2.911   1.885  18.853  0.00  0.00    +0.000 C 
ATOM     14  C   UNL     1       3.915   2.159  17.754  0.00  0.00    +0.000 C 
ENDROOT
BRANCH   1  16
ATOM     15  N   UNL     1       1.737   8.042  21.458  0.00  0.00    +0.000 N 
ATOM     16  C   UNL     1       1.708   8.058  20.092  0.00  0.00    +0.000 C 
ATOM     17  O   UNL     1       1.297   9.028  19.452  0.00  0.00    +0.000 OA
ATOM     18  H   UNL     1       1.880   7.149  21.928  0.00  0.00    +0.000 HD
BRANCH  15  19
ATOM     19  C   UNL     1       1.252   9.155  22.252  0.00  0.00    +0.000 C 
BRANCH  19  20
ATOM     20  C   UNL     1      -0.250   9.054  22.545  0.00  0.00    +0.000 C 
BRANCH  20  21
ATOM     21  N   UNL     1      -0.699  10.104  23.465  0.00  0.00    +0.000 NA
ATOM     22  H   UNL     1      -0.393  11.010  23.114  0.00  0.00    +0.000 HD
ATOM     23  H   UNL     1      -0.256   9.979  24.374  0.00  0.00    +0.000 HD
ENDBRANCH  20  21
ENDBRANCH  19  20
ENDBRANCH  15  19
ENDBRANCH   1  16
BRANCH   2  24
ATOM     24  O   UNL     1       3.373   8.342  17.820  0.00  0.00    +0.000 OA
ATOM     25  H   UNL     1       2.573   8.910  17.906  0.00  0.00    +0.000 HD
ENDBRANCH   2  24
TORSDOF 5
ENDMDL
MODEL 3
REMARK VINA RESULT:      -7.2      0.715      2.938
REMARK  Name = 
REMARK  5 active torsions:
REMARK  status: ('A' for Active; 'I' for Inactive)
REMARK    1  A    between atoms: N_1  and  C_2
REMARK    2  A    between atoms: C_2  and  C_3
REMARK    3  A    between atoms: C_3  and  N_4
REMARK    4  A    between atoms: C_5  and  C_7
REMARK    5  A    between atoms: C_8  and  O_9
REMARK                            x       y       z     vdW  Elec       q    Type
REMARK                         _______ _______ _______ _____ _____    ______ ____
ROOT
ATOM      1  C   UNL     1       4.808   4.550  17.073  0.00  0.00    +0.000 A 
ATOM      2  C   UNL     1       4.481   5.777  17.527  0.00  0.00    +0.000 A 
ATOM      3  C   UNL     1       3.442   5.953  18.551  0.00  0.00    +0.000 A 
ATOM      4  C   UNL     1       3.050   7.240  18.957  0.00  0.00    +0.000 A 
ATOM      5  C   UNL     1       2.064   7.411  19.919  0.00  0.00    +0.000 A 
ATOM      6  C   UNL     1       1.463   6.295  20.486  0.00  0.00    +0.000 A 
ATOM      7  C   UNL     1       1.836   4.996  20.094  0.00  0.00    +0.000 A 
ATOM      8  C   UNL     1       2.824   4.827  19.118  0.00  0.00    +0.000 A 
ATOM      9  N   UNL     1       3.200   3.539  18.671  0.00  0.00    +0.000 N 
ATOM     10  C   UNL     1       4.136   3.351  17.650  0.00  0.00    +0.000 A 
ATOM     11  O   UNL     1       4.419   2.227  17.223  0.00  0.00    +0.000 OA
ATOM     12  C   UNL     1       2.613   2.342  19.237  0.00  0.00    +0.000 C 
ATOM     13  C   UNL     1       1.568   2.464  20.334  0.00  0.00    +0.000 C 
ATOM     14  C   UNL     1       1.119   3.853  20.736  0.00  0.00    +0.000 C 
ENDROOT
BRANCH   1  16
ATOM     15  N   UNL     1       5.358   4.022  14.756  0.00  0.00    +0.000 N 
ATOM     16  C   UNL     1       5.810   4.466  15.966  0.00  0.00    +0.000 C 
ATOM     17  O   UNL     1       6.971   4.843  16.138  0.00  0.00    +0.000 OA
ATOM     18  H   UNL     1       4.467   3.527  14.725  0.00  0.00    +0.000 HD
BRANCH  15  19
ATOM     19  C   UNL     1       6.224   3.928  13.596  0.00  0.00    +0.000 C 
BRANCH  19  20
ATOM     20  C   UNL     1       5.506   3.337  12.376  0.00  0.00    +0.000 C 
BRANCH  20  21
ATOM     21  N   UNL     1       6.201   2.157  11.852  0.00  0.00    +0.000 NA
ATOM     22  H   UNL     1       5.836   1.936  10.927  0.00  0.00    +0.000 HD
ATOM     23  H   UNL     1       6.004   1.350  12.443  0.00  0.00    +0.000 HD
ENDBRANCH  20  21
ENDBRANCH  19  20
ENDBRANCH  15  19
ENDBRANCH   1  16
BRANCH   2  24
ATOM     24  O   UNL     1       5.050   6.959  17.072  0.00  0.00    +0.000 OA
ATOM     25  H   UNL     1       4.481   7.710  17.358  0.00  0.00    +0.000 HD
ENDBRANCH   2  24
TORSDOF 5
ENDMDL
MODEL 4
REMARK VINA RESULT:      -7.2      0.894      3.029
REMARK  Name = 
REMARK  5 active torsions:
REMARK  status: ('A' for Active; 'I' for Inactive)
REMARK    1  A    between atoms: N_1  and  C_2
REMARK    2  A    between atoms: C_2  and  C_3
REMARK    3  A    between atoms: C_3  and  N_4
REMARK    4  A    between atoms: C_5  and  C_7
REMARK    5  A    between atoms: C_8  and  O_9
REMARK                            x       y       z     vdW  Elec       q    Type
REMARK                         _______ _______ _______ _____ _____    ______ ____
ROOT
ATOM      1  C   UNL     1       5.041   4.871  16.764  0.00  0.00    +0.000 A 
ATOM      2  C   UNL     1       4.678   6.167  16.688  0.00  0.00    +0.000 A 
ATOM      3  C   UNL     1       3.709   6.739  17.633  0.00  0.00    +0.000 A 
ATOM      4  C   UNL     1       3.274   8.067  17.494  0.00  0.00    +0.000 A 
ATOM      5  C   UNL     1       2.353   8.610  18.381  0.00  0.00    +0.000 A 
ATOM      6  C   UNL     1       1.863   7.827  19.418  0.00  0.00    +0.000 A 
ATOM      7  C   UNL     1       2.281   6.493  19.576  0.00  0.00    +0.000 A 
ATOM      8  C   UNL     1       3.201   5.946  18.675  0.00  0.00    +0.000 A 
ATOM      9  N   UNL     1       3.617   4.599  18.780  0.00  0.00    +0.000 N 
ATOM     10  C   UNL     1       4.485   4.016  17.852  0.00  0.00    +0.000 A 
ATOM     11  O   UNL     1       4.799   2.823  17.913  0.00  0.00    +0.000 OA
ATOM     12  C   UNL     1       3.145   3.743  19.848  0.00  0.00    +0.000 C 
ATOM     13  C   UNL     1       2.179   4.297  20.883  0.00  0.00    +0.000 C 
ATOM     14  C   UNL     1       1.680   5.715  20.702  0.00  0.00    +0.000 C 
ENDROOT
BRANCH   1  16
ATOM     15  N   UNL     1       5.456   4.245  14.443  0.00  0.00    +0.000 N 
ATOM     16  C   UNL     1       5.961   4.346  15.708  0.00  0.00    +0.000 C 
ATOM     17  O   UNL     1       7.136   4.081  15.973  0.00  0.00    +0.000 OA
ATOM     18  H   UNL     1       4.443   4.267  14.323  0.00  0.00    +0.000 HD
BRANCH  15  19
ATOM     19  C   UNL     1       6.259   3.783  13.327  0.00  0.00    +0.000 C 
BRANCH  19  20
ATOM     20  C   UNL     1       5.404   3.227  12.181  0.00  0.00    +0.000 C 
BRANCH  20  21
ATOM     21  N   UNL     1       5.913   1.941  11.694  0.00  0.00    +0.000 NA
ATOM     22  H   UNL     1       5.775   1.232  12.413  0.00  0.00    +0.000 HD
ATOM     23  H   UNL     1       6.917   2.005  11.536  0.00  0.00    +0.000 HD
ENDBRANCH  20  21
ENDBRANCH  19  20
ENDBRANCH  15  19
ENDBRANCH   1  16
BRANCH   2  24
ATOM     24  O   UNL     1       5.142   7.056  15.728  0.00  0.00    +0.000 OA
ATOM     25  H   UNL     1       5.761   6.576  15.132  0.00  0.00    +0.000 HD
ENDBRANCH   2  24
TORSDOF 5
ENDMDL
MODEL 5
REMARK VINA RESULT:      -7.2      0.959      1.132
REMARK  Name = 
REMARK  5 active torsions:
REMARK  status: ('A' for Active; 'I' for Inactive)
REMARK    1  A    between atoms: N_1  and  C_2
REMARK    2  A    between atoms: C_2  and  C_3
REMARK    3  A    between atoms: C_3  and  N_4
REMARK    4  A    between atoms: C_5  and  C_7
REMARK    5  A    between atoms: C_8  and  O_9
REMARK                            x       y       z     vdW  Elec       q    Type
REMARK                         _______ _______ _______ _____ _____    ______ ____
ROOT
ATOM      1  C   UNL     1       4.744   4.454  17.283  0.00  0.00    +0.000 A 
ATOM      2  C   UNL     1       4.133   3.385  17.832  0.00  0.00    +0.000 A 
ATOM      3  C   UNL     1       3.119   3.550  18.883  0.00  0.00    +0.000 A 
ATOM      4  C   UNL     1       2.549   2.428  19.507  0.00  0.00    +0.000 A 
ATOM      5  C   UNL     1       1.595   2.578  20.505  0.00  0.00    +0.000 A 
ATOM      6  C   UNL     1       1.202   3.855  20.885  0.00  0.00    +0.000 A 
ATOM      7  C   UNL     1       1.761   4.994  20.277  0.00  0.00    +0.000 A 
ATOM      8  C   UNL     1       2.728   4.839  19.278  0.00  0.00    +0.000 A 
ATOM      9  N   UNL     1       3.338   5.960  18.669  0.00  0.00    +0.000 N 
ATOM     10  C   UNL     1       4.353   5.826  17.717  0.00  0.00    +0.000 A 
ATOM     11  O   UNL     1       4.925   6.808  17.232  0.00  0.00    +0.000 OA
ATOM     12  C   UNL     1       2.957   7.312  19.021  0.00  0.00    +0.000 C 
ATOM     13  C   UNL     1       1.878   7.540  20.067  0.00  0.00    +0.000 C 
ATOM     14  C   UNL     1       1.299   6.329  20.767  0.00  0.00    +0.000 C 
ENDROOT
BRANCH   1  16
ATOM     15  N   UNL     1       5.441   3.968  14.996  0.00  0.00    +0.000 N 
ATOM     16  C   UNL     1       5.829   4.196  16.286  0.00  0.00    +0.000 C 
ATOM     17  O   UNL     1       7.014   4.252  16.619  0.00  0.00    +0.000 OA
ATOM     18  H   UNL     1       4.468   3.721  14.820  0.00  0.00    +0.000 HD
BRANCH  15  19
ATOM     19  C   UNL     1       6.400   3.740  13.932  0.00  0.00    +0.000 C 
BRANCH  19  20
ATOM     20  C   UNL     1       6.910   5.047  13.312  0.00  0.00    +0.000 C 
BRANCH  20  21
ATOM     21  N   UNL     1       8.101   5.551  14.002  0.00  0.00    +0.000 NA
ATOM     22  H   UNL     1       8.933   5.151  13.570  0.00  0.00    +0.000 HD
ATOM     23  H   UNL     1       8.097   5.238  14.971  0.00  0.00    +0.000 HD
ENDBRANCH  20  21
ENDBRANCH  19  20
ENDBRANCH  15  19
ENDBRANCH   1  16
BRANCH   2  24
ATOM     24  O   UNL     1       4.407   2.067  17.495  0.00  0.00    +0.000 OA
ATOM     25  H   UNL     1       5.252   1.804  17.925  0.00  0.00    +0.000 HD
ENDBRANCH   2  24
TORSDOF 5
ENDMDL
MODEL 6
REMARK VINA RESULT:      -7.1      1.146      1.429
REMARK  Name = 
REMARK  5 active torsions:
REMARK  status: ('A' for Active; 'I' for Inactive)
REMARK    1  A    between atoms: N_1  and  C_2
REMARK    2  A    between atoms: C_2  and  C_3
REMARK    3  A    between atoms: C_3  and  N_4
REMARK    4  A    between atoms: C_5  and  C_7
REMARK    5  A    between atoms: C_8  and  O_9
REMARK                            x       y       z     vdW  Elec       q    Type
REMARK                         _______ _______ _______ _____ _____    ______ ____
ROOT
ATOM      1  C   UNL     1       4.920   4.933  16.805  0.00  0.00    +0.000 A 
ATOM      2  C   UNL     1       4.437   4.114  17.762  0.00  0.00    +0.000 A 
ATOM      3  C   UNL     1       3.524   4.616  18.798  0.00  0.00    +0.000 A 
ATOM      4  C   UNL     1       3.093   3.776  19.838  0.00  0.00    +0.000 A 
ATOM      5  C   UNL     1       2.235   4.247  20.823  0.00  0.00    +0.000 A 
ATOM      6  C   UNL     1       1.799   5.565  20.773  0.00  0.00    +0.000 A 
ATOM      7  C   UNL     1       2.220   6.427  19.744  0.00  0.00    +0.000 A 
ATOM      8  C   UNL     1       3.091   5.951  18.758  0.00  0.00    +0.000 A 
ATOM      9  N   UNL     1       3.564   6.797  17.728  0.00  0.00    +0.000 N 
ATOM     10  C   UNL     1       4.486   6.359  16.773  0.00  0.00    +0.000 A 
ATOM     11  O   UNL     1       4.942   7.117  15.911  0.00  0.00    +0.000 OA
ATOM     12  C   UNL     1       3.133   8.175  17.624  0.00  0.00    +0.000 C 
ATOM     13  C   UNL     1       2.150   8.733  18.641  0.00  0.00    +0.000 C 
ATOM     14  C   UNL     1       1.724   7.836  19.784  0.00  0.00    +0.000 C 
ENDROOT
BRANCH   1  16
ATOM     15  N   UNL     1       5.547   4.316  14.530  0.00  0.00    +0.000 N 
ATOM     16  C   UNL     1       5.915   4.364  15.844  0.00  0.00    +0.000 C 
ATOM     17  O   UNL     1       7.034   4.017  16.230  0.00  0.00    +0.000 OA
ATOM     18  H   UNL     1       4.557   4.407  14.301  0.00  0.00    +0.000 HD
BRANCH  15  19
ATOM     19  C   UNL     1       6.436   3.819  13.498  0.00  0.00    +0.000 C 
BRANCH  19  20
ATOM     20  C   UNL     1       7.196   4.946  12.787  0.00  0.00    +0.000 C 
BRANCH  20  21
ATOM     21  N   UNL     1       8.156   5.605  13.677  0.00  0.00    +0.000 NA
ATOM     22  H   UNL     1       7.909   5.402  14.645  0.00  0.00    +0.000 HD
ATOM     23  H   UNL     1       8.092   6.616  13.567  0.00  0.00    +0.000 HD
ENDBRANCH  20  21
ENDBRANCH  19  20
ENDBRANCH  15  19
ENDBRANCH   1  16
BRANCH   2  24
ATOM     24  O   UNL     1       4.761   2.769  17.880  0.00  0.00    +0.000 OA
ATOM     25  H   UNL     1       4.939   2.411  16.980  0.00  0.00    +0.000 HD
ENDBRANCH   2  24
TORSDOF 5
ENDMDL
MODEL 7
REMARK VINA RESULT:      -7.0      1.095      1.337
REMARK  Name = 
REMARK  5 active torsions:
REMARK  status: ('A' for Active; 'I' for Inactive)
REMARK    1  A    between atoms: N_1  and  C_2
REMARK    2  A    between atoms: C_2  and  C_3
REMARK    3  A    between atoms: C_3  and  N_4
REMARK    4  A    between atoms: C_5  and  C_7
REMARK    5  A    between atoms: C_8  and  O_9
REMARK                            x       y       z     vdW  Elec       q    Type
REMARK                         _______ _______ _______ _____ _____    ______ ____
ROOT
ATOM      1  C   UNL     1       5.328   5.023  16.652  0.00  0.00    +0.000 A 
ATOM      2  C   UNL     1       4.912   3.752  16.821  0.00  0.00    +0.000 A 
ATOM      3  C   UNL     1       3.880   3.418  17.811  0.00  0.00    +0.000 A 
ATOM      4  C   UNL     1       3.513   2.081  18.038  0.00  0.00    +0.000 A 
ATOM      5  C   UNL     1       2.543   1.760  18.978  0.00  0.00    +0.000 A 
ATOM      6  C   UNL     1       1.928   2.776  19.697  0.00  0.00    +0.000 A 
ATOM      7  C   UNL     1       2.280   4.123  19.491  0.00  0.00    +0.000 A 
ATOM      8  C   UNL     1       3.265   4.442  18.549  0.00  0.00    +0.000 A 
ATOM      9  N   UNL     1       3.671   5.780  18.339  0.00  0.00    +0.000 N 
ATOM     10  C   UNL     1       4.699   6.113  17.452  0.00  0.00    +0.000 A 
ATOM     11  O   UNL     1       5.090   7.277  17.315  0.00  0.00    +0.000 OA
ATOM     12  C   UNL     1       3.055   6.878  19.055  0.00  0.00    +0.000 C 
ATOM     13  C   UNL     1       1.947   6.595  20.056  0.00  0.00    +0.000 C 
ATOM     14  C   UNL     1       1.588   5.149  20.328  0.00  0.00    +0.000 C 
ENDROOT
BRANCH   1  16
ATOM     15  N   UNL     1       6.297   4.759  14.429  0.00  0.00    +0.000 N 
ATOM     16  C   UNL     1       6.446   5.264  15.689  0.00  0.00    +0.000 C 
ATOM     17  O   UNL     1       7.422   5.943  16.016  0.00  0.00    +0.000 OA
ATOM     18  H   UNL     1       5.592   4.036  14.278  0.00  0.00    +0.000 HD
BRANCH  15  19
ATOM     19  C   UNL     1       7.295   4.955  13.396  0.00  0.00    +0.000 C 
BRANCH  19  20
ATOM     20  C   UNL     1       7.051   4.068  12.169  0.00  0.00    +0.000 C 
BRANCH  20  21
ATOM     21  N   UNL     1       6.216   2.907  12.492  0.00  0.00    +0.000 NA
ATOM     22  H   UNL     1       5.490   3.188  13.149  0.00  0.00    +0.000 HD
ATOM     23  H   UNL     1       6.777   2.199  12.963  0.00  0.00    +0.000 HD
ENDBRANCH  20  21
ENDBRANCH  19  20
ENDBRANCH  15  19
ENDBRANCH   1  16
BRANCH   2  24
ATOM     24  O   UNL     1       5.416   2.663  16.123  0.00  0.00    +0.000 OA
ATOM     25  H   UNL     1       4.663   2.177  15.716  0.00  0.00    +0.000 HD
ENDBRANCH   2  24
TORSDOF 5
ENDMDL
MODEL 8
REMARK VINA RESULT:      -7.0      1.263      1.586
REMARK  Name = 
REMARK  5 active torsions:
REMARK  status: ('A' for Active; 'I' for Inactive)
REMARK    1  A    between atoms: N_1  and  C_2
REMARK    2  A    between atoms: C_2  and  C_3
REMARK    3  A    between atoms: C_3  and  N_4
REMARK    4  A    between atoms: C_5  and  C_7
REMARK    5  A    between atoms: C_8  and  O_9
REMARK                            x       y       z     vdW  Elec       q    Type
REMARK                         _______ _______ _______ _____ _____    ______ ____
ROOT
ATOM      1  C   UNL     1       5.575   4.893  15.709  0.00  0.00    +0.000 A 
ATOM      2  C   UNL     1       5.163   3.726  16.246  0.00  0.00    +0.000 A 
ATOM      3  C   UNL     1       4.209   3.702  17.363  0.00  0.00    +0.000 A 
ATOM      4  C   UNL     1       3.850   2.486  17.969  0.00  0.00    +0.000 A 
ATOM      5  C   UNL     1       2.953   2.459  19.030  0.00  0.00    +0.000 A 
ATOM      6  C   UNL     1       2.405   3.649  19.490  0.00  0.00    +0.000 A 
ATOM      7  C   UNL     1       2.752   4.879  18.901  0.00  0.00    +0.000 A 
ATOM      8  C   UNL     1       3.662   4.904  17.839  0.00  0.00    +0.000 A 
ATOM      9  N   UNL     1       4.062   6.124  17.246  0.00  0.00    +0.000 N 
ATOM     10  C   UNL     1       5.019   6.175  16.228  0.00  0.00    +0.000 A 
ATOM     11  O   UNL     1       5.409   7.247  15.753  0.00  0.00    +0.000 OA
ATOM     12  C   UNL     1       3.513   7.391  17.680  0.00  0.00    +0.000 C 
ATOM     13  C   UNL     1       2.485   7.420  18.799  0.00  0.00    +0.000 C 
ATOM     14  C   UNL     1       2.136   6.113  19.478  0.00  0.00    +0.000 C 
ENDROOT
BRANCH   1  16
ATOM     15  N   UNL     1       6.296   4.144  13.502  0.00  0.00    +0.000 N 
ATOM     16  C   UNL     1       6.616   4.833  14.638  0.00  0.00    +0.000 C 
ATOM     17  O   UNL     1       7.684   5.435  14.765  0.00  0.00    +0.000 OA
ATOM     18  H   UNL     1       5.508   3.497  13.535  0.00  0.00    +0.000 HD
BRANCH  15  19
ATOM     19  C   UNL     1       7.207   4.043  12.378  0.00  0.00    +0.000 C 
BRANCH  19  20
ATOM     20  C   UNL     1       6.902   2.835  11.484  0.00  0.00    +0.000 C 
BRANCH  20  21
ATOM     21  N   UNL     1       5.746   2.075  11.968  0.00  0.00    +0.000 NA
ATOM     22  H   UNL     1       5.557   2.333  12.936  0.00  0.00    +0.000 HD
ATOM     23  H   UNL     1       5.964   1.080  11.969  0.00  0.00    +0.000 HD
ENDBRANCH  20  21
ENDBRANCH  19  20
ENDBRANCH  15  19
ENDBRANCH   1  16
BRANCH   2  24
ATOM     24  O   UNL     1       5.602   2.475  15.833  0.00  0.00    +0.000 OA
ATOM     25  H   UNL     1       6.539   2.554  15.542  0.00  0.00    +0.000 HD
ENDBRANCH   2  24
TORSDOF 5
ENDMDL
MODEL 9
REMARK VINA RESULT:      -6.9      1.317      3.141
REMARK  Name = 
REMARK  5 active torsions:
REMARK  status: ('A' for Active; 'I' for Inactive)
REMARK    1  A    between atoms: N_1  and  C_2
REMARK    2  A    between atoms: C_2  and  C_3
REMARK    3  A    between atoms: C_3  and  N_4
REMARK    4  A    between atoms: C_5  and  C_7
REMARK    5  A    between atoms: C_8  and  O_9
REMARK                            x       y       z     vdW  Elec       q    Type
REMARK                         _______ _______ _______ _____ _____    ______ ____
ROOT
ATOM      1  C   UNL     1       4.496   5.333  16.848  0.00  0.00    +0.000 A 
ATOM      2  C   UNL     1       4.032   6.305  17.660  0.00  0.00    +0.000 A 
ATOM      3  C   UNL     1       3.070   6.004  18.729  0.00  0.00    +0.000 A 
ATOM      4  C   UNL     1       2.530   7.035  19.515  0.00  0.00    +0.000 A 
ATOM      5  C   UNL     1       1.615   6.756  20.522  0.00  0.00    +0.000 A 
ATOM      6  C   UNL     1       1.236   5.440  20.753  0.00  0.00    +0.000 A 
ATOM      7  C   UNL     1       1.761   4.390  19.976  0.00  0.00    +0.000 A 
ATOM      8  C   UNL     1       2.675   4.675  18.957  0.00  0.00    +0.000 A 
ATOM      9  N   UNL     1       3.196   3.652  18.132  0.00  0.00    +0.000 N 
ATOM     10  C   UNL     1       4.059   3.924  17.067  0.00  0.00    +0.000 A 
ATOM     11  O   UNL     1       4.466   3.034  16.313  0.00  0.00    +0.000 OA
ATOM     12  C   UNL     1       2.842   2.263  18.337  0.00  0.00    +0.000 C 
ATOM     13  C   UNL     1       1.889   1.889  19.460  0.00  0.00    +0.000 C 
ATOM     14  C   UNL     1       1.276   3.008  20.275  0.00  0.00    +0.000 C 
ENDROOT
BRANCH   1  16
ATOM     15  N   UNL     1       6.384   4.858  15.378  0.00  0.00    +0.000 N 
ATOM     16  C   UNL     1       5.401   5.739  15.729  0.00  0.00    +0.000 C 
ATOM     17  O   UNL     1       5.214   6.796  15.121  0.00  0.00    +0.000 OA
ATOM     18  H   UNL     1       6.628   4.119  16.037  0.00  0.00    +0.000 HD
BRANCH  15  19
ATOM     19  C   UNL     1       7.302   5.121  14.286  0.00  0.00    +0.000 C 
BRANCH  19  20
ATOM     20  C   UNL     1       6.964   4.309  13.030  0.00  0.00    +0.000 C 
BRANCH  20  21
ATOM     21  N   UNL     1       6.073   3.185  13.329  0.00  0.00    +0.000 NA
ATOM     22  H   UNL     1       5.754   2.768  12.455  0.00  0.00    +0.000 HD
ATOM     23  H   UNL     1       5.241   3.522  13.810  0.00  0.00    +0.000 HD
ENDBRANCH  20  21
ENDBRANCH  19  20
ENDBRANCH  15  19
ENDBRANCH   1  16
BRANCH   2  24
ATOM     24  O   UNL     1       4.381   7.645  17.557  0.00  0.00    +0.000 OA
ATOM     25  H   UNL     1       3.556   8.183  17.566  0.00  0.00    +0.000 HD
ENDBRANCH   2  24
TORSDOF 5
ENDMDL
