MODEL 1
REMARK VINA RESULT:      -8.8      0.000      0.000
REMARK  Name = 
REMARK  7 active torsions:
REMARK  status: ('A' for Active; 'I' for Inactive)
REMARK    1  A    between atoms: C_2  and  C_3
REMARK    2  A    between atoms: C_3  and  N_4
REMARK    3  A    between atoms: N_4  and  C_5
REMARK    4  A    between atoms: C_5  and  C_6
REMARK    5  A    between atoms: C_9  and  N_10
REMARK    6  A    between atoms: N_17  and  C_18
REMARK    7  A    between atoms: N_26  and  O_27
REMARK                            x       y       z     vdW  Elec       q    Type
REMARK                         _______ _______ _______ _____ _____    ______ ____
ROOT
ATOM      1  N   UNL     1       3.502   4.595  19.852  0.00  0.00    +0.000 N 
ATOM      2  C   UNL     1       2.464   5.504  19.999  0.00  0.00    +0.000 C 
ATOM      3  O   UNL     1       1.363   5.135  20.417  0.00  0.00    +0.000 OA
ATOM      4  N   UNL     1       2.730   6.815  19.677  0.00  0.00    +0.000 N 
ATOM      5  H   UNL     1       3.443   7.000  18.985  0.00  0.00    +0.000 HD
ENDROOT
BRANCH   4   6
ATOM      6  C   UNL     1       1.846   7.903  19.904  0.00  0.00    +0.000 A 
ATOM      7  C   UNL     1       1.266   8.179  21.149  0.00  0.00    +0.000 A 
ATOM      8  C   UNL     1       0.362   9.236  21.292  0.00  0.00    +0.000 A 
ATOM      9  C   UNL     1       0.047  10.029  20.197  0.00  0.00    +0.000 A 
ATOM     10  F   UNL     1      -0.839  11.023  20.336  0.00  0.00    +0.000 F 
ATOM     11  C   UNL     1       0.635   9.800  18.961  0.00  0.00    +0.000 A 
ATOM     12  C   UNL     1       1.537   8.747  18.827  0.00  0.00    +0.000 A 
ATOM     13  F   UNL     1       2.096   8.520  17.627  0.00  0.00    +0.000 F 
ENDBRANCH   4   6
BRANCH   1  14
ATOM     14  C   UNL     1       3.239   3.216  20.321  0.00  0.00    +0.000 C 
BRANCH  14  16
ATOM     15  O   UNL     1       2.088   1.943  18.607  0.00  0.00    +0.000 OA
ATOM     16  C   UNL     1       3.113   2.110  19.272  0.00  0.00    +0.000 C 
ATOM     17  N   UNL     1       4.263   1.405  19.009  0.00  0.00    +0.000 N 
ATOM     18  H   UNL     1       5.173   1.802  19.226  0.00  0.00    +0.000 HD
BRANCH  17  19
ATOM     19  O   UNL     1       4.197   0.578  17.857  0.00  0.00    +0.000 OA
ATOM     20  H   UNL     1       3.927  -0.293  18.225  0.00  0.00    +0.000 HD
ENDBRANCH  17  19
ENDBRANCH  14  16
ENDBRANCH   1  14
BRANCH   1  21
ATOM     21  C   UNL     1       4.901   4.954  19.581  0.00  0.00    +0.000 C 
BRANCH  21  22
ATOM     22  C   UNL     1       5.389   4.748  18.159  0.00  0.00    +0.000 A 
ATOM     23  C   UNL     1       4.537   4.614  17.050  0.00  0.00    +0.000 A 
ATOM     24  C   UNL     1       5.053   4.567  15.750  0.00  0.00    +0.000 A 
ATOM     25  C   UNL     1       6.436   4.638  15.547  0.00  0.00    +0.000 A 
ATOM     26  C   UNL     1       7.306   4.684  16.641  0.00  0.00    +0.000 A 
ATOM     27  C   UNL     1       6.780   4.736  17.936  0.00  0.00    +0.000 A 
BRANCH  25  28
ATOM     28  N   UNL     1       6.972   4.720  14.183  0.00  0.00    +0.000 N 
ATOM     29  O   UNL     1       6.449   4.008  13.314  0.00  0.00    +0.000 OA
ATOM     30  O   UNL     1       7.902   5.513  13.977  0.00  0.00    +0.000 OA
ENDBRANCH  25  28
ENDBRANCH  21  22
ENDBRANCH   1  21
TORSDOF 7
ENDMDL
MODEL 2
REMARK VINA RESULT:      -8.7      0.801      1.056
REMARK  Name = 
REMARK  7 active torsions:
REMARK  status: ('A' for Active; 'I' for Inactive)
REMARK    1  A    between atoms: C_2  and  C_3
REMARK    2  A    between atoms: C_3  and  N_4
REMARK    3  A    between atoms: N_4  and  C_5
REMARK    4  A    between atoms: C_5  and  C_6
REMARK    5  A    between atoms: C_9  and  N_10
REMARK    6  A    between atoms: N_17  and  C_18
REMARK    7  A    between atoms: N_26  and  O_27
REMARK                            x       y       z     vdW  Elec       q    Type
REMARK                         _______ _______ _______ _____ _____    ______ ____
ROOT
ATOM      1  N   UNL     1       3.372   4.688  19.846  0.00  0.00    +0.000 N 
ATOM      2  C   UNL     1       2.362   5.618  20.045  0.00  0.00    +0.000 C 
ATOM      3  O   UNL     1       1.247   5.258  20.434  0.00  0.00    +0.000 OA
ATOM      4  N   UNL     1       2.671   6.938  19.809  0.00  0.00    +0.000 N 
ATOM      5  H   UNL     1       3.394   7.144  19.133  0.00  0.00    +0.000 HD
ENDROOT
BRANCH   4   6
ATOM      6  C   UNL     1       1.819   8.037  20.100  0.00  0.00    +0.000 A 
ATOM      7  C   UNL     1       1.326   8.313  21.382  0.00  0.00    +0.000 A 
ATOM      8  C   UNL     1       0.449   9.381  21.591  0.00  0.00    +0.000 A 
ATOM      9  C   UNL     1       0.073  10.185  20.524  0.00  0.00    +0.000 A 
ATOM     10  F   UNL     1      -0.788  11.191  20.727  0.00  0.00    +0.000 F 
ATOM     11  C   UNL     1       0.575   9.957  19.250  0.00  0.00    +0.000 A 
ATOM     12  C   UNL     1       1.451   8.892  19.051  0.00  0.00    +0.000 A 
ATOM     13  F   UNL     1       1.926   8.665  17.815  0.00  0.00    +0.000 F 
ENDBRANCH   4   6
BRANCH   1  14
ATOM     14  C   UNL     1       3.064   3.291  20.225  0.00  0.00    +0.000 C 
BRANCH  14  16
ATOM     15  O   UNL     1       2.994   1.497  18.594  0.00  0.00    +0.000 OA
ATOM     16  C   UNL     1       2.390   2.395  19.185  0.00  0.00    +0.000 C 
ATOM     17  N   UNL     1       1.031   2.553  19.055  0.00  0.00    +0.000 N 
ATOM     18  H   UNL     1       0.485   2.964  19.807  0.00  0.00    +0.000 HD
BRANCH  17  19
ATOM     19  O   UNL     1       0.390   1.541  18.294  0.00  0.00    +0.000 OA
ATOM     20  H   UNL     1       0.500   1.857  17.369  0.00  0.00    +0.000 HD
ENDBRANCH  17  19
ENDBRANCH  14  16
ENDBRANCH   1  14
BRANCH   1  21
ATOM     21  C   UNL     1       4.783   5.020  19.605  0.00  0.00    +0.000 C 
BRANCH  21  22
ATOM     22  C   UNL     1       5.305   4.781  18.200  0.00  0.00    +0.000 A 
ATOM     23  C   UNL     1       4.478   4.608  17.078  0.00  0.00    +0.000 A 
ATOM     24  C   UNL     1       5.023   4.532  15.790  0.00  0.00    +0.000 A 
ATOM     25  C   UNL     1       6.409   4.612  15.616  0.00  0.00    +0.000 A 
ATOM     26  C   UNL     1       7.255   4.697  16.726  0.00  0.00    +0.000 A 
ATOM     27  C   UNL     1       6.700   4.778  18.007  0.00  0.00    +0.000 A 
BRANCH  25  28
ATOM     28  N   UNL     1       6.974   4.663  14.262  0.00  0.00    +0.000 N 
ATOM     29  O   UNL     1       6.474   3.927  13.400  0.00  0.00    +0.000 OA
ATOM     30  O   UNL     1       7.904   5.456  14.055  0.00  0.00    +0.000 OA
ENDBRANCH  25  28
ENDBRANCH  21  22
ENDBRANCH   1  21
TORSDOF 7
ENDMDL
MODEL 3
REMARK VINA RESULT:      -8.6      0.730      1.333
REMARK  Name = 
REMARK  7 active torsions:
REMARK  status: ('A' for Active; 'I' for Inactive)
REMARK    1  A    between atoms: C_2  and  C_3
REMARK    2  A    between atoms: C_3  and  N_4
REMARK    3  A    between atoms: N_4  and  C_5
REMARK    4  A    between atoms: C_5  and  C_6
REMARK    5  A    between atoms: C_9  and  N_10
REMARK    6  A    between atoms: N_17  and  C_18
REMARK    7  A    between atoms: N_26  and  O_27
REMARK                            x       y       z     vdW  Elec       q    Type
REMARK                         _______ _______ _______ _____ _____    ______ ____
ROOT
ATOM      1  N   UNL     1       3.437   4.795  19.794  0.00  0.00    +0.000 N 
ATOM      2  C   UNL     1       2.397   5.711  19.873  0.00  0.00    +0.000 C 
ATOM      3  O   UNL     1       1.249   5.335  20.126  0.00  0.00    +0.000 OA
ATOM      4  N   UNL     1       2.714   7.036  19.675  0.00  0.00    +0.000 N 
ATOM      5  H   UNL     1       3.510   7.253  19.090  0.00  0.00    +0.000 HD
ENDROOT
BRANCH   4   6
ATOM      6  C   UNL     1       1.819   8.122  19.863  0.00  0.00    +0.000 A 
ATOM      7  C   UNL     1       1.251   8.448  21.101  0.00  0.00    +0.000 A 
ATOM      8  C   UNL     1       0.335   9.499  21.208  0.00  0.00    +0.000 A 
ATOM      9  C   UNL     1      -0.004  10.237  20.082  0.00  0.00    +0.000 A 
ATOM     10  F   UNL     1      -0.901  11.225  20.186  0.00  0.00    +0.000 F 
ATOM     11  C   UNL     1       0.572   9.959  18.850  0.00  0.00    +0.000 A 
ATOM     12  C   UNL     1       1.485   8.912  18.753  0.00  0.00    +0.000 A 
ATOM     13  F   UNL     1       2.031   8.636  17.557  0.00  0.00    +0.000 F 
ENDBRANCH   4   6
BRANCH   1  14
ATOM     14  C   UNL     1       3.105   3.393  20.133  0.00  0.00    +0.000 C 
BRANCH  14  16
ATOM     15  O   UNL     1       5.032   1.944  20.395  0.00  0.00    +0.000 OA
ATOM     16  C   UNL     1       4.078   2.297  19.698  0.00  0.00    +0.000 C 
ATOM     17  N   UNL     1       3.741   1.625  18.547  0.00  0.00    +0.000 N 
ATOM     18  H   UNL     1       2.780   1.616  18.218  0.00  0.00    +0.000 HD
BRANCH  17  19
ATOM     19  O   UNL     1       4.499   0.449  18.309  0.00  0.00    +0.000 OA
ATOM     20  H   UNL     1       4.349   0.280  17.351  0.00  0.00    +0.000 HD
ENDBRANCH  17  19
ENDBRANCH  14  16
ENDBRANCH   1  14
BRANCH   1  21
ATOM     21  C   UNL     1       4.862   5.147  19.723  0.00  0.00    +0.000 C 
BRANCH  21  22
ATOM     22  C   UNL     1       5.491   5.145  18.341  0.00  0.00    +0.000 A 
ATOM     23  C   UNL     1       6.795   4.697  18.075  0.00  0.00    +0.000 A 
ATOM     24  C   UNL     1       7.263   4.591  16.760  0.00  0.00    +0.000 A 
ATOM     25  C   UNL     1       6.431   4.952  15.695  0.00  0.00    +0.000 A 
ATOM     26  C   UNL     1       5.162   5.482  15.941  0.00  0.00    +0.000 A 
ATOM     27  C   UNL     1       4.701   5.579  17.259  0.00  0.00    +0.000 A 
BRANCH  25  28
ATOM     28  N   UNL     1       6.871   4.720  14.313  0.00  0.00    +0.000 N 
ATOM     29  O   UNL     1       7.771   5.444  13.865  0.00  0.00    +0.000 OA
ATOM     30  O   UNL     1       6.330   3.799  13.684  0.00  0.00    +0.000 OA
ENDBRANCH  25  28
ENDBRANCH  21  22
ENDBRANCH   1  21
TORSDOF 7
ENDMDL
MODEL 4
REMARK VINA RESULT:      -8.6      1.247      1.404
REMARK  Name = 
REMARK  7 active torsions:
REMARK  status: ('A' for Active; 'I' for Inactive)
REMARK    1  A    between atoms: C_2  and  C_3
REMARK    2  A    between atoms: C_3  and  N_4
REMARK    3  A    between atoms: N_4  and  C_5
REMARK    4  A    between atoms: C_5  and  C_6
REMARK    5  A    between atoms: C_9  and  N_10
REMARK    6  A    between atoms: N_17  and  C_18
REMARK    7  A    between atoms: N_26  and  O_27
REMARK                            x       y       z     vdW  Elec       q    Type
REMARK                         _______ _______ _______ _____ _____    ______ ____
ROOT
ATOM      1  N   UNL     1       3.682   4.482  19.078  0.00  0.00    +0.000 N 
ATOM      2  C   UNL     1       2.649   5.382  19.298  0.00  0.00    +0.000 C 
ATOM      3  O   UNL     1       1.526   4.981  19.614  0.00  0.00    +0.000 OA
ATOM      4  N   UNL     1       2.945   6.720  19.165  0.00  0.00    +0.000 N 
ATOM      5  H   UNL     1       3.692   6.982  18.535  0.00  0.00    +0.000 HD
ENDROOT
BRANCH   4   6
ATOM      6  C   UNL     1       2.064   7.784  19.495  0.00  0.00    +0.000 A 
ATOM      7  C   UNL     1       1.506   7.957  20.768  0.00  0.00    +0.000 A 
ATOM      8  C   UNL     1       0.603   8.996  21.012  0.00  0.00    +0.000 A 
ATOM      9  C   UNL     1       0.268   9.875  19.991  0.00  0.00    +0.000 A 
ATOM     10  F   UNL     1      -0.616  10.852  20.225  0.00  0.00    +0.000 F 
ATOM     11  C   UNL     1       0.835   9.748  18.730  0.00  0.00    +0.000 A 
ATOM     12  C   UNL     1       1.735   8.711  18.495  0.00  0.00    +0.000 A 
ATOM     13  F   UNL     1       2.272   8.583  17.271  0.00  0.00    +0.000 F 
ENDBRANCH   4   6
BRANCH   1  14
ATOM     14  C   UNL     1       3.382   3.058  19.347  0.00  0.00    +0.000 C 
BRANCH  14  16
ATOM     15  O   UNL     1       3.303   2.386  21.677  0.00  0.00    +0.000 OA
ATOM     16  C   UNL     1       3.945   2.433  20.625  0.00  0.00    +0.000 C 
ATOM     17  N   UNL     1       5.154   1.793  20.491  0.00  0.00    +0.000 N 
ATOM     18  H   UNL     1       5.468   1.467  19.581  0.00  0.00    +0.000 HD
BRANCH  17  19
ATOM     19  O   UNL     1       5.525   0.997  21.606  0.00  0.00    +0.000 OA
ATOM     20  H   UNL     1       6.434   1.313  21.811  0.00  0.00    +0.000 HD
ENDBRANCH  17  19
ENDBRANCH  14  16
ENDBRANCH   1  14
BRANCH   1  21
ATOM     21  C   UNL     1       5.096   4.850  18.919  0.00  0.00    +0.000 C 
BRANCH  21  22
ATOM     22  C   UNL     1       5.681   4.703  17.526  0.00  0.00    +0.000 A 
ATOM     23  C   UNL     1       5.015   4.078  16.459  0.00  0.00    +0.000 A 
ATOM     24  C   UNL     1       5.552   4.101  15.166  0.00  0.00    +0.000 A 
ATOM     25  C   UNL     1       6.775   4.738  14.932  0.00  0.00    +0.000 A 
ATOM     26  C   UNL     1       7.496   5.291  15.995  0.00  0.00    +0.000 A 
ATOM     27  C   UNL     1       6.948   5.268  17.282  0.00  0.00    +0.000 A 
BRANCH  25  28
ATOM     28  N   UNL     1       7.276   4.877  13.559  0.00  0.00    +0.000 N 
ATOM     29  O   UNL     1       8.199   5.680  13.360  0.00  0.00    +0.000 OA
ATOM     30  O   UNL     1       6.760   4.168  12.683  0.00  0.00    +0.000 OA
ENDBRANCH  25  28
ENDBRANCH  21  22
ENDBRANCH   1  21
TORSDOF 7
ENDMDL
MODEL 5
REMARK VINA RESULT:      -8.4      1.337      1.626
REMARK  Name = 
REMARK  7 active torsions:
REMARK  status: ('A' for Active; 'I' for Inactive)
REMARK    1  A    between atoms: C_2  and  C_3
REMARK    2  A    between atoms: C_3  and  N_4
REMARK    3  A    between atoms: N_4  and  C_5
REMARK    4  A    between atoms: C_5  and  C_6
REMARK    5  A    between atoms: C_9  and  N_10
REMARK    6  A    between atoms: N_17  and  C_18
REMARK    7  A    between atoms: N_26  and  O_27
REMARK                            x       y       z     vdW  Elec       q    Type
REMARK                         _______ _______ _______ _____ _____    ______ ____
ROOT
ATOM      1  N   UNL     1       3.562   4.285  18.943  0.00  0.00    +0.000 N 
ATOM      2  C   UNL     1       2.595   5.260  19.140  0.00  0.00    +0.000 C 
ATOM      3  O   UNL     1       1.434   4.943  19.413  0.00  0.00    +0.000 OA
ATOM      4  N   UNL     1       2.997   6.572  19.036  0.00  0.00    +0.000 N 
ATOM      5  H   UNL     1       3.783   6.782  18.435  0.00  0.00    +0.000 HD
ENDROOT
BRANCH   4   6
ATOM      6  C   UNL     1       2.190   7.697  19.351  0.00  0.00    +0.000 A 
ATOM      7  C   UNL     1       1.638   7.920  20.619  0.00  0.00    +0.000 A 
ATOM      8  C   UNL     1       0.807   9.021  20.848  0.00  0.00    +0.000 A 
ATOM      9  C   UNL     1       0.540   9.911  19.817  0.00  0.00    +0.000 A 
ATOM     10  F   UNL     1      -0.276  10.950  20.037  0.00  0.00    +0.000 F 
ATOM     11  C   UNL     1       1.104   9.735  18.561  0.00  0.00    +0.000 A 
ATOM     12  C   UNL     1       1.931   8.636  18.341  0.00  0.00    +0.000 A 
ATOM     13  F   UNL     1       2.466   8.460  17.122  0.00  0.00    +0.000 F 
ENDBRANCH   4   6
BRANCH   1  14
ATOM     14  C   UNL     1       3.145   2.886  19.182  0.00  0.00    +0.000 C 
BRANCH  14  16
ATOM     15  O   UNL     1       3.834   2.207  21.406  0.00  0.00    +0.000 OA
ATOM     16  C   UNL     1       2.908   2.442  20.626  0.00  0.00    +0.000 C 
ATOM     17  N   UNL     1       1.600   2.463  21.048  0.00  0.00    +0.000 N 
ATOM     18  H   UNL     1       0.913   3.040  20.572  0.00  0.00    +0.000 HD
BRANCH  17  19
ATOM     19  O   UNL     1       1.431   2.311  22.449  0.00  0.00    +0.000 OA
ATOM     20  H   UNL     1       2.215   1.779  22.711  0.00  0.00    +0.000 HD
ENDBRANCH  17  19
ENDBRANCH  14  16
ENDBRANCH   1  14
BRANCH   1  21
ATOM     21  C   UNL     1       5.005   4.544  18.836  0.00  0.00    +0.000 C 
BRANCH  21  22
ATOM     22  C   UNL     1       5.603   4.484  17.442  0.00  0.00    +0.000 A 
ATOM     23  C   UNL     1       4.856   4.227  16.281  0.00  0.00    +0.000 A 
ATOM     24  C   UNL     1       5.443   4.325  15.014  0.00  0.00    +0.000 A 
ATOM     25  C   UNL     1       6.795   4.666  14.898  0.00  0.00    +0.000 A 
ATOM     26  C   UNL     1       7.577   4.841  16.044  0.00  0.00    +0.000 A 
ATOM     27  C   UNL     1       6.980   4.747  17.305  0.00  0.00    +0.000 A 
BRANCH  25  28
ATOM     28  N   UNL     1       7.380   4.897  13.572  0.00  0.00    +0.000 N 
ATOM     29  O   UNL     1       6.910   4.263  12.616  0.00  0.00    +0.000 OA
ATOM     30  O   UNL     1       8.295   5.728  13.482  0.00  0.00    +0.000 OA
ENDBRANCH  25  28
ENDBRANCH  21  22
ENDBRANCH   1  21
TORSDOF 7
ENDMDL
MODEL 6
REMARK VINA RESULT:      -8.3      0.900      1.419
REMARK  Name = 
REMARK  7 active torsions:
REMARK  status: ('A' for Active; 'I' for Inactive)
REMARK    1  A    between atoms: C_2  and  C_3
REMARK    2  A    between atoms: C_3  and  N_4
REMARK    3  A    between atoms: N_4  and  C_5
REMARK    4  A    between atoms: C_5  and  C_6
REMARK    5  A    between atoms: C_9  and  N_10
REMARK    6  A    between atoms: N_17  and  C_18
REMARK    7  A    between atoms: N_26  and  O_27
REMARK                            x       y       z     vdW  Elec       q    Type
REMARK                         _______ _______ _______ _____ _____    ______ ____
ROOT
ATOM      1  N   UNL     1       3.414   4.817  19.735  0.00  0.00    +0.000 N 
ATOM      2  C   UNL     1       2.385   5.748  19.708  0.00  0.00    +0.000 C 
ATOM      3  O   UNL     1       1.256   5.445  20.103  0.00  0.00    +0.000 OA
ATOM      4  N   UNL     1       2.692   7.007  19.243  0.00  0.00    +0.000 N 
ATOM      5  H   UNL     1       3.447   7.097  18.577  0.00  0.00    +0.000 HD
ENDROOT
BRANCH   4   6
ATOM      6  C   UNL     1       1.815   8.124  19.283  0.00  0.00    +0.000 A 
ATOM      7  C   UNL     1       1.376   8.800  18.139  0.00  0.00    +0.000 A 
ATOM      8  C   UNL     1       0.554   9.926  18.251  0.00  0.00    +0.000 A 
ATOM      9  C   UNL     1       0.157  10.369  19.505  0.00  0.00    +0.000 A 
ATOM     10  F   UNL     1      -0.609  11.463  19.607  0.00  0.00    +0.000 F 
ATOM     11  C   UNL     1       0.548   9.695  20.654  0.00  0.00    +0.000 A 
ATOM     12  C   UNL     1       1.365   8.573  20.533  0.00  0.00    +0.000 A 
ATOM     13  F   UNL     1       1.753   7.930  21.647  0.00  0.00    +0.000 F 
ENDBRANCH   4   6
BRANCH   1  14
ATOM     14  C   UNL     1       3.101   3.510  20.353  0.00  0.00    +0.000 C 
BRANCH  14  16
ATOM     15  O   UNL     1       1.965   1.991  18.842  0.00  0.00    +0.000 OA
ATOM     16  C   UNL     1       3.001   2.287  19.441  0.00  0.00    +0.000 C 
ATOM     17  N   UNL     1       4.180   1.618  19.210  0.00  0.00    +0.000 N 
ATOM     18  H   UNL     1       5.072   2.085  19.344  0.00  0.00    +0.000 HD
BRANCH  17  19
ATOM     19  O   UNL     1       4.121   0.663  18.162  0.00  0.00    +0.000 OA
ATOM     20  H   UNL     1       4.630   1.095  17.440  0.00  0.00    +0.000 HD
ENDBRANCH  17  19
ENDBRANCH  14  16
ENDBRANCH   1  14
BRANCH   1  21
ATOM     21  C   UNL     1       4.832   5.126  19.504  0.00  0.00    +0.000 C 
BRANCH  21  22
ATOM     22  C   UNL     1       5.361   4.873  18.104  0.00  0.00    +0.000 A 
ATOM     23  C   UNL     1       4.540   4.666  16.983  0.00  0.00    +0.000 A 
ATOM     24  C   UNL     1       5.089   4.578  15.698  0.00  0.00    +0.000 A 
ATOM     25  C   UNL     1       6.474   4.680  15.525  0.00  0.00    +0.000 A 
ATOM     26  C   UNL     1       7.315   4.799  16.635  0.00  0.00    +0.000 A 
ATOM     27  C   UNL     1       6.756   4.892  17.914  0.00  0.00    +0.000 A 
BRANCH  25  28
ATOM     28  N   UNL     1       7.040   4.719  14.171  0.00  0.00    +0.000 N 
ATOM     29  O   UNL     1       7.970   5.511  13.958  0.00  0.00    +0.000 OA
ATOM     30  O   UNL     1       6.570   3.943  13.327  0.00  0.00    +0.000 OA
ENDBRANCH  25  28
ENDBRANCH  21  22
ENDBRANCH   1  21
TORSDOF 7
ENDMDL
MODEL 7
REMARK VINA RESULT:      -8.3      1.310      1.605
REMARK  Name = 
REMARK  7 active torsions:
REMARK  status: ('A' for Active; 'I' for Inactive)
REMARK    1  A    between atoms: C_2  and  C_3
REMARK    2  A    between atoms: C_3  and  N_4
REMARK    3  A    between atoms: N_4  and  C_5
REMARK    4  A    between atoms: C_5  and  C_6
REMARK    5  A    between atoms: C_9  and  N_10
REMARK    6  A    between atoms: N_17  and  C_18
REMARK    7  A    between atoms: N_26  and  O_27
REMARK                            x       y       z     vdW  Elec       q    Type
REMARK                         _______ _______ _______ _____ _____    ______ ____
ROOT
ATOM      1  N   UNL     1       3.152   4.851  19.650  0.00  0.00    +0.000 N 
ATOM      2  C   UNL     1       2.146   5.748  19.979  0.00  0.00    +0.000 C 
ATOM      3  O   UNL     1       1.026   5.342  20.302  0.00  0.00    +0.000 OA
ATOM      4  N   UNL     1       2.465   7.086  19.943  0.00  0.00    +0.000 N 
ATOM      5  H   UNL     1       3.195   7.385  19.311  0.00  0.00    +0.000 HD
ENDROOT
BRANCH   4   6
ATOM      6  C   UNL     1       1.618   8.136  20.389  0.00  0.00    +0.000 A 
ATOM      7  C   UNL     1       1.291   8.344  21.735  0.00  0.00    +0.000 A 
ATOM      8  C   UNL     1       0.408   9.365  22.102  0.00  0.00    +0.000 A 
ATOM      9  C   UNL     1      -0.137  10.189  21.127  0.00  0.00    +0.000 A 
ATOM     10  F   UNL     1      -1.001  11.148  21.483  0.00  0.00    +0.000 F 
ATOM     11  C   UNL     1       0.199  10.028  19.790  0.00  0.00    +0.000 A 
ATOM     12  C   UNL     1       1.081   9.011  19.434  0.00  0.00    +0.000 A 
ATOM     13  F   UNL     1       1.395   8.848  18.138  0.00  0.00    +0.000 F 
ENDBRANCH   4   6
BRANCH   1  14
ATOM     14  C   UNL     1       2.832   3.415  19.815  0.00  0.00    +0.000 C 
BRANCH  14  16
ATOM     15  O   UNL     1       3.062   2.333  21.974  0.00  0.00    +0.000 OA
ATOM     16  C   UNL     1       3.579   2.630  20.894  0.00  0.00    +0.000 C 
ATOM     17  N   UNL     1       4.813   2.145  20.531  0.00  0.00    +0.000 N 
ATOM     18  H   UNL     1       5.050   2.020  19.551  0.00  0.00    +0.000 HD
BRANCH  17  19
ATOM     19  O   UNL     1       5.366   1.204  21.438  0.00  0.00    +0.000 OA
ATOM     20  H   UNL     1       6.335   1.332  21.326  0.00  0.00    +0.000 HD
ENDBRANCH  17  19
ENDBRANCH  14  16
ENDBRANCH   1  14
BRANCH   1  21
ATOM     21  C   UNL     1       4.567   5.204  19.471  0.00  0.00    +0.000 C 
BRANCH  21  22
ATOM     22  C   UNL     1       5.085   5.222  18.044  0.00  0.00    +0.000 A 
ATOM     23  C   UNL     1       5.834   6.276  17.496  0.00  0.00    +0.000 A 
ATOM     24  C   UNL     1       6.399   6.167  16.220  0.00  0.00    +0.000 A 
ATOM     25  C   UNL     1       6.203   5.003  15.470  0.00  0.00    +0.000 A 
ATOM     26  C   UNL     1       5.389   3.978  15.961  0.00  0.00    +0.000 A 
ATOM     27  C   UNL     1       4.834   4.094  17.239  0.00  0.00    +0.000 A 
BRANCH  25  28
ATOM     28  N   UNL     1       6.900   4.832  14.189  0.00  0.00    +0.000 N 
ATOM     29  O   UNL     1       7.886   5.550  13.969  0.00  0.00    +0.000 OA
ATOM     30  O   UNL     1       6.474   3.966  13.412  0.00  0.00    +0.000 OA
ENDBRANCH  25  28
ENDBRANCH  21  22
ENDBRANCH   1  21
TORSDOF 7
ENDMDL
MODEL 8
REMARK VINA RESULT:      -8.2      1.464      1.946
REMARK  Name = 
REMARK  7 active torsions:
REMARK  status: ('A' for Active; 'I' for Inactive)
REMARK    1  A    between atoms: C_2  and  C_3
REMARK    2  A    between atoms: C_3  and  N_4
REMARK    3  A    between atoms: N_4  and  C_5
REMARK    4  A    between atoms: C_5  and  C_6
REMARK    5  A    between atoms: C_9  and  N_10
REMARK    6  A    between atoms: N_17  and  C_18
REMARK    7  A    between atoms: N_26  and  O_27
REMARK                            x       y       z     vdW  Elec       q    Type
REMARK                         _______ _______ _______ _____ _____    ______ ____
ROOT
ATOM      1  N   UNL     1       3.550   4.741  19.019  0.00  0.00    +0.000 N 
ATOM      2  C   UNL     1       2.497   5.639  19.114  0.00  0.00    +0.000 C 
ATOM      3  O   UNL     1       1.348   5.236  19.314  0.00  0.00    +0.000 OA
ATOM      4  N   UNL     1       2.801   6.976  18.995  0.00  0.00    +0.000 N 
ATOM      5  H   UNL     1       3.610   7.233  18.445  0.00  0.00    +0.000 HD
ENDROOT
BRANCH   4   6
ATOM      6  C   UNL     1       1.887   8.040  19.214  0.00  0.00    +0.000 A 
ATOM      7  C   UNL     1       1.454   8.907  18.202  0.00  0.00    +0.000 A 
ATOM      8  C   UNL     1       0.592   9.967  18.496  0.00  0.00    +0.000 A 
ATOM      9  C   UNL     1       0.147  10.156  19.797  0.00  0.00    +0.000 A 
ATOM     10  F   UNL     1      -0.657  11.189  20.076  0.00  0.00    +0.000 F 
ATOM     11  C   UNL     1       0.531   9.290  20.813  0.00  0.00    +0.000 A 
ATOM     12  C   UNL     1       1.388   8.234  20.511  0.00  0.00    +0.000 A 
ATOM     13  F   UNL     1       1.768   7.405  21.496  0.00  0.00    +0.000 F 
ENDBRANCH   4   6
BRANCH   1  14
ATOM     14  C   UNL     1       3.228   3.319  19.275  0.00  0.00    +0.000 C 
BRANCH  14  16
ATOM     15  O   UNL     1       3.241   2.532  21.569  0.00  0.00    +0.000 OA
ATOM     16  C   UNL     1       3.848   2.650  20.502  0.00  0.00    +0.000 C 
ATOM     17  N   UNL     1       5.070   2.054  20.301  0.00  0.00    +0.000 N 
ATOM     18  H   UNL     1       5.365   1.783  19.367  0.00  0.00    +0.000 HD
BRANCH  17  19
ATOM     19  O   UNL     1       5.499   1.216  21.363  0.00  0.00    +0.000 OA
ATOM     20  H   UNL     1       6.265   1.708  21.737  0.00  0.00    +0.000 HD
ENDBRANCH  17  19
ENDBRANCH  14  16
ENDBRANCH   1  14
BRANCH   1  21
ATOM     21  C   UNL     1       4.972   5.113  19.007  0.00  0.00    +0.000 C 
BRANCH  21  22
ATOM     22  C   UNL     1       5.654   5.140  17.651  0.00  0.00    +0.000 A 
ATOM     23  C   UNL     1       6.914   4.575  17.397  0.00  0.00    +0.000 A 
ATOM     24  C   UNL     1       7.423   4.511  16.094  0.00  0.00    +0.000 A 
ATOM     25  C   UNL     1       6.677   5.030  15.030  0.00  0.00    +0.000 A 
ATOM     26  C   UNL     1       5.460   5.674  15.272  0.00  0.00    +0.000 A 
ATOM     27  C   UNL     1       4.958   5.728  16.577  0.00  0.00    +0.000 A 
BRANCH  25  28
ATOM     28  N   UNL     1       7.146   4.848  13.651  0.00  0.00    +0.000 N 
ATOM     29  O   UNL     1       6.654   3.922  12.992  0.00  0.00    +0.000 OA
ATOM     30  O   UNL     1       7.991   5.646  13.220  0.00  0.00    +0.000 OA
ENDBRANCH  25  28
ENDBRANCH  21  22
ENDBRANCH   1  21
TORSDOF 7
ENDMDL
MODEL 9
REMARK VINA RESULT:      -8.1      1.642      2.124
REMARK  Name = 
REMARK  7 active torsions:
REMARK  status: ('A' for Active; 'I' for Inactive)
REMARK    1  A    between atoms: C_2  and  C_3
REMARK    2  A    between atoms: C_3  and  N_4
REMARK    3  A    between atoms: N_4  and  C_5
REMARK    4  A    between atoms: C_5  and  C_6
REMARK    5  A    between atoms: C_9  and  N_10
REMARK    6  A    between atoms: N_17  and  C_18
REMARK    7  A    between atoms: N_26  and  O_27
REMARK                            x       y       z     vdW  Elec       q    Type
REMARK                         _______ _______ _______ _____ _____    ______ ____
ROOT
ATOM      1  N   UNL     1       3.773   4.395  18.302  0.00  0.00    +0.000 N 
ATOM      2  C   UNL     1       2.759   5.323  18.491  0.00  0.00    +0.000 C 
ATOM      3  O   UNL     1       1.617   4.954  18.777  0.00  0.00    +0.000 OA
ATOM      4  N   UNL     1       3.095   6.652  18.363  0.00  0.00    +0.000 N 
ATOM      5  H   UNL     1       3.866   6.891  17.754  0.00  0.00    +0.000 HD
ENDROOT
BRANCH   4   6
ATOM      6  C   UNL     1       2.235   7.741  18.665  0.00  0.00    +0.000 A 
ATOM      7  C   UNL     1       1.793   8.664  17.709  0.00  0.00    +0.000 A 
ATOM      8  C   UNL     1       0.988   9.744  18.084  0.00  0.00    +0.000 A 
ATOM      9  C   UNL     1       0.610   9.896  19.411  0.00  0.00    +0.000 A 
ATOM     10  F   UNL     1      -0.139  10.947  19.767  0.00  0.00    +0.000 F 
ATOM     11  C   UNL     1       1.003   8.975  20.373  0.00  0.00    +0.000 A 
ATOM     12  C   UNL     1       1.802   7.901  19.990  0.00  0.00    +0.000 A 
ATOM     13  F   UNL     1       2.192   7.017  20.924  0.00  0.00    +0.000 F 
ENDBRANCH   4   6
BRANCH   1  14
ATOM     14  C   UNL     1       3.427   2.981  18.567  0.00  0.00    +0.000 C 
BRANCH  14  16
ATOM     15  O   UNL     1       4.645   2.050  20.446  0.00  0.00    +0.000 OA
ATOM     16  C   UNL     1       3.572   2.459  19.997  0.00  0.00    +0.000 C 
ATOM     17  N   UNL     1       2.468   2.610  20.801  0.00  0.00    +0.000 N 
ATOM     18  H   UNL     1       1.760   3.304  20.580  0.00  0.00    +0.000 HD
BRANCH  17  19
ATOM     19  O   UNL     1       2.706   2.373  22.180  0.00  0.00    +0.000 OA
ATOM     20  H   UNL     1       1.840   2.032  22.499  0.00  0.00    +0.000 HD
ENDBRANCH  17  19
ENDBRANCH  14  16
ENDBRANCH   1  14
BRANCH   1  21
ATOM     21  C   UNL     1       5.200   4.723  18.182  0.00  0.00    +0.000 C 
BRANCH  21  22
ATOM     22  C   UNL     1       5.802   4.629  16.792  0.00  0.00    +0.000 A 
ATOM     23  C   UNL     1       5.122   4.109  15.679  0.00  0.00    +0.000 A 
ATOM     24  C   UNL     1       5.683   4.180  14.397  0.00  0.00    +0.000 A 
ATOM     25  C   UNL     1       6.944   4.760  14.222  0.00  0.00    +0.000 A 
ATOM     26  C   UNL     1       7.675   5.204  15.328  0.00  0.00    +0.000 A 
ATOM     27  C   UNL     1       7.103   5.133  16.602  0.00  0.00    +0.000 A 
BRANCH  25  28
ATOM     28  N   UNL     1       7.477   4.954  12.868  0.00  0.00    +0.000 N 
ATOM     29  O   UNL     1       7.068   4.200  11.973  0.00  0.00    +0.000 OA
ATOM     30  O   UNL     1       8.290   5.874  12.695  0.00  0.00    +0.000 OA
ENDBRANCH  25  28
ENDBRANCH  21  22
ENDBRANCH   1  21
TORSDOF 7
ENDMDL
