MODEL 1
REMARK VINA RESULT:      -7.5      0.000      0.000
REMARK  Name = 
REMARK  8 active torsions:
REMARK  status: ('A' for Active; 'I' for Inactive)
REMARK    1  A    between atoms: C_1  and  N_2
REMARK    2  A    between atoms: N_2  and  C_3
REMARK    3  A    between atoms: N_2  and  C_4
REMARK    4  A    between atoms: N_2  and  C_22
REMARK    5  A    between atoms: C_4  and  C_5
REMARK    6  A    between atoms: C_5  and  C_6
REMARK    7  A    between atoms: C_6  and  N_7
REMARK    8  A    between atoms: C_22  and  C_23
REMARK                            x       y       z     vdW  Elec       q    Type
REMARK                         _______ _______ _______ _____ _____    ______ ____
ROOT
ATOM      1  N   UNL     1       3.492   5.939  18.085  0.00  0.00    +0.000 N 
ATOM      2  C   UNL     1       2.774   4.734  18.293  0.00  0.00    +0.000 A 
ATOM      3  C   UNL     1       1.385   4.559  18.117  0.00  0.00    +0.000 A 
ATOM      4  C   UNL     1       0.680   3.370  18.360  0.00  0.00    +0.000 A 
ATOM      5  C   UNL     1       1.354   2.266  18.796  0.00  0.00    +0.000 A 
ATOM      6  C   UNL     1       2.724   2.360  18.956  0.00  0.00    +0.000 A 
ATOM      7  C   UNL     1       3.431   3.552  18.711  0.00  0.00    +0.000 A 
ATOM      8  S   UNL     1       5.183   3.406  18.982  0.00  0.00    +0.000 S 
ATOM      9  C   UNL     1       5.774   5.002  18.514  0.00  0.00    +0.000 A 
ATOM     10  C   UNL     1       7.181   5.143  18.578  0.00  0.00    +0.000 A 
ATOM     11  C   UNL     1       7.810   6.341  18.255  0.00  0.00    +0.000 A 
ATOM     12  C   UNL     1       7.029   7.398  17.839  0.00  0.00    +0.000 A 
ATOM     13 CL   UNL     1       7.770   8.896  17.418  0.00  0.00    +0.000 Cl
ATOM     14  C   UNL     1       5.633   7.265  17.766  0.00  0.00    +0.000 A 
ATOM     15  C   UNL     1       4.949   6.067  18.121  0.00  0.00    +0.000 A 
ENDROOT
BRANCH   1  16
ATOM     16  C   UNL     1       2.868   7.232  17.695  0.00  0.00    +0.000 C 
BRANCH  16  17
ATOM     17  C   UNL     1       2.083   8.107  18.651  0.00  0.00    +0.000 C 
BRANCH  17  18
ATOM     18  C   UNL     1       1.750   9.524  18.194  0.00  0.00    +0.000 C 
BRANCH  18  20
ATOM     19  C   UNL     1       1.152  10.284  20.576  0.00  0.00    +0.000 C 
ATOM     20  N   UNL     1       0.769  10.314  19.106  0.00  0.00    +0.000 N 
ATOM     21  C   UNL     1       0.673  11.768  18.618  0.00  0.00    +0.000 C 
BRANCH  20  22
ATOM     22  C   UNL     1      -0.632   9.640  19.054  0.00  0.00    +0.000 C 
BRANCH  22  23
ATOM     23  C   UNL     1      -1.661  10.305  18.196  0.00  0.00    +0.000 A 
ATOM     24  C   UNL     1      -2.588  11.185  18.764  0.00  0.00    +0.000 A 
ATOM     25  C   UNL     1      -3.646  11.675  17.993  0.00  0.00    +0.000 A 
ATOM     26  C   UNL     1      -3.768  11.297  16.654  0.00  0.00    +0.000 A 
ATOM     27  C   UNL     1      -2.817  10.465  16.076  0.00  0.00    +0.000 A 
ATOM     28 CL   UNL     1      -2.968   9.982  14.434  0.00  0.00    +0.000 Cl
ATOM     29  C   UNL     1      -1.754   9.998  16.830  0.00  0.00    +0.000 A 
ENDBRANCH  22  23
ENDBRANCH  20  22
ENDBRANCH  18  20
ENDBRANCH  17  18
ENDBRANCH  16  17
ENDBRANCH   1  16
TORSDOF 6
ENDMDL
MODEL 2
REMARK VINA RESULT:      -7.1      1.071      1.149
REMARK  Name = 
REMARK  8 active torsions:
REMARK  status: ('A' for Active; 'I' for Inactive)
REMARK    1  A    between atoms: C_1  and  N_2
REMARK    2  A    between atoms: N_2  and  C_3
REMARK    3  A    between atoms: N_2  and  C_4
REMARK    4  A    between atoms: N_2  and  C_22
REMARK    5  A    between atoms: C_4  and  C_5
REMARK    6  A    between atoms: C_5  and  C_6
REMARK    7  A    between atoms: C_6  and  N_7
REMARK    8  A    between atoms: C_22  and  C_23
REMARK                            x       y       z     vdW  Elec       q    Type
REMARK                         _______ _______ _______ _____ _____    ______ ____
ROOT
ATOM      1  N   UNL     1       3.487   5.447  18.890  0.00  0.00    +0.000 N 
ATOM      2  C   UNL     1       2.597   4.343  18.873  0.00  0.00    +0.000 A 
ATOM      3  C   UNL     1       1.325   4.298  19.481  0.00  0.00    +0.000 A 
ATOM      4  C   UNL     1       0.468   3.187  19.487  0.00  0.00    +0.000 A 
ATOM      5  C   UNL     1       0.851   2.038  18.857  0.00  0.00    +0.000 A 
ATOM      6  C   UNL     1       2.073   2.027  18.210  0.00  0.00    +0.000 A 
ATOM      7  C   UNL     1       2.932   3.141  18.203  0.00  0.00    +0.000 A 
ATOM      8  S   UNL     1       4.437   2.872  17.293  0.00  0.00    +0.000 S 
ATOM      9  C   UNL     1       5.231   4.444  17.399  0.00  0.00    +0.000 A 
ATOM     10  C   UNL     1       6.454   4.527  16.690  0.00  0.00    +0.000 A 
ATOM     11  C   UNL     1       7.214   5.692  16.680  0.00  0.00    +0.000 A 
ATOM     12  C   UNL     1       6.737   6.790  17.363  0.00  0.00    +0.000 A 
ATOM     13 CL   UNL     1       7.643   8.256  17.366  0.00  0.00    +0.000 Cl
ATOM     14  C   UNL     1       5.522   6.720  18.064  0.00  0.00    +0.000 A 
ATOM     15  C   UNL     1       4.733   5.536  18.126  0.00  0.00    +0.000 A 
ENDROOT
BRANCH   1  16
ATOM     16  C   UNL     1       3.229   6.723  19.611  0.00  0.00    +0.000 C 
BRANCH  16  17
ATOM     17  C   UNL     1       2.247   7.772  19.135  0.00  0.00    +0.000 C 
BRANCH  17  18
ATOM     18  C   UNL     1       1.541   8.607  20.199  0.00  0.00    +0.000 C 
BRANCH  18  20
ATOM     19  C   UNL     1       1.053  11.109  20.538  0.00  0.00    +0.000 C 
ATOM     20  N   UNL     1       0.806   9.877  19.683  0.00  0.00    +0.000 N 
ATOM     21  C   UNL     1       1.220  10.155  18.230  0.00  0.00    +0.000 C 
BRANCH  20  22
ATOM     22  C   UNL     1      -0.730   9.646  19.766  0.00  0.00    +0.000 C 
BRANCH  22  23
ATOM     23  C   UNL     1      -1.565  10.342  18.739  0.00  0.00    +0.000 A 
ATOM     24  C   UNL     1      -2.329  11.460  19.092  0.00  0.00    +0.000 A 
ATOM     25  C   UNL     1      -3.231  12.006  18.176  0.00  0.00    +0.000 A 
ATOM     26  C   UNL     1      -3.359  11.445  16.903  0.00  0.00    +0.000 A 
ATOM     27  C   UNL     1      -2.562  10.367  16.533  0.00  0.00    +0.000 A 
ATOM     28 CL   UNL     1      -2.724   9.661  14.976  0.00  0.00    +0.000 Cl
ATOM     29  C   UNL     1      -1.649   9.840  17.432  0.00  0.00    +0.000 A 
ENDBRANCH  22  23
ENDBRANCH  20  22
ENDBRANCH  18  20
ENDBRANCH  17  18
ENDBRANCH  16  17
ENDBRANCH   1  16
TORSDOF 6
ENDMDL
MODEL 3
REMARK VINA RESULT:      -7.0      2.175      3.192
REMARK  Name = 
REMARK  8 active torsions:
REMARK  status: ('A' for Active; 'I' for Inactive)
REMARK    1  A    between atoms: C_1  and  N_2
REMARK    2  A    between atoms: N_2  and  C_3
REMARK    3  A    between atoms: N_2  and  C_4
REMARK    4  A    between atoms: N_2  and  C_22
REMARK    5  A    between atoms: C_4  and  C_5
REMARK    6  A    between atoms: C_5  and  C_6
REMARK    7  A    between atoms: C_6  and  N_7
REMARK    8  A    between atoms: C_22  and  C_23
REMARK                            x       y       z     vdW  Elec       q    Type
REMARK                         _______ _______ _______ _____ _____    ______ ____
ROOT
ATOM      1  N   UNL     1       3.653   5.941  17.992  0.00  0.00    +0.000 N 
ATOM      2  C   UNL     1       2.915   4.749  18.210  0.00  0.00    +0.000 A 
ATOM      3  C   UNL     1       1.538   4.572  17.963  0.00  0.00    +0.000 A 
ATOM      4  C   UNL     1       0.813   3.398  18.217  0.00  0.00    +0.000 A 
ATOM      5  C   UNL     1       1.453   2.310  18.736  0.00  0.00    +0.000 A 
ATOM      6  C   UNL     1       2.813   2.406  18.970  0.00  0.00    +0.000 A 
ATOM      7  C   UNL     1       3.541   3.583  18.715  0.00  0.00    +0.000 A 
ATOM      8  S   UNL     1       5.273   3.441  19.090  0.00  0.00    +0.000 S 
ATOM      9  C   UNL     1       5.900   5.013  18.588  0.00  0.00    +0.000 A 
ATOM     10  C   UNL     1       7.303   5.152  18.727  0.00  0.00    +0.000 A 
ATOM     11  C   UNL     1       7.956   6.332  18.388  0.00  0.00    +0.000 A 
ATOM     12  C   UNL     1       7.207   7.373  17.884  0.00  0.00    +0.000 A 
ATOM     13 CL   UNL     1       7.980   8.848  17.442  0.00  0.00    +0.000 Cl
ATOM     14  C   UNL     1       5.817   7.243  17.738  0.00  0.00    +0.000 A 
ATOM     15  C   UNL     1       5.106   6.064  18.105  0.00  0.00    +0.000 A 
ENDROOT
BRANCH   1  16
ATOM     16  C   UNL     1       3.059   7.219  17.513  0.00  0.00    +0.000 C 
BRANCH  16  17
ATOM     17  C   UNL     1       2.254   8.152  18.393  0.00  0.00    +0.000 C 
BRANCH  17  18
ATOM     18  C   UNL     1       1.874   9.510  17.812  0.00  0.00    +0.000 C 
BRANCH  18  20
ATOM     19  C   UNL     1       1.355  11.936  18.488  0.00  0.00    +0.000 C 
ATOM     20  N   UNL     1       1.107  10.464  18.772  0.00  0.00    +0.000 N 
ATOM     21  C   UNL     1      -0.398  10.162  18.702  0.00  0.00    +0.000 C 
BRANCH  20  22
ATOM     22  C   UNL     1       1.627  10.253  20.223  0.00  0.00    +0.000 C 
BRANCH  22  23
ATOM     23  C   UNL     1       0.664  10.555  21.326  0.00  0.00    +0.000 A 
ATOM     24  C   UNL     1       0.248   9.540  22.194  0.00  0.00    +0.000 A 
ATOM     25  C   UNL     1      -0.773   9.786  23.117  0.00  0.00    +0.000 A 
ATOM     26  C   UNL     1      -1.367  11.048  23.180  0.00  0.00    +0.000 A 
ATOM     27  C   UNL     1      -0.918  12.072  22.354  0.00  0.00    +0.000 A 
ATOM     28 CL   UNL     1      -1.654  13.624  22.415  0.00  0.00    +0.000 Cl
ATOM     29  C   UNL     1       0.111  11.838  21.457  0.00  0.00    +0.000 A 
ENDBRANCH  22  23
ENDBRANCH  20  22
ENDBRANCH  18  20
ENDBRANCH  17  18
ENDBRANCH  16  17
ENDBRANCH   1  16
TORSDOF 6
ENDMDL
MODEL 4
REMARK VINA RESULT:      -6.9      3.515      7.986
REMARK  Name = 
REMARK  8 active torsions:
REMARK  status: ('A' for Active; 'I' for Inactive)
REMARK    1  A    between atoms: C_1  and  N_2
REMARK    2  A    between atoms: N_2  and  C_3
REMARK    3  A    between atoms: N_2  and  C_4
REMARK    4  A    between atoms: N_2  and  C_22
REMARK    5  A    between atoms: C_4  and  C_5
REMARK    6  A    between atoms: C_5  and  C_6
REMARK    7  A    between atoms: C_6  and  N_7
REMARK    8  A    between atoms: C_22  and  C_23
REMARK                            x       y       z     vdW  Elec       q    Type
REMARK                         _______ _______ _______ _____ _____    ______ ____
ROOT
ATOM      1  N   UNL     1       2.583   7.133  18.485  0.00  0.00    +0.000 N 
ATOM      2  C   UNL     1       2.019   8.378  18.866  0.00  0.00    +0.000 A 
ATOM      3  C   UNL     1       2.120   9.586  18.144  0.00  0.00    +0.000 A 
ATOM      4  C   UNL     1       1.587  10.819  18.550  0.00  0.00    +0.000 A 
ATOM      5  C   UNL     1       0.902  10.902  19.727  0.00  0.00    +0.000 A 
ATOM      6  C   UNL     1       0.737   9.746  20.467  0.00  0.00    +0.000 A 
ATOM      7  C   UNL     1       1.270   8.509  20.060  0.00  0.00    +0.000 A 
ATOM      8  S   UNL     1       0.909   7.177  21.183  0.00  0.00    +0.000 S 
ATOM      9  C   UNL     1       1.619   5.786  20.362  0.00  0.00    +0.000 A 
ATOM     10  C   UNL     1       1.418   4.552  21.028  0.00  0.00    +0.000 A 
ATOM     11  C   UNL     1       1.924   3.359  20.523  0.00  0.00    +0.000 A 
ATOM     12  C   UNL     1       2.614   3.395  19.331  0.00  0.00    +0.000 A 
ATOM     13 CL   UNL     1       3.247   1.937  18.665  0.00  0.00    +0.000 Cl
ATOM     14  C   UNL     1       2.813   4.612  18.660  0.00  0.00    +0.000 A 
ATOM     15  C   UNL     1       2.341   5.858  19.161  0.00  0.00    +0.000 A 
ENDROOT
BRANCH   1  16
ATOM     16  C   UNL     1       3.423   6.928  17.275  0.00  0.00    +0.000 C 
BRANCH  16  17
ATOM     17  C   UNL     1       4.937   6.910  17.297  0.00  0.00    +0.000 C 
BRANCH  17  18
ATOM     18  C   UNL     1       5.614   5.936  18.256  0.00  0.00    +0.000 C 
BRANCH  18  20
ATOM     19  C   UNL     1       7.771   7.117  17.507  0.00  0.00    +0.000 C 
ATOM     20  N   UNL     1       7.168   5.910  18.207  0.00  0.00    +0.000 N 
ATOM     21  C   UNL     1       7.725   5.798  19.634  0.00  0.00    +0.000 C 
BRANCH  20  22
ATOM     22  C   UNL     1       7.632   4.693  17.355  0.00  0.00    +0.000 C 
BRANCH  22  23
ATOM     23  C   UNL     1       6.978   4.526  16.021  0.00  0.00    +0.000 A 
ATOM     24  C   UNL     1       5.823   3.747  15.896  0.00  0.00    +0.000 A 
ATOM     25  C   UNL     1       5.310   3.459  14.628  0.00  0.00    +0.000 A 
ATOM     26  C   UNL     1       5.943   3.960  13.488  0.00  0.00    +0.000 A 
ATOM     27  C   UNL     1       7.060   4.777  13.614  0.00  0.00    +0.000 A 
ATOM     28 CL   UNL     1       7.855   5.385  12.218  0.00  0.00    +0.000 Cl
ATOM     29  C   UNL     1       7.555   5.085  14.871  0.00  0.00    +0.000 A 
ENDBRANCH  22  23
ENDBRANCH  20  22
ENDBRANCH  18  20
ENDBRANCH  17  18
ENDBRANCH  16  17
ENDBRANCH   1  16
TORSDOF 6
ENDMDL
MODEL 5
REMARK VINA RESULT:      -6.9      4.605      7.376
REMARK  Name = 
REMARK  8 active torsions:
REMARK  status: ('A' for Active; 'I' for Inactive)
REMARK    1  A    between atoms: C_1  and  N_2
REMARK    2  A    between atoms: N_2  and  C_3
REMARK    3  A    between atoms: N_2  and  C_4
REMARK    4  A    between atoms: N_2  and  C_22
REMARK    5  A    between atoms: C_4  and  C_5
REMARK    6  A    between atoms: C_5  and  C_6
REMARK    7  A    between atoms: C_6  and  N_7
REMARK    8  A    between atoms: C_22  and  C_23
REMARK                            x       y       z     vdW  Elec       q    Type
REMARK                         _______ _______ _______ _____ _____    ______ ____
ROOT
ATOM      1  N   UNL     1       0.902  10.665  19.462  0.00  0.00    +0.000 N 
ATOM      2  C   UNL     1       1.557   9.440  19.174  0.00  0.00    +0.000 A 
ATOM      3  C   UNL     1       2.349   9.174  18.037  0.00  0.00    +0.000 A 
ATOM      4  C   UNL     1       2.964   7.947  17.747  0.00  0.00    +0.000 A 
ATOM      5  C   UNL     1       2.818   6.900  18.610  0.00  0.00    +0.000 A 
ATOM      6  C   UNL     1       2.082   7.104  19.763  0.00  0.00    +0.000 A 
ATOM      7  C   UNL     1       1.466   8.335  20.055  0.00  0.00    +0.000 A 
ATOM      8  S   UNL     1       0.588   8.339  21.602  0.00  0.00    +0.000 S 
ATOM      9  C   UNL     1       0.023  10.008  21.713  0.00  0.00    +0.000 A 
ATOM     10  C   UNL     1      -0.673  10.308  22.909  0.00  0.00    +0.000 A 
ATOM     11  C   UNL     1      -1.196  11.574  23.150  0.00  0.00    +0.000 A 
ATOM     12  C   UNL     1      -1.001  12.554  22.202  0.00  0.00    +0.000 A 
ATOM     13 CL   UNL     1      -1.623  14.139  22.468  0.00  0.00    +0.000 Cl
ATOM     14  C   UNL     1      -0.307  12.268  21.015  0.00  0.00    +0.000 A 
ATOM     15  C   UNL     1       0.214  10.976  20.716  0.00  0.00    +0.000 A 
ENDROOT
BRANCH   1  16
ATOM     16  C   UNL     1       0.908  11.852  18.565  0.00  0.00    +0.000 C 
BRANCH  16  17
ATOM     17  C   UNL     1       2.129  12.715  18.325  0.00  0.00    +0.000 C 
BRANCH  17  18
ATOM     18  C   UNL     1       1.928  14.228  18.318  0.00  0.00    +0.000 C 
BRANCH  18  20
ATOM     19  C   UNL     1       3.655  14.488  20.205  0.00  0.00    +0.000 C 
ATOM     20  N   UNL     1       3.094  15.066  18.917  0.00  0.00    +0.000 N 
ATOM     21  C   UNL     1       4.212  15.208  17.874  0.00  0.00    +0.000 C 
BRANCH  20  22
ATOM     22  C   UNL     1       2.558  16.470  19.320  0.00  0.00    +0.000 C 
BRANCH  22  23
ATOM     23  C   UNL     1       1.539  17.080  18.411  0.00  0.00    +0.000 A 
ATOM     24  C   UNL     1       1.930  17.646  17.193  0.00  0.00    +0.000 A 
ATOM     25  C   UNL     1       1.005  18.358  16.426  0.00  0.00    +0.000 A 
ATOM     26  C   UNL     1      -0.312  18.493  16.868  0.00  0.00    +0.000 A 
ATOM     27  C   UNL     1      -0.715  17.887  18.052  0.00  0.00    +0.000 A 
ATOM     28 CL   UNL     1      -2.330  18.061  18.612  0.00  0.00    +0.000 Cl
ATOM     29  C   UNL     1       0.194  17.159  18.802  0.00  0.00    +0.000 A 
ENDBRANCH  22  23
ENDBRANCH  20  22
ENDBRANCH  18  20
ENDBRANCH  17  18
ENDBRANCH  16  17
ENDBRANCH   1  16
TORSDOF 6
ENDMDL
MODEL 6
REMARK VINA RESULT:      -6.9      0.975      1.516
REMARK  Name = 
REMARK  8 active torsions:
REMARK  status: ('A' for Active; 'I' for Inactive)
REMARK    1  A    between atoms: C_1  and  N_2
REMARK    2  A    between atoms: N_2  and  C_3
REMARK    3  A    between atoms: N_2  and  C_4
REMARK    4  A    between atoms: N_2  and  C_22
REMARK    5  A    between atoms: C_4  and  C_5
REMARK    6  A    between atoms: C_5  and  C_6
REMARK    7  A    between atoms: C_6  and  N_7
REMARK    8  A    between atoms: C_22  and  C_23
REMARK                            x       y       z     vdW  Elec       q    Type
REMARK                         _______ _______ _______ _____ _____    ______ ____
ROOT
ATOM      1  N   UNL     1       3.541   5.870  18.070  0.00  0.00    +0.000 N 
ATOM      2  C   UNL     1       2.787   4.702  18.349  0.00  0.00    +0.000 A 
ATOM      3  C   UNL     1       1.415   4.519  18.080  0.00  0.00    +0.000 A 
ATOM      4  C   UNL     1       0.673   3.370  18.393  0.00  0.00    +0.000 A 
ATOM      5  C   UNL     1       1.290   2.315  19.000  0.00  0.00    +0.000 A 
ATOM      6  C   UNL     1       2.644   2.415  19.261  0.00  0.00    +0.000 A 
ATOM      7  C   UNL     1       3.389   3.567  18.946  0.00  0.00    +0.000 A 
ATOM      8  S   UNL     1       5.110   3.438  19.374  0.00  0.00    +0.000 S 
ATOM      9  C   UNL     1       5.764   4.967  18.785  0.00  0.00    +0.000 A 
ATOM     10  C   UNL     1       7.164   5.104  18.949  0.00  0.00    +0.000 A 
ATOM     11  C   UNL     1       7.837   6.253  18.549  0.00  0.00    +0.000 A 
ATOM     12  C   UNL     1       7.110   7.264  17.958  0.00  0.00    +0.000 A 
ATOM     13 CL   UNL     1       7.908   8.700  17.438  0.00  0.00    +0.000 Cl
ATOM     14  C   UNL     1       5.723   7.136  17.785  0.00  0.00    +0.000 A 
ATOM     15  C   UNL     1       4.993   5.990  18.212  0.00  0.00    +0.000 A 
ENDROOT
BRANCH   1  16
ATOM     16  C   UNL     1       2.972   7.118  17.492  0.00  0.00    +0.000 C 
BRANCH  16  17
ATOM     17  C   UNL     1       2.157   8.116  18.287  0.00  0.00    +0.000 C 
BRANCH  17  18
ATOM     18  C   UNL     1       1.955   7.832  19.773  0.00  0.00    +0.000 C 
BRANCH  18  20
ATOM     19  C   UNL     1      -0.356   8.524  20.663  0.00  0.00    +0.000 C 
ATOM     20  N   UNL     1       1.117   8.884  20.553  0.00  0.00    +0.000 N 
ATOM     21  C   UNL     1       1.715   9.081  21.954  0.00  0.00    +0.000 C 
BRANCH  20  22
ATOM     22  C   UNL     1       1.132  10.230  19.772  0.00  0.00    +0.000 C 
BRANCH  22  23
ATOM     23  C   UNL     1      -0.188  10.729  19.279  0.00  0.00    +0.000 A 
ATOM     24  C   UNL     1      -0.918  11.653  20.033  0.00  0.00    +0.000 A 
ATOM     25  C   UNL     1      -2.220  11.991  19.653  0.00  0.00    +0.000 A 
ATOM     26  C   UNL     1      -2.785  11.417  18.513  0.00  0.00    +0.000 A 
ATOM     27  C   UNL     1      -2.042  10.538  17.733  0.00  0.00    +0.000 A 
ATOM     28 CL   UNL     1      -2.735   9.814  16.337  0.00  0.00    +0.000 Cl
ATOM     29  C   UNL     1      -0.742  10.221  18.094  0.00  0.00    +0.000 A 
ENDBRANCH  22  23
ENDBRANCH  20  22
ENDBRANCH  18  20
ENDBRANCH  17  18
ENDBRANCH  16  17
ENDBRANCH   1  16
TORSDOF 6
ENDMDL
MODEL 7
REMARK VINA RESULT:      -6.8      1.131      1.533
REMARK  Name = 
REMARK  8 active torsions:
REMARK  status: ('A' for Active; 'I' for Inactive)
REMARK    1  A    between atoms: C_1  and  N_2
REMARK    2  A    between atoms: N_2  and  C_3
REMARK    3  A    between atoms: N_2  and  C_4
REMARK    4  A    between atoms: N_2  and  C_22
REMARK    5  A    between atoms: C_4  and  C_5
REMARK    6  A    between atoms: C_5  and  C_6
REMARK    7  A    between atoms: C_6  and  N_7
REMARK    8  A    between atoms: C_22  and  C_23
REMARK                            x       y       z     vdW  Elec       q    Type
REMARK                         _______ _______ _______ _____ _____    ______ ____
ROOT
ATOM      1  N   UNL     1       3.488   5.852  18.177  0.00  0.00    +0.000 N 
ATOM      2  C   UNL     1       2.774   4.649  18.415  0.00  0.00    +0.000 A 
ATOM      3  C   UNL     1       1.386   4.465  18.248  0.00  0.00    +0.000 A 
ATOM      4  C   UNL     1       0.686   3.280  18.521  0.00  0.00    +0.000 A 
ATOM      5  C   UNL     1       1.365   2.188  18.979  0.00  0.00    +0.000 A 
ATOM      6  C   UNL     1       2.736   2.290  19.132  0.00  0.00    +0.000 A 
ATOM      7  C   UNL     1       3.437   3.479  18.857  0.00  0.00    +0.000 A 
ATOM      8  S   UNL     1       5.191   3.345  19.126  0.00  0.00    +0.000 S 
ATOM      9  C   UNL     1       5.774   4.932  18.619  0.00  0.00    +0.000 A 
ATOM     10  C   UNL     1       7.181   5.081  18.675  0.00  0.00    +0.000 A 
ATOM     11  C   UNL     1       7.804   6.273  18.322  0.00  0.00    +0.000 A 
ATOM     12  C   UNL     1       7.018   7.317  17.885  0.00  0.00    +0.000 A 
ATOM     13 CL   UNL     1       7.752   8.808  17.428  0.00  0.00    +0.000 Cl
ATOM     14  C   UNL     1       5.622   7.178  17.820  0.00  0.00    +0.000 A 
ATOM     15  C   UNL     1       4.945   5.986  18.205  0.00  0.00    +0.000 A 
ENDROOT
BRANCH   1  16
ATOM     16  C   UNL     1       2.857   7.133  17.760  0.00  0.00    +0.000 C 
BRANCH  16  17
ATOM     17  C   UNL     1       2.244   8.121  18.731  0.00  0.00    +0.000 C 
BRANCH  17  18
ATOM     18  C   UNL     1       1.348   9.212  18.151  0.00  0.00    +0.000 C 
BRANCH  18  20
ATOM     19  C   UNL     1      -0.383   9.453  20.036  0.00  0.00    +0.000 C 
ATOM     20  N   UNL     1       0.668  10.150  19.188  0.00  0.00    +0.000 N 
ATOM     21  C   UNL     1       1.740  10.778  20.092  0.00  0.00    +0.000 C 
BRANCH  20  22
ATOM     22  C   UNL     1      -0.113  11.264  18.434  0.00  0.00    +0.000 C 
BRANCH  22  23
ATOM     23  C   UNL     1      -1.530  10.953  18.069  0.00  0.00    +0.000 A 
ATOM     24  C   UNL     1      -1.809  10.059  17.030  0.00  0.00    +0.000 A 
ATOM     25  C   UNL     1      -3.123   9.897  16.584  0.00  0.00    +0.000 A 
ATOM     26  C   UNL     1      -4.158  10.617  17.185  0.00  0.00    +0.000 A 
ATOM     27  C   UNL     1      -3.888  11.466  18.252  0.00  0.00    +0.000 A 
ATOM     28 CL   UNL     1      -5.153  12.367  18.987  0.00  0.00    +0.000 Cl
ATOM     29  C   UNL     1      -2.590  11.609  18.713  0.00  0.00    +0.000 A 
ENDBRANCH  22  23
ENDBRANCH  20  22
ENDBRANCH  18  20
ENDBRANCH  17  18
ENDBRANCH  16  17
ENDBRANCH   1  16
TORSDOF 6
ENDMDL
MODEL 8
REMARK VINA RESULT:      -6.8      3.529      9.320
REMARK  Name = 
REMARK  8 active torsions:
REMARK  status: ('A' for Active; 'I' for Inactive)
REMARK    1  A    between atoms: C_1  and  N_2
REMARK    2  A    between atoms: N_2  and  C_3
REMARK    3  A    between atoms: N_2  and  C_4
REMARK    4  A    between atoms: N_2  and  C_22
REMARK    5  A    between atoms: C_4  and  C_5
REMARK    6  A    between atoms: C_5  and  C_6
REMARK    7  A    between atoms: C_6  and  N_7
REMARK    8  A    between atoms: C_22  and  C_23
REMARK                            x       y       z     vdW  Elec       q    Type
REMARK                         _______ _______ _______ _____ _____    ______ ____
ROOT
ATOM      1  N   UNL     1      -1.189  11.413  19.101  0.00  0.00    +0.000 N 
ATOM      2  C   UNL     1      -1.301  12.043  20.367  0.00  0.00    +0.000 A 
ATOM      3  C   UNL     1      -0.242  12.288  21.266  0.00  0.00    +0.000 A 
ATOM      4  C   UNL     1      -0.372  12.881  22.530  0.00  0.00    +0.000 A 
ATOM      5  C   UNL     1      -1.604  13.277  22.965  0.00  0.00    +0.000 A 
ATOM      6  C   UNL     1      -2.682  13.097  22.117  0.00  0.00    +0.000 A 
ATOM      7  C   UNL     1      -2.551  12.503  20.848  0.00  0.00    +0.000 A 
ATOM      8  S   UNL     1      -4.085  12.398  19.953  0.00  0.00    +0.000 S 
ATOM      9  C   UNL     1      -3.577  11.708  18.410  0.00  0.00    +0.000 A 
ATOM     10  C   UNL     1      -4.621  11.569  17.463  0.00  0.00    +0.000 A 
ATOM     11  C   UNL     1      -4.394  11.031  16.201  0.00  0.00    +0.000 A 
ATOM     12  C   UNL     1      -3.110  10.652  15.873  0.00  0.00    +0.000 A 
ATOM     13 CL   UNL     1      -2.785   9.990  14.315  0.00  0.00    +0.000 Cl
ATOM     14  C   UNL     1      -2.068  10.791  16.803  0.00  0.00    +0.000 A 
ATOM     15  C   UNL     1      -2.266  11.305  18.116  0.00  0.00    +0.000 A 
ENDROOT
BRANCH   1  16
ATOM     16  C   UNL     1       0.077  10.859  18.549  0.00  0.00    +0.000 C 
BRANCH  16  17
ATOM     17  C   UNL     1       0.638   9.505  18.932  0.00  0.00    +0.000 C 
BRANCH  17  18
ATOM     18  C   UNL     1       1.513   8.793  17.905  0.00  0.00    +0.000 C 
BRANCH  18  20
ATOM     19  C   UNL     1       3.708   7.454  17.955  0.00  0.00    +0.000 C 
ATOM     20  N   UNL     1       2.262   7.530  18.417  0.00  0.00    +0.000 N 
ATOM     21  C   UNL     1       2.199   7.483  19.951  0.00  0.00    +0.000 C 
BRANCH  20  22
ATOM     22  C   UNL     1       1.593   6.260  17.816  0.00  0.00    +0.000 C 
BRANCH  22  23
ATOM     23  C   UNL     1       2.072   4.944  18.339  0.00  0.00    +0.000 A 
ATOM     24  C   UNL     1       2.847   4.106  17.531  0.00  0.00    +0.000 A 
ATOM     25  C   UNL     1       3.154   2.812  17.960  0.00  0.00    +0.000 A 
ATOM     26  C   UNL     1       2.697   2.361  19.200  0.00  0.00    +0.000 A 
ATOM     27  C   UNL     1       1.971   3.211  20.026  0.00  0.00    +0.000 A 
ATOM     28 CL   UNL     1       1.391   2.660  21.547  0.00  0.00    +0.000 Cl
ATOM     29  C   UNL     1       1.688   4.503  19.614  0.00  0.00    +0.000 A 
ENDBRANCH  22  23
ENDBRANCH  20  22
ENDBRANCH  18  20
ENDBRANCH  17  18
ENDBRANCH  16  17
ENDBRANCH   1  16
TORSDOF 6
ENDMDL
MODEL 9
REMARK VINA RESULT:      -6.7      2.239      3.065
REMARK  Name = 
REMARK  8 active torsions:
REMARK  status: ('A' for Active; 'I' for Inactive)
REMARK    1  A    between atoms: C_1  and  N_2
REMARK    2  A    between atoms: N_2  and  C_3
REMARK    3  A    between atoms: N_2  and  C_4
REMARK    4  A    between atoms: N_2  and  C_22
REMARK    5  A    between atoms: C_4  and  C_5
REMARK    6  A    between atoms: C_5  and  C_6
REMARK    7  A    between atoms: C_6  and  N_7
REMARK    8  A    between atoms: C_22  and  C_23
REMARK                            x       y       z     vdW  Elec       q    Type
REMARK                         _______ _______ _______ _____ _____    ______ ____
ROOT
ATOM      1  N   UNL     1       3.554   5.822  18.045  0.00  0.00    +0.000 N 
ATOM      2  C   UNL     1       2.802   4.642  18.281  0.00  0.00    +0.000 A 
ATOM      3  C   UNL     1       1.420   4.483  18.050  0.00  0.00    +0.000 A 
ATOM      4  C   UNL     1       0.681   3.321  18.320  0.00  0.00    +0.000 A 
ATOM      5  C   UNL     1       1.312   2.228  18.841  0.00  0.00    +0.000 A 
ATOM      6  C   UNL     1       2.675   2.306  19.060  0.00  0.00    +0.000 A 
ATOM      7  C   UNL     1       3.416   3.471  18.788  0.00  0.00    +0.000 A 
ATOM      8  S   UNL     1       5.151   3.308  19.146  0.00  0.00    +0.000 S 
ATOM      9  C   UNL     1       5.794   4.866  18.626  0.00  0.00    +0.000 A 
ATOM     10  C   UNL     1       7.200   4.986  18.748  0.00  0.00    +0.000 A 
ATOM     11  C   UNL     1       7.867   6.154  18.394  0.00  0.00    +0.000 A 
ATOM     12  C   UNL     1       7.127   7.202  17.890  0.00  0.00    +0.000 A 
ATOM     13 CL   UNL     1       7.916   8.663  17.428  0.00  0.00    +0.000 Cl
ATOM     14  C   UNL     1       5.733   7.091  17.759  0.00  0.00    +0.000 A 
ATOM     15  C   UNL     1       5.010   5.925  18.142  0.00  0.00    +0.000 A 
ENDROOT
BRANCH   1  16
ATOM     16  C   UNL     1       2.974   7.104  17.563  0.00  0.00    +0.000 C 
BRANCH  16  17
ATOM     17  C   UNL     1       2.351   8.139  18.476  0.00  0.00    +0.000 C 
BRANCH  17  18
ATOM     18  C   UNL     1       1.416   9.164  17.841  0.00  0.00    +0.000 C 
BRANCH  18  20
ATOM     19  C   UNL     1      -0.769  10.404  18.388  0.00  0.00    +0.000 C 
ATOM     20  N   UNL     1       0.649  10.084  18.833  0.00  0.00    +0.000 N 
ATOM     21  C   UNL     1       0.628   9.434  20.224  0.00  0.00    +0.000 C 
BRANCH  20  22
ATOM     22  C   UNL     1       1.359  11.467  18.900  0.00  0.00    +0.000 C 
BRANCH  22  23
ATOM     23  C   UNL     1       0.547  12.608  19.425  0.00  0.00    +0.000 A 
ATOM     24  C   UNL     1       0.238  13.691  18.596  0.00  0.00    +0.000 A 
ATOM     25  C   UNL     1      -0.377  14.826  19.132  0.00  0.00    +0.000 A 
ATOM     26  C   UNL     1      -0.695  14.872  20.491  0.00  0.00    +0.000 A 
ATOM     27  C   UNL     1      -0.436  13.774  21.304  0.00  0.00    +0.000 A 
ATOM     28 CL   UNL     1      -0.810  13.827  22.981  0.00  0.00    +0.000 Cl
ATOM     29  C   UNL     1       0.150  12.638  20.770  0.00  0.00    +0.000 A 
ENDBRANCH  22  23
ENDBRANCH  20  22
ENDBRANCH  18  20
ENDBRANCH  17  18
ENDBRANCH  16  17
ENDBRANCH   1  16
TORSDOF 6
ENDMDL
