MODEL 1
REMARK VINA RESULT:      -8.6      0.000      0.000
REMARK  Name = 
REMARK  4 active torsions:
REMARK  status: ('A' for Active; 'I' for Inactive)
REMARK    1  A    between atoms: C_1  and  O_2
REMARK    2  A    between atoms: O_2  and  C_3
REMARK    3  A    between atoms: C_6  and  C_7
REMARK    4  A    between atoms: C_11  and  C_12
REMARK                            x       y       z     vdW  Elec       q    Type
REMARK                         _______ _______ _______ _____ _____    ______ ____
ROOT
ATOM      1  C   UNL     1       1.626   8.066  19.931  0.00  0.00    +0.000 A 
ATOM      2  C   UNL     1       2.048   8.472  18.639  0.00  0.00    +0.000 A 
ATOM      3  C   UNL     1       2.998   7.780  17.902  0.00  0.00    +0.000 A 
ATOM      4  C   UNL     1       3.552   6.631  18.424  0.00  0.00    +0.000 A 
ATOM      5  C   UNL     1       4.739   6.004  17.807  0.00  0.00    +0.000 A 
ATOM      6  C   UNL     1       4.836   5.797  16.332  0.00  0.00    +0.000 C 
ATOM      7  C   UNL     1       5.601   5.439  18.677  0.00  0.00    +0.000 A 
ATOM      8  C   UNL     1       4.764   4.366  19.300  0.00  0.00    +0.000 A 
ATOM      9  N   UNL     1       5.027   3.097  19.300  0.00  0.00    +0.000 NA
ATOM     10  N   UNL     1       3.922   2.556  19.892  0.00  0.00    +0.000 N 
ATOM     11  C   UNL     1       2.962   3.558  20.182  0.00  0.00    +0.000 A 
ATOM     12  O   UNL     1       1.802   3.326  20.485  0.00  0.00    +0.000 OA
ATOM     13  N   UNL     1       3.586   4.752  19.883  0.00  0.00    +0.000 N 
ATOM     14  C   UNL     1       3.012   6.036  19.594  0.00  0.00    +0.000 A 
ATOM     15  C   UNL     1       2.046   6.763  20.353  0.00  0.00    +0.000 A 
ATOM     16  H   UNL     1       3.722   1.571  19.772  0.00  0.00    +0.000 HD
ENDROOT
BRANCH   1  20
ATOM     17  C   UNL     1      -0.558  10.963  22.428  0.00  0.00    +0.000 A 
ATOM     18  C   UNL     1      -0.083  11.322  21.167  0.00  0.00    +0.000 A 
ATOM     19  C   UNL     1       0.578  10.402  20.309  0.00  0.00    +0.000 A 
ATOM     20  C   UNL     1       0.798   9.080  20.702  0.00  0.00    +0.000 A 
ATOM     21  C   UNL     1       0.216   8.730  21.968  0.00  0.00    +0.000 A 
ATOM     22  C   UNL     1      -0.414   9.640  22.824  0.00  0.00    +0.000 A 
BRANCH  17  24
ATOM     23  C   UNL     1      -2.512  12.125  23.200  0.00  0.00    +0.000 C 
ATOM     24  O   UNL     1      -1.096  11.984  23.168  0.00  0.00    +0.000 OA
ENDBRANCH  17  24
ENDBRANCH   1  20
TORSDOF 2
ENDMDL
MODEL 2
REMARK VINA RESULT:      -8.4      1.361      1.506
REMARK  Name = 
REMARK  4 active torsions:
REMARK  status: ('A' for Active; 'I' for Inactive)
REMARK    1  A    between atoms: C_1  and  O_2
REMARK    2  A    between atoms: O_2  and  C_3
REMARK    3  A    between atoms: C_6  and  C_7
REMARK    4  A    between atoms: C_11  and  C_12
REMARK                            x       y       z     vdW  Elec       q    Type
REMARK                         _______ _______ _______ _____ _____    ______ ____
ROOT
ATOM      1  C   UNL     1       2.050   7.407  19.156  0.00  0.00    +0.000 A 
ATOM      2  C   UNL     1       2.901   7.815  18.096  0.00  0.00    +0.000 A 
ATOM      3  C   UNL     1       3.767   6.948  17.445  0.00  0.00    +0.000 A 
ATOM      4  C   UNL     1       3.801   5.621  17.818  0.00  0.00    +0.000 A 
ATOM      5  C   UNL     1       4.872   4.720  17.346  0.00  0.00    +0.000 A 
ATOM      6  C   UNL     1       5.292   4.689  15.914  0.00  0.00    +0.000 C 
ATOM      7  C   UNL     1       5.267   3.789  18.238  0.00  0.00    +0.000 A 
ATOM      8  C   UNL     1       4.019   2.987  18.432  0.00  0.00    +0.000 A 
ATOM      9  N   UNL     1       3.890   1.715  18.220  0.00  0.00    +0.000 NA
ATOM     10  N   UNL     1       2.558   1.503  18.440  0.00  0.00    +0.000 N 
ATOM     11  C   UNL     1       1.892   2.721  18.726  0.00  0.00    +0.000 A 
ATOM     12  O   UNL     1       0.679   2.853  18.724  0.00  0.00    +0.000 OA
ATOM     13  N   UNL     1       2.894   3.665  18.822  0.00  0.00    +0.000 N 
ATOM     14  C   UNL     1       2.820   5.093  18.697  0.00  0.00    +0.000 A 
ATOM     15  C   UNL     1       1.943   5.995  19.373  0.00  0.00    +0.000 A 
ATOM     16  H   UNL     1       2.119   0.666  18.075  0.00  0.00    +0.000 HD
ENDROOT
BRANCH   1  20
ATOM     17  C   UNL     1       0.389  10.668  21.607  0.00  0.00    +0.000 A 
ATOM     18  C   UNL     1       0.504  10.801  20.224  0.00  0.00    +0.000 A 
ATOM     19  C   UNL     1       0.983   9.753  19.392  0.00  0.00    +0.000 A 
ATOM     20  C   UNL     1       1.382   8.529  19.933  0.00  0.00    +0.000 A 
ATOM     21  C   UNL     1       1.163   8.403  21.347  0.00  0.00    +0.000 A 
ATOM     22  C   UNL     1       0.714   9.441  22.170  0.00  0.00    +0.000 A 
BRANCH  17  24
ATOM     23  C   UNL     1      -1.254  11.771  22.966  0.00  0.00    +0.000 C 
ATOM     24  O   UNL     1      -0.008  11.795  22.277  0.00  0.00    +0.000 OA
ENDBRANCH  17  24
ENDBRANCH   1  20
TORSDOF 2
ENDMDL
MODEL 3
REMARK VINA RESULT:      -8.4      1.381      1.848
REMARK  Name = 
REMARK  4 active torsions:
REMARK  status: ('A' for Active; 'I' for Inactive)
REMARK    1  A    between atoms: C_1  and  O_2
REMARK    2  A    between atoms: O_2  and  C_3
REMARK    3  A    between atoms: C_6  and  C_7
REMARK    4  A    between atoms: C_11  and  C_12
REMARK                            x       y       z     vdW  Elec       q    Type
REMARK                         _______ _______ _______ _____ _____    ______ ____
ROOT
ATOM      1  C   UNL     1       2.134   7.369  19.188  0.00  0.00    +0.000 A 
ATOM      2  C   UNL     1       2.968   7.752  18.105  0.00  0.00    +0.000 A 
ATOM      3  C   UNL     1       3.793   6.860  17.434  0.00  0.00    +0.000 A 
ATOM      4  C   UNL     1       3.800   5.533  17.808  0.00  0.00    +0.000 A 
ATOM      5  C   UNL     1       4.832   4.602  17.310  0.00  0.00    +0.000 A 
ATOM      6  C   UNL     1       5.215   4.558  15.868  0.00  0.00    +0.000 C 
ATOM      7  C   UNL     1       5.224   3.662  18.194  0.00  0.00    +0.000 A 
ATOM      8  C   UNL     1       3.959   2.894  18.420  0.00  0.00    +0.000 A 
ATOM      9  N   UNL     1       3.789   1.627  18.214  0.00  0.00    +0.000 NA
ATOM     10  N   UNL     1       2.459   1.452  18.469  0.00  0.00    +0.000 N 
ATOM     11  C   UNL     1       1.834   2.688  18.770  0.00  0.00    +0.000 A 
ATOM     12  O   UNL     1       0.625   2.855  18.799  0.00  0.00    +0.000 OA
ATOM     13  N   UNL     1       2.864   3.604  18.839  0.00  0.00    +0.000 N 
ATOM     14  C   UNL     1       2.827   5.034  18.713  0.00  0.00    +0.000 A 
ATOM     15  C   UNL     1       1.993   5.961  19.409  0.00  0.00    +0.000 A 
ATOM     16  H   UNL     1       1.986   0.628  18.117  0.00  0.00    +0.000 HD
ENDROOT
BRANCH   1  20
ATOM     17  C   UNL     1       0.079  10.662  21.269  0.00  0.00    +0.000 A 
ATOM     18  C   UNL     1       0.497   9.527  21.964  0.00  0.00    +0.000 A 
ATOM     19  C   UNL     1       1.211   8.468  21.341  0.00  0.00    +0.000 A 
ATOM     20  C   UNL     1       1.517   8.510  19.979  0.00  0.00    +0.000 A 
ATOM     21  C   UNL     1       1.148   9.733  19.322  0.00  0.00    +0.000 A 
ATOM     22  C   UNL     1       0.424  10.765  19.928  0.00  0.00    +0.000 A 
BRANCH  17  24
ATOM     23  C   UNL     1      -1.347  11.083  23.153  0.00  0.00    +0.000 C 
ATOM     24  O   UNL     1      -0.672  11.552  21.991  0.00  0.00    +0.000 OA
ENDBRANCH  17  24
ENDBRANCH   1  20
TORSDOF 2
ENDMDL
MODEL 4
REMARK VINA RESULT:      -8.3      2.515      3.836
REMARK  Name = 
REMARK  4 active torsions:
REMARK  status: ('A' for Active; 'I' for Inactive)
REMARK    1  A    between atoms: C_1  and  O_2
REMARK    2  A    between atoms: O_2  and  C_3
REMARK    3  A    between atoms: C_6  and  C_7
REMARK    4  A    between atoms: C_11  and  C_12
REMARK                            x       y       z     vdW  Elec       q    Type
REMARK                         _______ _______ _______ _____ _____    ______ ____
ROOT
ATOM      1  C   UNL     1       1.950   7.443  19.361  0.00  0.00    +0.000 A 
ATOM      2  C   UNL     1       1.503   6.997  20.632  0.00  0.00    +0.000 A 
ATOM      3  C   UNL     1       1.430   5.655  20.979  0.00  0.00    +0.000 A 
ATOM      4  C   UNL     1       1.824   4.699  20.069  0.00  0.00    +0.000 A 
ATOM      5  C   UNL     1       1.529   3.268  20.284  0.00  0.00    +0.000 A 
ATOM      6  C   UNL     1       1.767   2.611  21.603  0.00  0.00    +0.000 C 
ATOM      7  C   UNL     1       1.255   2.569  19.164  0.00  0.00    +0.000 A 
ATOM      8  C   UNL     1       2.536   2.681  18.400  0.00  0.00    +0.000 A 
ATOM      9  N   UNL     1       3.272   1.695  17.994  0.00  0.00    +0.000 NA
ATOM     10  N   UNL     1       4.357   2.324  17.454  0.00  0.00    +0.000 N 
ATOM     11  C   UNL     1       4.261   3.728  17.619  0.00  0.00    +0.000 A 
ATOM     12  O   UNL     1       5.190   4.502  17.449  0.00  0.00    +0.000 OA
ATOM     13  N   UNL     1       3.004   3.944  18.146  0.00  0.00    +0.000 N 
ATOM     14  C   UNL     1       2.500   5.071  18.878  0.00  0.00    +0.000 A 
ATOM     15  C   UNL     1       2.558   6.453  18.522  0.00  0.00    +0.000 A 
ATOM     16  H   UNL     1       5.217   1.808  17.316  0.00  0.00    +0.000 HD
ENDROOT
BRANCH   1  20
ATOM     17  C   UNL     1       1.379  11.770  18.774  0.00  0.00    +0.000 A 
ATOM     18  C   UNL     1       2.066  11.006  17.831  0.00  0.00    +0.000 A 
ATOM     19  C   UNL     1       2.224   9.599  17.956  0.00  0.00    +0.000 A 
ATOM     20  C   UNL     1       1.704   8.910  19.054  0.00  0.00    +0.000 A 
ATOM     21  C   UNL     1       0.930   9.720  19.954  0.00  0.00    +0.000 A 
ATOM     22  C   UNL     1       0.793  11.108  19.845  0.00  0.00    +0.000 A 
BRANCH  17  24
ATOM     23  C   UNL     1       2.642  13.774  18.385  0.00  0.00    +0.000 C 
ATOM     24  O   UNL     1       1.387  13.123  18.555  0.00  0.00    +0.000 OA
ENDBRANCH  17  24
ENDBRANCH   1  20
TORSDOF 2
ENDMDL
MODEL 5
REMARK VINA RESULT:      -8.3      0.645      1.176
REMARK  Name = 
REMARK  4 active torsions:
REMARK  status: ('A' for Active; 'I' for Inactive)
REMARK    1  A    between atoms: C_1  and  O_2
REMARK    2  A    between atoms: O_2  and  C_3
REMARK    3  A    between atoms: C_6  and  C_7
REMARK    4  A    between atoms: C_11  and  C_12
REMARK                            x       y       z     vdW  Elec       q    Type
REMARK                         _______ _______ _______ _____ _____    ______ ____
ROOT
ATOM      1  C   UNL     1       1.847   7.984  19.548  0.00  0.00    +0.000 A 
ATOM      2  C   UNL     1       2.354   8.263  18.252  0.00  0.00    +0.000 A 
ATOM      3  C   UNL     1       3.303   7.468  17.625  0.00  0.00    +0.000 A 
ATOM      4  C   UNL     1       3.771   6.340  18.266  0.00  0.00    +0.000 A 
ATOM      5  C   UNL     1       4.953   5.610  17.767  0.00  0.00    +0.000 A 
ATOM      6  C   UNL     1       5.113   5.279  16.320  0.00  0.00    +0.000 C 
ATOM      7  C   UNL     1       5.739   5.078  18.724  0.00  0.00    +0.000 A 
ATOM      8  C   UNL     1       4.818   4.100  19.383  0.00  0.00    +0.000 A 
ATOM      9  N   UNL     1       5.015   2.825  19.498  0.00  0.00    +0.000 NA
ATOM     10  N   UNL     1       3.855   2.387  20.070  0.00  0.00    +0.000 N 
ATOM     11  C   UNL     1       2.934   3.453  20.227  0.00  0.00    +0.000 A 
ATOM     12  O   UNL     1       1.750   3.302  20.484  0.00  0.00    +0.000 OA
ATOM     13  N   UNL     1       3.633   4.588  19.868  0.00  0.00    +0.000 N 
ATOM     14  C   UNL     1       3.142   5.870  19.448  0.00  0.00    +0.000 A 
ATOM     15  C   UNL     1       2.177   6.701  20.093  0.00  0.00    +0.000 A 
ATOM     16  H   UNL     1       3.611   1.405  20.017  0.00  0.00    +0.000 HD
ENDROOT
BRANCH   1  20
ATOM     17  C   UNL     1      -0.757  11.135  21.188  0.00  0.00    +0.000 A 
ATOM     18  C   UNL     1      -0.229  10.143  22.013  0.00  0.00    +0.000 A 
ATOM     19  C   UNL     1       0.659   9.142  21.534  0.00  0.00    +0.000 A 
ATOM     20  C   UNL     1       1.035   9.096  20.190  0.00  0.00    +0.000 A 
ATOM     21  C   UNL     1       0.539  10.185  19.395  0.00  0.00    +0.000 A 
ATOM     22  C   UNL     1      -0.353  11.158  19.860  0.00  0.00    +0.000 A 
BRANCH  17  24
ATOM     23  C   UNL     1      -1.990  11.761  23.150  0.00  0.00    +0.000 C 
ATOM     24  O   UNL     1      -1.664  11.975  21.781  0.00  0.00    +0.000 OA
ENDBRANCH  17  24
ENDBRANCH   1  20
TORSDOF 2
ENDMDL
MODEL 6
REMARK VINA RESULT:      -8.3      2.496      3.501
REMARK  Name = 
REMARK  4 active torsions:
REMARK  status: ('A' for Active; 'I' for Inactive)
REMARK    1  A    between atoms: C_1  and  O_2
REMARK    2  A    between atoms: O_2  and  C_3
REMARK    3  A    between atoms: C_6  and  C_7
REMARK    4  A    between atoms: C_11  and  C_12
REMARK                            x       y       z     vdW  Elec       q    Type
REMARK                         _______ _______ _______ _____ _____    ______ ____
ROOT
ATOM      1  C   UNL     1       2.218   7.501  19.218  0.00  0.00    +0.000 A 
ATOM      2  C   UNL     1       2.155   6.500  20.222  0.00  0.00    +0.000 A 
ATOM      3  C   UNL     1       2.696   5.232  20.059  0.00  0.00    +0.000 A 
ATOM      4  C   UNL     1       3.347   4.921  18.885  0.00  0.00    +0.000 A 
ATOM      5  C   UNL     1       3.711   3.528  18.557  0.00  0.00    +0.000 A 
ATOM      6  C   UNL     1       4.358   2.632  19.561  0.00  0.00    +0.000 C 
ATOM      7  C   UNL     1       3.629   3.211  17.249  0.00  0.00    +0.000 A 
ATOM      8  C   UNL     1       4.643   4.125  16.637  0.00  0.00    +0.000 A 
ATOM      9  N   UNL     1       5.673   3.764  15.939  0.00  0.00    +0.000 NA
ATOM     10  N   UNL     1       6.318   4.946  15.713  0.00  0.00    +0.000 N 
ATOM     11  C   UNL     1       5.658   6.016  16.367  0.00  0.00    +0.000 A 
ATOM     12  O   UNL     1       6.147   7.123  16.531  0.00  0.00    +0.000 OA
ATOM     13  N   UNL     1       4.500   5.466  16.877  0.00  0.00    +0.000 N 
ATOM     14  C   UNL     1       3.657   5.934  17.941  0.00  0.00    +0.000 A 
ATOM     15  C   UNL     1       3.083   7.231  18.109  0.00  0.00    +0.000 A 
ATOM     16  H   UNL     1       7.293   4.939  15.439  0.00  0.00    +0.000 HD
ENDROOT
BRANCH   1  20
ATOM     17  C   UNL     1      -0.551  10.896  19.673  0.00  0.00    +0.000 A 
ATOM     18  C   UNL     1      -0.097  10.191  20.786  0.00  0.00    +0.000 A 
ATOM     19  C   UNL     1       0.839   9.125  20.687  0.00  0.00    +0.000 A 
ATOM     20  C   UNL     1       1.341   8.720  19.449  0.00  0.00    +0.000 A 
ATOM     21  C   UNL     1       0.916   9.529  18.340  0.00  0.00    +0.000 A 
ATOM     22  C   UNL     1      -0.022  10.563  18.433  0.00  0.00    +0.000 A 
BRANCH  17  24
ATOM     23  C   UNL     1      -2.614  11.938  19.025  0.00  0.00    +0.000 C 
ATOM     24  O   UNL     1      -1.515  11.838  19.924  0.00  0.00    +0.000 OA
ENDBRANCH  17  24
ENDBRANCH   1  20
TORSDOF 2
ENDMDL
MODEL 7
REMARK VINA RESULT:      -8.2      2.480      3.357
REMARK  Name = 
REMARK  4 active torsions:
REMARK  status: ('A' for Active; 'I' for Inactive)
REMARK    1  A    between atoms: C_1  and  O_2
REMARK    2  A    between atoms: O_2  and  C_3
REMARK    3  A    between atoms: C_6  and  C_7
REMARK    4  A    between atoms: C_11  and  C_12
REMARK                            x       y       z     vdW  Elec       q    Type
REMARK                         _______ _______ _______ _____ _____    ______ ____
ROOT
ATOM      1  C   UNL     1       2.299   7.562  19.085  0.00  0.00    +0.000 A 
ATOM      2  C   UNL     1       2.205   6.578  20.104  0.00  0.00    +0.000 A 
ATOM      3  C   UNL     1       2.733   5.302  19.974  0.00  0.00    +0.000 A 
ATOM      4  C   UNL     1       3.403   4.962  18.817  0.00  0.00    +0.000 A 
ATOM      5  C   UNL     1       3.756   3.560  18.520  0.00  0.00    +0.000 A 
ATOM      6  C   UNL     1       4.373   2.674  19.551  0.00  0.00    +0.000 C 
ATOM      7  C   UNL     1       3.694   3.221  17.216  0.00  0.00    +0.000 A 
ATOM      8  C   UNL     1       4.731   4.113  16.609  0.00  0.00    +0.000 A 
ATOM      9  N   UNL     1       5.769   3.728  15.936  0.00  0.00    +0.000 NA
ATOM     10  N   UNL     1       6.433   4.898  15.702  0.00  0.00    +0.000 N 
ATOM     11  C   UNL     1       5.774   5.987  16.326  0.00  0.00    +0.000 A 
ATOM     12  O   UNL     1       6.273   7.091  16.479  0.00  0.00    +0.000 OA
ATOM     13  N   UNL     1       4.599   5.460  16.823  0.00  0.00    +0.000 N 
ATOM     14  C   UNL     1       3.743   5.956  17.863  0.00  0.00    +0.000 A 
ATOM     15  C   UNL     1       3.182   7.262  17.998  0.00  0.00    +0.000 A 
ATOM     16  H   UNL     1       7.413   4.874  15.447  0.00  0.00    +0.000 HD
ENDROOT
BRANCH   1  20
ATOM     17  C   UNL     1       0.011  11.240  19.882  0.00  0.00    +0.000 A 
ATOM     18  C   UNL     1       0.436  10.928  18.591  0.00  0.00    +0.000 A 
ATOM     19  C   UNL     1       1.128   9.726  18.283  0.00  0.00    +0.000 A 
ATOM     20  C   UNL     1       1.433   8.795  19.278  0.00  0.00    +0.000 A 
ATOM     21  C   UNL     1       0.900   9.112  20.575  0.00  0.00    +0.000 A 
ATOM     22  C   UNL     1       0.240  10.306  20.884  0.00  0.00    +0.000 A 
BRANCH  17  24
ATOM     23  C   UNL     1      -1.970  12.593  19.828  0.00  0.00    +0.000 C 
ATOM     24  O   UNL     1      -0.566  12.474  20.031  0.00  0.00    +0.000 OA
ENDBRANCH  17  24
ENDBRANCH   1  20
TORSDOF 2
ENDMDL
MODEL 8
REMARK VINA RESULT:      -8.2      3.753      8.032
REMARK  Name = 
REMARK  4 active torsions:
REMARK  status: ('A' for Active; 'I' for Inactive)
REMARK    1  A    between atoms: C_1  and  O_2
REMARK    2  A    between atoms: O_2  and  C_3
REMARK    3  A    between atoms: C_6  and  C_7
REMARK    4  A    between atoms: C_11  and  C_12
REMARK                            x       y       z     vdW  Elec       q    Type
REMARK                         _______ _______ _______ _____ _____    ______ ____
ROOT
ATOM      1  C   UNL     1       2.423   7.265  18.700  0.00  0.00    +0.000 A 
ATOM      2  C   UNL     1       2.281   6.905  20.065  0.00  0.00    +0.000 A 
ATOM      3  C   UNL     1       1.609   7.693  20.989  0.00  0.00    +0.000 A 
ATOM      4  C   UNL     1       1.028   8.872  20.575  0.00  0.00    +0.000 A 
ATOM      5  C   UNL     1       0.531   9.864  21.549  0.00  0.00    +0.000 A 
ATOM      6  C   UNL     1      -0.301   9.460  22.721  0.00  0.00    +0.000 C 
ATOM      7  C   UNL     1       0.686  11.152  21.180  0.00  0.00    +0.000 A 
ATOM      8  C   UNL     1      -0.157  11.232  19.947  0.00  0.00    +0.000 A 
ATOM      9  N   UNL     1      -1.159  12.031  19.757  0.00  0.00    +0.000 NA
ATOM     10  N   UNL     1      -1.638  11.638  18.540  0.00  0.00    +0.000 N 
ATOM     11  C   UNL     1      -0.914  10.523  18.048  0.00  0.00    +0.000 A 
ATOM     12  O   UNL     1      -1.280   9.829  17.112  0.00  0.00    +0.000 OA
ATOM     13  N   UNL     1       0.124  10.345  18.940  0.00  0.00    +0.000 N 
ATOM     14  C   UNL     1       0.922   9.179  19.193  0.00  0.00    +0.000 A 
ATOM     15  C   UNL     1       1.629   8.371  18.252  0.00  0.00    +0.000 A 
ATOM     16  H   UNL     1      -2.580  11.891  18.268  0.00  0.00    +0.000 HD
ENDROOT
BRANCH   1  20
ATOM     17  C   UNL     1       5.033   4.726  16.222  0.00  0.00    +0.000 A 
ATOM     18  C   UNL     1       5.197   6.111  16.246  0.00  0.00    +0.000 A 
ATOM     19  C   UNL     1       4.413   6.960  17.073  0.00  0.00    +0.000 A 
ATOM     20  C   UNL     1       3.415   6.438  17.900  0.00  0.00    +0.000 A 
ATOM     21  C   UNL     1       3.340   5.003  17.912  0.00  0.00    +0.000 A 
ATOM     22  C   UNL     1       4.096   4.169  17.081  0.00  0.00    +0.000 A 
BRANCH  17  24
ATOM     23  C   UNL     1       6.704   4.810  14.501  0.00  0.00    +0.000 C 
ATOM     24  O   UNL     1       5.807   4.057  15.311  0.00  0.00    +0.000 OA
ENDBRANCH  17  24
ENDBRANCH   1  20
TORSDOF 2
ENDMDL
MODEL 9
REMARK VINA RESULT:      -8.1      2.183      3.154
REMARK  Name = 
REMARK  4 active torsions:
REMARK  status: ('A' for Active; 'I' for Inactive)
REMARK    1  A    between atoms: C_1  and  O_2
REMARK    2  A    between atoms: O_2  and  C_3
REMARK    3  A    between atoms: C_6  and  C_7
REMARK    4  A    between atoms: C_11  and  C_12
REMARK                            x       y       z     vdW  Elec       q    Type
REMARK                         _______ _______ _______ _____ _____    ______ ____
ROOT
ATOM      1  C   UNL     1       2.009   7.236  19.983  0.00  0.00    +0.000 A 
ATOM      2  C   UNL     1       1.820   6.050  20.739  0.00  0.00    +0.000 A 
ATOM      3  C   UNL     1       2.239   4.801  20.302  0.00  0.00    +0.000 A 
ATOM      4  C   UNL     1       2.890   4.692  19.091  0.00  0.00    +0.000 A 
ATOM      5  C   UNL     1       3.125   3.376  18.464  0.00  0.00    +0.000 A 
ATOM      6  C   UNL     1       3.653   2.220  19.247  0.00  0.00    +0.000 C 
ATOM      7  C   UNL     1       3.049   3.365  17.118  0.00  0.00    +0.000 A 
ATOM      8  C   UNL     1       4.164   4.284  16.731  0.00  0.00    +0.000 A 
ATOM      9  N   UNL     1       5.173   3.984  15.975  0.00  0.00    +0.000 NA
ATOM     10  N   UNL     1       5.937   5.115  16.021  0.00  0.00    +0.000 N 
ATOM     11  C   UNL     1       5.367   6.075  16.894  0.00  0.00    +0.000 A 
ATOM     12  O   UNL     1       5.956   7.063  17.302  0.00  0.00    +0.000 OA
ATOM     13  N   UNL     1       4.146   5.547  17.262  0.00  0.00    +0.000 N 
ATOM     14  C   UNL     1       3.324   5.851  18.398  0.00  0.00    +0.000 A 
ATOM     15  C   UNL     1       2.875   7.131  18.847  0.00  0.00    +0.000 A 
ATOM     16  H   UNL     1       6.914   5.069  15.758  0.00  0.00    +0.000 HD
ENDROOT
BRANCH   1  20
ATOM     17  C   UNL     1      -0.444  10.689  21.191  0.00  0.00    +0.000 A 
ATOM     18  C   UNL     1       0.024   9.779  22.138  0.00  0.00    +0.000 A 
ATOM     19  C   UNL     1       0.863   8.684  21.797  0.00  0.00    +0.000 A 
ATOM     20  C   UNL     1       1.249   8.457  20.474  0.00  0.00    +0.000 A 
ATOM     21  C   UNL     1       0.819   9.466  19.546  0.00  0.00    +0.000 A 
ATOM     22  C   UNL     1      -0.026  10.530  19.877  0.00  0.00    +0.000 A 
BRANCH  17  24
ATOM     23  C   UNL     1      -1.657  11.612  23.045  0.00  0.00    +0.000 C 
ATOM     24  O   UNL     1      -1.312  11.639  21.665  0.00  0.00    +0.000 OA
ENDBRANCH  17  24
ENDBRANCH   1  20
TORSDOF 2
ENDMDL
