MODEL 1
REMARK VINA RESULT:      -7.2      0.000      0.000
REMARK  Name = 
REMARK  12 active torsions:
REMARK  status: ('A' for Active; 'I' for Inactive)
REMARK    1  A    between atoms: N_1  and  C_2
REMARK    2  A    between atoms: C_2  and  C_3
REMARK    3  A    between atoms: C_3  and  C_4
REMARK    4  A    between atoms: C_4  and  C_5
REMARK    5  A    between atoms: C_5  and  C_6
REMARK    6  A    between atoms: C_6  and  N_7
REMARK    7  A    between atoms: C_6  and  C_8
REMARK    8  A    between atoms: N_10  and  C_11
REMARK    9  A    between atoms: C_11  and  C_12
REMARK   10  A    between atoms: C_12  and  N_13
REMARK   11  A    between atoms: C_12  and  C_14
REMARK   12  A    between atoms: C_14  and  C_15
REMARK                            x       y       z     vdW  Elec       q    Type
REMARK                         _______ _______ _______ _____ _____    ______ ____
ROOT
ATOM      1  C   UNL     1       6.965   5.039  16.154  0.00  0.00    +0.000 C 
ATOM      2  O   UNL     1       7.955   4.405  16.507  0.00  0.00    +0.000 OA
ATOM      3  N   UNL     1       6.183   5.767  17.031  0.00  0.00    +0.000 N 
ATOM      4  H   UNL     1       5.248   6.027  16.734  0.00  0.00    +0.000 HD
ENDROOT
BRANCH   1   5
ATOM      5  C   UNL     1       6.572   5.255  14.667  0.00  0.00    +0.000 C 
BRANCH   5   6
ATOM      6  N   UNL     1       7.827   5.440  13.895  0.00  0.00    +0.000 NA
ATOM      7  H   UNL     1       8.060   4.540  13.461  0.00  0.00    +0.000 HD
ATOM      8  H   UNL     1       8.588   5.618  14.550  0.00  0.00    +0.000 HD
ENDBRANCH   5   6
BRANCH   5   9
ATOM      9  C   UNL     1       5.807   4.078  14.049  0.00  0.00    +0.000 C 
BRANCH   9  10
ATOM     10  C   UNL     1       6.348   3.581  12.704  0.00  0.00    +0.000 C 
BRANCH  10  11
ATOM     11  C   UNL     1       5.286   3.003  11.765  0.00  0.00    +0.000 C 
BRANCH  11  12
ATOM     12  C   UNL     1       5.713   1.616  11.281  0.00  0.00    +0.000 C 
BRANCH  12  13
ATOM     13  N   UNL     1       7.162   1.468  11.334  0.00  0.00    +0.000 NA
ATOM     14  H   UNL     1       7.405   0.499  11.133  0.00  0.00    +0.000 HD
ATOM     15  H   UNL     1       7.487   1.650  12.283  0.00  0.00    +0.000 HD
ENDBRANCH  12  13
ENDBRANCH  11  12
ENDBRANCH  10  11
ENDBRANCH   9  10
ENDBRANCH   5   9
ENDBRANCH   1   5
BRANCH   3  16
ATOM     16  C   UNL     1       6.446   5.805  18.461  0.00  0.00    +0.000 C 
BRANCH  16  17
ATOM     17  C   UNL     1       5.358   5.112  19.320  0.00  0.00    +0.000 C 
BRANCH  17  18
ATOM     18  N   UNL     1       5.477   3.641  19.206  0.00  0.00    +0.000 NA
ATOM     19  H   UNL     1       6.460   3.373  19.250  0.00  0.00    +0.000 HD
ATOM     20  H   UNL     1       5.172   3.372  18.267  0.00  0.00    +0.000 HD
ENDBRANCH  17  18
BRANCH  17  21
ATOM     21  C   UNL     1       3.965   5.612  18.858  0.00  0.00    +0.000 C 
BRANCH  21  22
ATOM     22  C   UNL     1       2.785   4.718  19.177  0.00  0.00    +0.000 A 
ATOM     23  C   UNL     1       2.231   3.883  18.197  0.00  0.00    +0.000 A 
ATOM     24  C   UNL     1       1.207   2.987  18.523  0.00  0.00    +0.000 A 
ATOM     25  C   UNL     1       0.726   2.918  19.828  0.00  0.00    +0.000 A 
ATOM     26  C   UNL     1       1.261   3.751  20.808  0.00  0.00    +0.000 A 
ATOM     27  C   UNL     1       2.284   4.645  20.485  0.00  0.00    +0.000 A 
ENDBRANCH  21  22
ENDBRANCH  17  21
ENDBRANCH  16  17
ENDBRANCH   3  16
TORSDOF 12
ENDMDL
MODEL 2
REMARK VINA RESULT:      -6.8      0.417      1.141
REMARK  Name = 
REMARK  12 active torsions:
REMARK  status: ('A' for Active; 'I' for Inactive)
REMARK    1  A    between atoms: N_1  and  C_2
REMARK    2  A    between atoms: C_2  and  C_3
REMARK    3  A    between atoms: C_3  and  C_4
REMARK    4  A    between atoms: C_4  and  C_5
REMARK    5  A    between atoms: C_5  and  C_6
REMARK    6  A    between atoms: C_6  and  N_7
REMARK    7  A    between atoms: C_6  and  C_8
REMARK    8  A    between atoms: N_10  and  C_11
REMARK    9  A    between atoms: C_11  and  C_12
REMARK   10  A    between atoms: C_12  and  N_13
REMARK   11  A    between atoms: C_12  and  C_14
REMARK   12  A    between atoms: C_14  and  C_15
REMARK                            x       y       z     vdW  Elec       q    Type
REMARK                         _______ _______ _______ _____ _____    ______ ____
ROOT
ATOM      1  C   UNL     1       6.995   4.939  16.307  0.00  0.00    +0.000 C 
ATOM      2  O   UNL     1       7.955   4.323  16.757  0.00  0.00    +0.000 OA
ATOM      3  N   UNL     1       6.210   5.779  17.076  0.00  0.00    +0.000 N 
ATOM      4  H   UNL     1       5.292   6.029  16.724  0.00  0.00    +0.000 HD
ENDROOT
BRANCH   1   5
ATOM      5  C   UNL     1       6.650   5.003  14.794  0.00  0.00    +0.000 C 
BRANCH   5   6
ATOM      6  N   UNL     1       7.863   5.474  14.078  0.00  0.00    +0.000 NA
ATOM      7  H   UNL     1       8.236   4.680  13.545  0.00  0.00    +0.000 HD
ATOM      8  H   UNL     1       8.584   5.687  14.766  0.00  0.00    +0.000 HD
ENDBRANCH   5   6
BRANCH   5   9
ATOM      9  C   UNL     1       6.241   3.652  14.193  0.00  0.00    +0.000 C 
BRANCH   9  10
ATOM     10  C   UNL     1       5.206   3.725  13.066  0.00  0.00    +0.000 C 
BRANCH  10  11
ATOM     11  C   UNL     1       5.743   3.349  11.682  0.00  0.00    +0.000 C 
BRANCH  11  12
ATOM     12  C   UNL     1       5.695   1.831  11.495  0.00  0.00    +0.000 C 
BRANCH  12  13
ATOM     13  N   UNL     1       7.035   1.285  11.320  0.00  0.00    +0.000 NA
ATOM     14  H   UNL     1       7.159   1.015  10.345  0.00  0.00    +0.000 HD
ATOM     15  H   UNL     1       7.126   0.428  11.864  0.00  0.00    +0.000 HD
ENDBRANCH  12  13
ENDBRANCH  11  12
ENDBRANCH  10  11
ENDBRANCH   9  10
ENDBRANCH   5   9
ENDBRANCH   1   5
BRANCH   3  16
ATOM     16  C   UNL     1       6.434   5.965  18.500  0.00  0.00    +0.000 C 
BRANCH  16  17
ATOM     17  C   UNL     1       5.514   5.102  19.401  0.00  0.00    +0.000 C 
BRANCH  17  18
ATOM     18  N   UNL     1       5.606   3.678  19.009  0.00  0.00    +0.000 NA
ATOM     19  H   UNL     1       4.784   3.177  19.344  0.00  0.00    +0.000 HD
ATOM     20  H   UNL     1       6.393   3.262  19.514  0.00  0.00    +0.000 HD
ENDBRANCH  17  18
BRANCH  17  21
ATOM     21  C   UNL     1       4.064   5.636  19.287  0.00  0.00    +0.000 C 
BRANCH  21  22
ATOM     22  C   UNL     1       2.953   4.618  19.443  0.00  0.00    +0.000 A 
ATOM     23  C   UNL     1       2.475   4.264  20.712  0.00  0.00    +0.000 A 
ATOM     24  C   UNL     1       1.383   3.400  20.845  0.00  0.00    +0.000 A 
ATOM     25  C   UNL     1       0.759   2.880  19.713  0.00  0.00    +0.000 A 
ATOM     26  C   UNL     1       1.232   3.216  18.447  0.00  0.00    +0.000 A 
ATOM     27  C   UNL     1       2.322   4.079  18.312  0.00  0.00    +0.000 A 
ENDBRANCH  21  22
ENDBRANCH  17  21
ENDBRANCH  16  17
ENDBRANCH   3  16
TORSDOF 12
ENDMDL
MODEL 3
REMARK VINA RESULT:      -6.8      2.398      7.491
REMARK  Name = 
REMARK  12 active torsions:
REMARK  status: ('A' for Active; 'I' for Inactive)
REMARK    1  A    between atoms: N_1  and  C_2
REMARK    2  A    between atoms: C_2  and  C_3
REMARK    3  A    between atoms: C_3  and  C_4
REMARK    4  A    between atoms: C_4  and  C_5
REMARK    5  A    between atoms: C_5  and  C_6
REMARK    6  A    between atoms: C_6  and  N_7
REMARK    7  A    between atoms: C_6  and  C_8
REMARK    8  A    between atoms: N_10  and  C_11
REMARK    9  A    between atoms: C_11  and  C_12
REMARK   10  A    between atoms: C_12  and  N_13
REMARK   11  A    between atoms: C_12  and  C_14
REMARK   12  A    between atoms: C_14  and  C_15
REMARK                            x       y       z     vdW  Elec       q    Type
REMARK                         _______ _______ _______ _____ _____    ______ ____
ROOT
ATOM      1  C   UNL     1       4.264   3.051  18.765  0.00  0.00    +0.000 C 
ATOM      2  O   UNL     1       3.597   3.233  17.751  0.00  0.00    +0.000 OA
ATOM      3  N   UNL     1       5.367   3.819  19.089  0.00  0.00    +0.000 N 
ATOM      4  H   UNL     1       6.022   3.450  19.770  0.00  0.00    +0.000 HD
ENDROOT
BRANCH   1   5
ATOM      5  C   UNL     1       3.854   2.070  19.895  0.00  0.00    +0.000 C 
BRANCH   5   6
ATOM      6  N   UNL     1       5.101   1.527  20.491  0.00  0.00    +0.000 NA
ATOM      7  H   UNL     1       5.055   1.686  21.504  0.00  0.00    +0.000 HD
ATOM      8  H   UNL     1       5.886   2.095  20.174  0.00  0.00    +0.000 HD
ENDBRANCH   5   6
BRANCH   5   9
ATOM      9  C   UNL     1       3.038   2.721  21.019  0.00  0.00    +0.000 C 
BRANCH   9  10
ATOM     10  C   UNL     1       1.537   2.853  20.745  0.00  0.00    +0.000 C 
BRANCH  10  11
ATOM     11  C   UNL     1       1.079   4.266  20.370  0.00  0.00    +0.000 C 
BRANCH  11  12
ATOM     12  C   UNL     1       2.198   5.271  20.646  0.00  0.00    +0.000 C 
BRANCH  12  13
ATOM     13  N   UNL     1       1.655   6.600  20.895  0.00  0.00    +0.000 NA
ATOM     14  H   UNL     1       2.420   7.274  20.910  0.00  0.00    +0.000 HD
ATOM     15  H   UNL     1       1.237   6.628  21.824  0.00  0.00    +0.000 HD
ENDBRANCH  12  13
ENDBRANCH  11  12
ENDBRANCH  10  11
ENDBRANCH   9  10
ENDBRANCH   5   9
ENDBRANCH   1   5
BRANCH   3  16
ATOM     16  C   UNL     1       5.856   4.882  18.226  0.00  0.00    +0.000 C 
BRANCH  16  17
ATOM     17  C   UNL     1       6.633   4.378  16.983  0.00  0.00    +0.000 C 
BRANCH  17  18
ATOM     18  N   UNL     1       8.073   4.252  17.297  0.00  0.00    +0.000 NA
ATOM     19  H   UNL     1       8.367   3.284  17.173  0.00  0.00    +0.000 HD
ATOM     20  H   UNL     1       8.196   4.440  18.295  0.00  0.00    +0.000 HD
ENDBRANCH  17  18
BRANCH  17  21
ATOM     21  C   UNL     1       6.385   5.360  15.809  0.00  0.00    +0.000 C 
BRANCH  21  22
ATOM     22  C   UNL     1       6.632   4.824  14.414  0.00  0.00    +0.000 A 
ATOM     23  C   UNL     1       5.814   3.823  13.872  0.00  0.00    +0.000 A 
ATOM     24  C   UNL     1       5.984   3.404  12.549  0.00  0.00    +0.000 A 
ATOM     25  C   UNL     1       6.973   3.979  11.755  0.00  0.00    +0.000 A 
ATOM     26  C   UNL     1       7.800   4.967  12.284  0.00  0.00    +0.000 A 
ATOM     27  C   UNL     1       7.631   5.387  13.606  0.00  0.00    +0.000 A 
ENDBRANCH  21  22
ENDBRANCH  17  21
ENDBRANCH  16  17
ENDBRANCH   3  16
TORSDOF 12
ENDMDL
MODEL 4
REMARK VINA RESULT:      -6.7      1.809      2.654
REMARK  Name = 
REMARK  12 active torsions:
REMARK  status: ('A' for Active; 'I' for Inactive)
REMARK    1  A    between atoms: N_1  and  C_2
REMARK    2  A    between atoms: C_2  and  C_3
REMARK    3  A    between atoms: C_3  and  C_4
REMARK    4  A    between atoms: C_4  and  C_5
REMARK    5  A    between atoms: C_5  and  C_6
REMARK    6  A    between atoms: C_6  and  N_7
REMARK    7  A    between atoms: C_6  and  C_8
REMARK    8  A    between atoms: N_10  and  C_11
REMARK    9  A    between atoms: C_11  and  C_12
REMARK   10  A    between atoms: C_12  and  N_13
REMARK   11  A    between atoms: C_12  and  C_14
REMARK   12  A    between atoms: C_14  and  C_15
REMARK                            x       y       z     vdW  Elec       q    Type
REMARK                         _______ _______ _______ _____ _____    ______ ____
ROOT
ATOM      1  C   UNL     1       6.291   6.264  16.931  0.00  0.00    +0.000 C 
ATOM      2  O   UNL     1       6.912   7.295  16.693  0.00  0.00    +0.000 OA
ATOM      3  N   UNL     1       4.992   6.259  17.406  0.00  0.00    +0.000 N 
ATOM      4  H   UNL     1       4.646   5.410  17.838  0.00  0.00    +0.000 HD
ENDROOT
BRANCH   1   5
ATOM      5  C   UNL     1       6.808   4.848  16.561  0.00  0.00    +0.000 C 
BRANCH   5   6
ATOM      6  N   UNL     1       7.233   4.184  17.819  0.00  0.00    +0.000 NA
ATOM      7  H   UNL     1       8.053   4.688  18.174  0.00  0.00    +0.000 HD
ATOM      8  H   UNL     1       7.578   3.251  17.594  0.00  0.00    +0.000 HD
ENDBRANCH   5   6
BRANCH   5   9
ATOM      9  C   UNL     1       5.754   3.957  15.890  0.00  0.00    +0.000 C 
BRANCH   9  10
ATOM     10  C   UNL     1       5.401   4.335  14.448  0.00  0.00    +0.000 C 
BRANCH  10  11
ATOM     11  C   UNL     1       6.402   3.843  13.398  0.00  0.00    +0.000 C 
BRANCH  11  12
ATOM     12  C   UNL     1       5.657   3.297  12.178  0.00  0.00    +0.000 C 
BRANCH  12  13
ATOM     13  N   UNL     1       6.099   1.945  11.861  0.00  0.00    +0.000 NA
ATOM     14  H   UNL     1       5.303   1.408  11.516  0.00  0.00    +0.000 HD
ATOM     15  H   UNL     1       6.405   1.478  12.714  0.00  0.00    +0.000 HD
ENDBRANCH  12  13
ENDBRANCH  11  12
ENDBRANCH  10  11
ENDBRANCH   9  10
ENDBRANCH   5   9
ENDBRANCH   1   5
BRANCH   3  16
ATOM     16  C   UNL     1       4.269   7.484  17.707  0.00  0.00    +0.000 C 
BRANCH  16  17
ATOM     17  C   UNL     1       2.748   7.281  17.927  0.00  0.00    +0.000 C 
BRANCH  17  18
ATOM     18  N   UNL     1       2.030   8.560  17.737  0.00  0.00    +0.000 NA
ATOM     19  H   UNL     1       2.486   9.293  18.280  0.00  0.00    +0.000 HD
ATOM     20  H   UNL     1       1.099   8.464  18.152  0.00  0.00    +0.000 HD
ENDBRANCH  17  18
BRANCH  17  21
ATOM     21  C   UNL     1       2.524   6.702  19.347  0.00  0.00    +0.000 C 
BRANCH  21  22
ATOM     22  C   UNL     1       2.041   5.269  19.427  0.00  0.00    +0.000 A 
ATOM     23  C   UNL     1       1.625   4.717  20.646  0.00  0.00    +0.000 A 
ATOM     24  C   UNL     1       1.086   3.427  20.695  0.00  0.00    +0.000 A 
ATOM     25  C   UNL     1       0.958   2.677  19.528  0.00  0.00    +0.000 A 
ATOM     26  C   UNL     1       1.377   3.210  18.312  0.00  0.00    +0.000 A 
ATOM     27  C   UNL     1       1.915   4.499  18.261  0.00  0.00    +0.000 A 
ENDBRANCH  21  22
ENDBRANCH  17  21
ENDBRANCH  16  17
ENDBRANCH   3  16
TORSDOF 12
ENDMDL
MODEL 5
REMARK VINA RESULT:      -6.6      1.909      3.218
REMARK  Name = 
REMARK  12 active torsions:
REMARK  status: ('A' for Active; 'I' for Inactive)
REMARK    1  A    between atoms: N_1  and  C_2
REMARK    2  A    between atoms: C_2  and  C_3
REMARK    3  A    between atoms: C_3  and  C_4
REMARK    4  A    between atoms: C_4  and  C_5
REMARK    5  A    between atoms: C_5  and  C_6
REMARK    6  A    between atoms: C_6  and  N_7
REMARK    7  A    between atoms: C_6  and  C_8
REMARK    8  A    between atoms: N_10  and  C_11
REMARK    9  A    between atoms: C_11  and  C_12
REMARK   10  A    between atoms: C_12  and  N_13
REMARK   11  A    between atoms: C_12  and  C_14
REMARK   12  A    between atoms: C_14  and  C_15
REMARK                            x       y       z     vdW  Elec       q    Type
REMARK                         _______ _______ _______ _____ _____    ______ ____
ROOT
ATOM      1  C   UNL     1       6.115   4.681  18.730  0.00  0.00    +0.000 C 
ATOM      2  O   UNL     1       5.741   5.607  19.443  0.00  0.00    +0.000 OA
ATOM      3  N   UNL     1       5.529   3.429  18.751  0.00  0.00    +0.000 N 
ATOM      4  H   UNL     1       6.048   2.652  18.357  0.00  0.00    +0.000 HD
ENDROOT
BRANCH   1   5
ATOM      5  C   UNL     1       7.159   4.844  17.592  0.00  0.00    +0.000 C 
BRANCH   5   6
ATOM      6  N   UNL     1       8.388   4.121  18.006  0.00  0.00    +0.000 NA
ATOM      7  H   UNL     1       8.129   3.144  18.184  0.00  0.00    +0.000 HD
ATOM      8  H   UNL     1       8.687   4.480  18.912  0.00  0.00    +0.000 HD
ENDBRANCH   5   6
BRANCH   5   9
ATOM      9  C   UNL     1       6.704   4.269  16.244  0.00  0.00    +0.000 C 
BRANCH   9  10
ATOM     10  C   UNL     1       5.554   5.020  15.568  0.00  0.00    +0.000 C 
BRANCH  10  11
ATOM     11  C   UNL     1       5.261   4.578  14.131  0.00  0.00    +0.000 C 
BRANCH  11  12
ATOM     12  C   UNL     1       6.403   3.706  13.607  0.00  0.00    +0.000 C 
BRANCH  12  13
ATOM     13  N   UNL     1       6.043   3.081  12.340  0.00  0.00    +0.000 NA
ATOM     14  H   UNL     1       6.633   2.263  12.193  0.00  0.00    +0.000 HD
ATOM     15  H   UNL     1       6.251   3.720  11.574  0.00  0.00    +0.000 HD
ENDBRANCH  12  13
ENDBRANCH  11  12
ENDBRANCH  10  11
ENDBRANCH   9  10
ENDBRANCH   5   9
ENDBRANCH   1   5
BRANCH   3  16
ATOM     16  C   UNL     1       4.444   3.093  19.659  0.00  0.00    +0.000 C 
BRANCH  16  17
ATOM     17  C   UNL     1       3.396   2.123  19.058  0.00  0.00    +0.000 C 
BRANCH  17  18
ATOM     18  N   UNL     1       4.022   1.272  18.023  0.00  0.00    +0.000 NA
ATOM     19  H   UNL     1       4.799   0.752  18.431  0.00  0.00    +0.000 HD
ATOM     20  H   UNL     1       4.453   1.886  17.327  0.00  0.00    +0.000 HD
ENDBRANCH  17  18
BRANCH  17  21
ATOM     21  C   UNL     1       2.221   2.954  18.482  0.00  0.00    +0.000 C 
BRANCH  21  22
ATOM     22  C   UNL     1       2.153   4.409  18.898  0.00  0.00    +0.000 A 
ATOM     23  C   UNL     1       1.784   4.768  20.201  0.00  0.00    +0.000 A 
ATOM     24  C   UNL     1       1.820   6.106  20.608  0.00  0.00    +0.000 A 
ATOM     25  C   UNL     1       2.224   7.098  19.717  0.00  0.00    +0.000 A 
ATOM     26  C   UNL     1       2.583   6.755  18.416  0.00  0.00    +0.000 A 
ATOM     27  C   UNL     1       2.548   5.419  18.008  0.00  0.00    +0.000 A 
ENDBRANCH  21  22
ENDBRANCH  17  21
ENDBRANCH  16  17
ENDBRANCH   3  16
TORSDOF 12
ENDMDL
MODEL 6
REMARK VINA RESULT:      -6.6      1.331      1.735
REMARK  Name = 
REMARK  12 active torsions:
REMARK  status: ('A' for Active; 'I' for Inactive)
REMARK    1  A    between atoms: N_1  and  C_2
REMARK    2  A    between atoms: C_2  and  C_3
REMARK    3  A    between atoms: C_3  and  C_4
REMARK    4  A    between atoms: C_4  and  C_5
REMARK    5  A    between atoms: C_5  and  C_6
REMARK    6  A    between atoms: C_6  and  N_7
REMARK    7  A    between atoms: C_6  and  C_8
REMARK    8  A    between atoms: N_10  and  C_11
REMARK    9  A    between atoms: C_11  and  C_12
REMARK   10  A    between atoms: C_12  and  N_13
REMARK   11  A    between atoms: C_12  and  C_14
REMARK   12  A    between atoms: C_14  and  C_15
REMARK                            x       y       z     vdW  Elec       q    Type
REMARK                         _______ _______ _______ _____ _____    ______ ____
ROOT
ATOM      1  C   UNL     1       6.474   5.518  16.031  0.00  0.00    +0.000 C 
ATOM      2  O   UNL     1       7.398   6.265  16.339  0.00  0.00    +0.000 OA
ATOM      3  N   UNL     1       5.157   5.772  16.366  0.00  0.00    +0.000 N 
ATOM      4  H   UNL     1       4.499   5.001  16.332  0.00  0.00    +0.000 HD
ENDROOT
BRANCH   1   5
ATOM      5  C   UNL     1       6.635   4.303  15.078  0.00  0.00    +0.000 C 
BRANCH   5   6
ATOM      6  N   UNL     1       6.086   3.112  15.776  0.00  0.00    +0.000 NA
ATOM      7  H   UNL     1       5.067   3.131  15.665  0.00  0.00    +0.000 HD
ATOM      8  H   UNL     1       6.242   3.222  16.777  0.00  0.00    +0.000 HD
ENDBRANCH   5   6
BRANCH   5   9
ATOM      9  C   UNL     1       5.891   4.454  13.746  0.00  0.00    +0.000 C 
BRANCH   9  10
ATOM     10  C   UNL     1       6.405   3.570  12.606  0.00  0.00    +0.000 C 
BRANCH  10  11
ATOM     11  C   UNL     1       5.308   2.877  11.792  0.00  0.00    +0.000 C 
BRANCH  11  12
ATOM     12  C   UNL     1       5.804   1.518  11.293  0.00  0.00    +0.000 C 
BRANCH  12  13
ATOM     13  N   UNL     1       7.260   1.473  11.266  0.00  0.00    +0.000 NA
ATOM     14  H   UNL     1       7.626   2.398  11.487  0.00  0.00    +0.000 HD
ATOM     15  H   UNL     1       7.576   1.264  10.319  0.00  0.00    +0.000 HD
ENDBRANCH  12  13
ENDBRANCH  11  12
ENDBRANCH  10  11
ENDBRANCH   9  10
ENDBRANCH   5   9
ENDBRANCH   1   5
BRANCH   3  16
ATOM     16  C   UNL     1       4.763   6.928  17.155  0.00  0.00    +0.000 C 
BRANCH  16  17
ATOM     17  C   UNL     1       4.119   6.571  18.519  0.00  0.00    +0.000 C 
BRANCH  17  18
ATOM     18  N   UNL     1       4.795   5.396  19.110  0.00  0.00    +0.000 NA
ATOM     19  H   UNL     1       4.503   4.551  18.620  0.00  0.00    +0.000 HD
ATOM     20  H   UNL     1       4.448   5.280  20.066  0.00  0.00    +0.000 HD
ENDBRANCH  17  18
BRANCH  17  21
ATOM     21  C   UNL     1       2.606   6.314  18.302  0.00  0.00    +0.000 C 
BRANCH  21  22
ATOM     22  C   UNL     1       2.055   5.012  18.846  0.00  0.00    +0.000 A 
ATOM     23  C   UNL     1       1.751   4.873  20.207  0.00  0.00    +0.000 A 
ATOM     24  C   UNL     1       1.150   3.704  20.685  0.00  0.00    +0.000 A 
ATOM     25  C   UNL     1       0.848   2.663  19.810  0.00  0.00    +0.000 A 
ATOM     26  C   UNL     1       1.156   2.785  18.457  0.00  0.00    +0.000 A 
ATOM     27  C   UNL     1       1.755   3.952  17.978  0.00  0.00    +0.000 A 
ENDBRANCH  21  22
ENDBRANCH  17  21
ENDBRANCH  16  17
ENDBRANCH   3  16
TORSDOF 12
ENDMDL
MODEL 7
REMARK VINA RESULT:      -6.5      2.416      7.289
REMARK  Name = 
REMARK  12 active torsions:
REMARK  status: ('A' for Active; 'I' for Inactive)
REMARK    1  A    between atoms: N_1  and  C_2
REMARK    2  A    between atoms: C_2  and  C_3
REMARK    3  A    between atoms: C_3  and  C_4
REMARK    4  A    between atoms: C_4  and  C_5
REMARK    5  A    between atoms: C_5  and  C_6
REMARK    6  A    between atoms: C_6  and  N_7
REMARK    7  A    between atoms: C_6  and  C_8
REMARK    8  A    between atoms: N_10  and  C_11
REMARK    9  A    between atoms: C_11  and  C_12
REMARK   10  A    between atoms: C_12  and  N_13
REMARK   11  A    between atoms: C_12  and  C_14
REMARK   12  A    between atoms: C_14  and  C_15
REMARK                            x       y       z     vdW  Elec       q    Type
REMARK                         _______ _______ _______ _____ _____    ______ ____
ROOT
ATOM      1  C   UNL     1       4.071   3.325  18.288  0.00  0.00    +0.000 C 
ATOM      2  O   UNL     1       4.957   3.283  19.137  0.00  0.00    +0.000 OA
ATOM      3  N   UNL     1       3.855   4.424  17.478  0.00  0.00    +0.000 N 
ATOM      4  H   UNL     1       2.959   4.502  17.009  0.00  0.00    +0.000 HD
ENDROOT
BRANCH   1   5
ATOM      5  C   UNL     1       3.209   2.097  17.890  0.00  0.00    +0.000 C 
BRANCH   5   6
ATOM      6  N   UNL     1       3.858   0.889  18.461  0.00  0.00    +0.000 NA
ATOM      7  H   UNL     1       4.749   0.755  17.971  0.00  0.00    +0.000 HD
ATOM      8  H   UNL     1       3.299   0.073  18.214  0.00  0.00    +0.000 HD
ENDBRANCH   5   6
BRANCH   5   9
ATOM      9  C   UNL     1       1.768   2.152  18.415  0.00  0.00    +0.000 C 
BRANCH   9  10
ATOM     10  C   UNL     1       1.633   2.301  19.934  0.00  0.00    +0.000 C 
BRANCH  10  11
ATOM     11  C   UNL     1       1.080   3.653  20.395  0.00  0.00    +0.000 C 
BRANCH  11  12
ATOM     12  C   UNL     1       2.100   4.360  21.289  0.00  0.00    +0.000 C 
BRANCH  12  13
ATOM     13  N   UNL     1       2.820   5.388  20.547  0.00  0.00    +0.000 NA
ATOM     14  H   UNL     1       3.467   5.861  21.177  0.00  0.00    +0.000 HD
ATOM     15  H   UNL     1       2.163   6.100  20.230  0.00  0.00    +0.000 HD
ENDBRANCH  12  13
ENDBRANCH  11  12
ENDBRANCH  10  11
ENDBRANCH   9  10
ENDBRANCH   5   9
ENDBRANCH   1   5
BRANCH   3  16
ATOM     16  C   UNL     1       4.635   5.645  17.598  0.00  0.00    +0.000 C 
BRANCH  16  17
ATOM     17  C   UNL     1       5.692   5.831  16.480  0.00  0.00    +0.000 C 
BRANCH  17  18
ATOM     18  N   UNL     1       5.185   6.763  15.449  0.00  0.00    +0.000 NA
ATOM     19  H   UNL     1       5.846   6.809  14.674  0.00  0.00    +0.000 HD
ATOM     20  H   UNL     1       5.182   7.705  15.849  0.00  0.00    +0.000 HD
ENDBRANCH  17  18
BRANCH  17  21
ATOM     21  C   UNL     1       6.031   4.442  15.880  0.00  0.00    +0.000 C 
BRANCH  21  22
ATOM     22  C   UNL     1       6.384   4.408  14.408  0.00  0.00    +0.000 A 
ATOM     23  C   UNL     1       7.457   5.159  13.908  0.00  0.00    +0.000 A 
ATOM     24  C   UNL     1       7.841   5.046  12.568  0.00  0.00    +0.000 A 
ATOM     25  C   UNL     1       7.156   4.184  11.714  0.00  0.00    +0.000 A 
ATOM     26  C   UNL     1       6.081   3.440  12.196  0.00  0.00    +0.000 A 
ATOM     27  C   UNL     1       5.698   3.552  13.534  0.00  0.00    +0.000 A 
ENDBRANCH  21  22
ENDBRANCH  17  21
ENDBRANCH  16  17
ENDBRANCH   3  16
TORSDOF 12
ENDMDL
MODEL 8
REMARK VINA RESULT:      -6.5      1.968      2.417
REMARK  Name = 
REMARK  12 active torsions:
REMARK  status: ('A' for Active; 'I' for Inactive)
REMARK    1  A    between atoms: N_1  and  C_2
REMARK    2  A    between atoms: C_2  and  C_3
REMARK    3  A    between atoms: C_3  and  C_4
REMARK    4  A    between atoms: C_4  and  C_5
REMARK    5  A    between atoms: C_5  and  C_6
REMARK    6  A    between atoms: C_6  and  N_7
REMARK    7  A    between atoms: C_6  and  C_8
REMARK    8  A    between atoms: N_10  and  C_11
REMARK    9  A    between atoms: C_11  and  C_12
REMARK   10  A    between atoms: C_12  and  N_13
REMARK   11  A    between atoms: C_12  and  C_14
REMARK   12  A    between atoms: C_14  and  C_15
REMARK                            x       y       z     vdW  Elec       q    Type
REMARK                         _______ _______ _______ _____ _____    ______ ____
ROOT
ATOM      1  C   UNL     1       5.339   6.179  16.088  0.00  0.00    +0.000 C 
ATOM      2  O   UNL     1       5.178   6.910  15.115  0.00  0.00    +0.000 OA
ATOM      3  N   UNL     1       4.778   6.438  17.326  0.00  0.00    +0.000 N 
ATOM      4  H   UNL     1       5.168   5.966  18.134  0.00  0.00    +0.000 HD
ENDROOT
BRANCH   1   5
ATOM      5  C   UNL     1       6.030   4.791  16.013  0.00  0.00    +0.000 C 
BRANCH   5   6
ATOM      6  N   UNL     1       4.996   3.761  16.291  0.00  0.00    +0.000 NA
ATOM      7  H   UNL     1       4.078   4.206  16.183  0.00  0.00    +0.000 HD
ATOM      8  H   UNL     1       5.048   3.507  17.277  0.00  0.00    +0.000 HD
ENDBRANCH   5   6
BRANCH   5   9
ATOM      9  C   UNL     1       6.651   4.479  14.646  0.00  0.00    +0.000 C 
BRANCH   9  10
ATOM     10  C   UNL     1       5.698   3.852  13.623  0.00  0.00    +0.000 C 
BRANCH  10  11
ATOM     11  C   UNL     1       6.366   3.408  12.318  0.00  0.00    +0.000 C 
BRANCH  11  12
ATOM     12  C   UNL     1       5.519   2.333  11.635  0.00  0.00    +0.000 C 
BRANCH  12  13
ATOM     13  N   UNL     1       6.339   1.190  11.252  0.00  0.00    +0.000 NA
ATOM     14  H   UNL     1       6.967   0.959  12.020  0.00  0.00    +0.000 HD
ATOM     15  H   UNL     1       6.936   1.447  10.467  0.00  0.00    +0.000 HD
ENDBRANCH  12  13
ENDBRANCH  11  12
ENDBRANCH  10  11
ENDBRANCH   9  10
ENDBRANCH   5   9
ENDBRANCH   1   5
BRANCH   3  16
ATOM     16  C   UNL     1       3.985   7.628  17.587  0.00  0.00    +0.000 C 
BRANCH  16  17
ATOM     17  C   UNL     1       2.532   7.331  18.038  0.00  0.00    +0.000 C 
BRANCH  17  18
ATOM     18  N   UNL     1       1.761   8.590  18.138  0.00  0.00    +0.000 NA
ATOM     19  H   UNL     1       1.746   8.906  19.107  0.00  0.00    +0.000 HD
ATOM     20  H   UNL     1       0.785   8.381  17.913  0.00  0.00    +0.000 HD
ENDBRANCH  17  18
BRANCH  17  21
ATOM     21  C   UNL     1       2.576   6.577  19.392  0.00  0.00    +0.000 C 
BRANCH  21  22
ATOM     22  C   UNL     1       1.977   5.186  19.412  0.00  0.00    +0.000 A 
ATOM     23  C   UNL     1       1.867   4.433  18.235  0.00  0.00    +0.000 A 
ATOM     24  C   UNL     1       1.407   3.114  18.275  0.00  0.00    +0.000 A 
ATOM     25  C   UNL     1       1.051   2.533  19.491  0.00  0.00    +0.000 A 
ATOM     26  C   UNL     1       1.146   3.274  20.666  0.00  0.00    +0.000 A 
ATOM     27  C   UNL     1       1.606   4.592  20.628  0.00  0.00    +0.000 A 
ENDBRANCH  21  22
ENDBRANCH  17  21
ENDBRANCH  16  17
ENDBRANCH   3  16
TORSDOF 12
ENDMDL
MODEL 9
REMARK VINA RESULT:      -6.5      1.543      1.655
REMARK  Name = 
REMARK  12 active torsions:
REMARK  status: ('A' for Active; 'I' for Inactive)
REMARK    1  A    between atoms: N_1  and  C_2
REMARK    2  A    between atoms: C_2  and  C_3
REMARK    3  A    between atoms: C_3  and  C_4
REMARK    4  A    between atoms: C_4  and  C_5
REMARK    5  A    between atoms: C_5  and  C_6
REMARK    6  A    between atoms: C_6  and  N_7
REMARK    7  A    between atoms: C_6  and  C_8
REMARK    8  A    between atoms: N_10  and  C_11
REMARK    9  A    between atoms: C_11  and  C_12
REMARK   10  A    between atoms: C_12  and  N_13
REMARK   11  A    between atoms: C_12  and  C_14
REMARK   12  A    between atoms: C_14  and  C_15
REMARK                            x       y       z     vdW  Elec       q    Type
REMARK                         _______ _______ _______ _____ _____    ______ ____
ROOT
ATOM      1  C   UNL     1       6.844   5.062  15.174  0.00  0.00    +0.000 C 
ATOM      2  O   UNL     1       7.807   4.637  15.804  0.00  0.00    +0.000 OA
ATOM      3  N   UNL     1       5.913   5.930  15.715  0.00  0.00    +0.000 N 
ATOM      4  H   UNL     1       5.016   6.018  15.250  0.00  0.00    +0.000 HD
ENDROOT
BRANCH   1   5
ATOM      5  C   UNL     1       6.648   4.833  13.651  0.00  0.00    +0.000 C 
BRANCH   5   6
ATOM      6  N   UNL     1       7.890   5.278  12.968  0.00  0.00    +0.000 NA
ATOM      7  H   UNL     1       8.033   4.666  12.157  0.00  0.00    +0.000 HD
ATOM      8  H   UNL     1       8.682   5.090  13.580  0.00  0.00    +0.000 HD
ENDBRANCH   5   6
BRANCH   5   9
ATOM      9  C   UNL     1       6.398   3.369  13.269  0.00  0.00    +0.000 C 
BRANCH   9  10
ATOM     10  C   UNL     1       5.747   3.153  11.899  0.00  0.00    +0.000 C 
BRANCH  10  11
ATOM     11  C   UNL     1       4.405   3.865  11.712  0.00  0.00    +0.000 C 
BRANCH  11  12
ATOM     12  C   UNL     1       3.548   3.111  10.693  0.00  0.00    +0.000 C 
BRANCH  12  13
ATOM     13  N   UNL     1       2.946   4.031   9.736  0.00  0.00    +0.000 NA
ATOM     14  H   UNL     1       2.674   4.885  10.221  0.00  0.00    +0.000 HD
ATOM     15  H   UNL     1       2.084   3.627   9.372  0.00  0.00    +0.000 HD
ENDBRANCH  12  13
ENDBRANCH  11  12
ENDBRANCH  10  11
ENDBRANCH   9  10
ENDBRANCH   5   9
ENDBRANCH   1   5
BRANCH   3  16
ATOM     16  C   UNL     1       5.976   6.375  17.097  0.00  0.00    +0.000 C 
BRANCH  16  17
ATOM     17  C   UNL     1       5.162   5.496  18.081  0.00  0.00    +0.000 C 
BRANCH  17  18
ATOM     18  N   UNL     1       5.680   4.110  18.075  0.00  0.00    +0.000 NA
ATOM     19  H   UNL     1       4.938   3.469  17.798  0.00  0.00    +0.000 HD
ATOM     20  H   UNL     1       5.905   3.853  19.040  0.00  0.00    +0.000 HD
ENDBRANCH  17  18
BRANCH  17  21
ATOM     21  C   UNL     1       3.667   5.551  17.675  0.00  0.00    +0.000 C 
BRANCH  21  22
ATOM     22  C   UNL     1       2.682   4.913  18.633  0.00  0.00    +0.000 A 
ATOM     23  C   UNL     1       1.792   3.923  18.195  0.00  0.00    +0.000 A 
ATOM     24  C   UNL     1       0.955   3.267  19.104  0.00  0.00    +0.000 A 
ATOM     25  C   UNL     1       0.998   3.594  20.457  0.00  0.00    +0.000 A 
ATOM     26  C   UNL     1       1.870   4.584  20.903  0.00  0.00    +0.000 A 
ATOM     27  C   UNL     1       2.707   5.239  19.997  0.00  0.00    +0.000 A 
ENDBRANCH  21  22
ENDBRANCH  17  21
ENDBRANCH  16  17
ENDBRANCH   3  16
TORSDOF 12
ENDMDL
