MODEL 1
REMARK VINA RESULT:      -8.3      0.000      0.000
REMARK  Name = 
REMARK  4 active torsions:
REMARK  status: ('A' for Active; 'I' for Inactive)
REMARK    1  A    between atoms: C_1  and  C_2
REMARK    2  A    between atoms: C_3  and  C_4
REMARK    3  A    between atoms: C_9  and  C_10
REMARK    4  A    between atoms: C_10  and  C_11
REMARK                            x       y       z     vdW  Elec       q    Type
REMARK                         _______ _______ _______ _____ _____    ______ ____
ROOT
ATOM      1  C   UNL     1       1.283   8.500  21.677  0.00  0.00    +0.000 C 
ATOM      2  C   UNL     1       1.498   8.719  20.221  0.00  0.00    +0.000 A 
ATOM      3  C   UNL     1       1.985   7.862  19.241  0.00  0.00    +0.000 A 
ATOM      4  C   UNL     1       1.968   8.639  18.066  0.00  0.00    +0.000 A 
ATOM      5  N   UNL     1       1.574   9.891  18.272  0.00  0.00    +0.000 NA
ATOM      6  N   UNL     1       1.274   9.941  19.603  0.00  0.00    +0.000 N 
ATOM      7  C   UNL     1       0.817  11.157  20.163  0.00  0.00    +0.000 A 
ATOM      8  N   UNL     1       0.230  11.243  21.323  0.00  0.00    +0.000 NA
ATOM      9  C   UNL     1      -0.067  12.571  21.676  0.00  0.00    +0.000 A 
ATOM     10  C   UNL     1      -0.979  12.974  22.670  0.00  0.00    +0.000 A 
ATOM     11  C   UNL     1      -1.002  14.355  22.774  0.00  0.00    +0.000 A 
ATOM     12  S   UNL     1       0.117  15.116  21.706  0.00  0.00    +0.000 S 
ATOM     13  C   UNL     1       0.533  13.622  21.043  0.00  0.00    +0.000 A 
ATOM     14  C   UNL     1       1.379  13.413  19.911  0.00  0.00    +0.000 A 
ATOM     15  O   UNL     1       2.288  14.140  19.543  0.00  0.00    +0.000 OA
ATOM     16  N   UNL     1       1.099  12.209  19.311  0.00  0.00    +0.000 N 
ATOM     17  H   UNL     1       0.258  12.343  18.759  0.00  0.00    +0.000 HD
ENDROOT
BRANCH   3  18
ATOM     18  C   UNL     1       2.336   6.461  19.404  0.00  0.00    +0.000 C 
ATOM     19  O   UNL     1       1.955   5.842  20.394  0.00  0.00    +0.000 OA
ATOM     20  N   UNL     1       3.065   5.841  18.387  0.00  0.00    +0.000 N 
ATOM     21  C   UNL     1       3.140   4.385  18.394  0.00  0.00    +0.000 C 
ATOM     22  C   UNL     1       4.574   3.922  18.616  0.00  0.00    +0.000 C 
ATOM     23  C   UNL     1       5.527   4.503  17.557  0.00  0.00    +0.000 C 
ATOM     24  C   UNL     1       5.404   6.039  17.585  0.00  0.00    +0.000 C 
ATOM     25  C   UNL     1       3.957   6.524  17.442  0.00  0.00    +0.000 C 
BRANCH  23  26
ATOM     26  C   UNL     1       5.302   3.965  16.127  0.00  0.00    +0.000 C 
BRANCH  26  27
ATOM     27  C   UNL     1       6.349   4.369  15.101  0.00  0.00    +0.000 C 
ATOM     28  F   UNL     1       7.580   4.508  15.626  0.00  0.00    +0.000 F 
ATOM     29  F   UNL     1       6.420   3.447  14.115  0.00  0.00    +0.000 F 
ATOM     30  F   UNL     1       6.017   5.547  14.528  0.00  0.00    +0.000 F 
ENDBRANCH  26  27
ENDBRANCH  23  26
ENDBRANCH   3  18
TORSDOF 3
ENDMDL
MODEL 2
REMARK VINA RESULT:      -8.3      2.994      4.056
REMARK  Name = 
REMARK  4 active torsions:
REMARK  status: ('A' for Active; 'I' for Inactive)
REMARK    1  A    between atoms: C_1  and  C_2
REMARK    2  A    between atoms: C_3  and  C_4
REMARK    3  A    between atoms: C_9  and  C_10
REMARK    4  A    between atoms: C_10  and  C_11
REMARK                            x       y       z     vdW  Elec       q    Type
REMARK                         _______ _______ _______ _____ _____    ______ ____
ROOT
ATOM      1  C   UNL     1      -0.120  10.530  18.817  0.00  0.00    +0.000 C 
ATOM      2  C   UNL     1       0.380   9.996  20.112  0.00  0.00    +0.000 A 
ATOM      3  C   UNL     1       1.204   8.909  20.384  0.00  0.00    +0.000 A 
ATOM      4  C   UNL     1       1.309   8.900  21.788  0.00  0.00    +0.000 A 
ATOM      5  N   UNL     1       0.578   9.841  22.374  0.00  0.00    +0.000 NA
ATOM      6  N   UNL     1       0.008  10.526  21.339  0.00  0.00    +0.000 N 
ATOM      7  C   UNL     1      -0.852  11.613  21.621  0.00  0.00    +0.000 A 
ATOM      8  N   UNL     1      -1.203  12.504  20.738  0.00  0.00    +0.000 NA
ATOM      9  C   UNL     1      -2.114  13.442  21.254  0.00  0.00    +0.000 A 
ATOM     10  C   UNL     1      -2.417  14.695  20.688  0.00  0.00    +0.000 A 
ATOM     11  C   UNL     1      -3.379  15.346  21.441  0.00  0.00    +0.000 A 
ATOM     12  S   UNL     1      -3.924  14.401  22.776  0.00  0.00    +0.000 S 
ATOM     13  C   UNL     1      -2.803  13.196  22.408  0.00  0.00    +0.000 A 
ATOM     14  C   UNL     1      -2.522  12.041  23.201  0.00  0.00    +0.000 A 
ATOM     15  O   UNL     1      -3.298  11.474  23.954  0.00  0.00    +0.000 OA
ATOM     16  N   UNL     1      -1.258  11.570  22.942  0.00  0.00    +0.000 N 
ATOM     17  H   UNL     1      -0.611  12.171  23.443  0.00  0.00    +0.000 HD
ENDROOT
BRANCH   3  18
ATOM     18  C   UNL     1       1.866   8.053  19.412  0.00  0.00    +0.000 C 
ATOM     19  O   UNL     1       2.105   8.473  18.284  0.00  0.00    +0.000 OA
ATOM     20  N   UNL     1       2.259   6.776  19.820  0.00  0.00    +0.000 N 
ATOM     21  C   UNL     1       3.191   6.048  18.966  0.00  0.00    +0.000 C 
ATOM     22  C   UNL     1       2.534   4.798  18.397  0.00  0.00    +0.000 C 
ATOM     23  C   UNL     1       1.999   3.882  19.511  0.00  0.00    +0.000 C 
ATOM     24  C   UNL     1       1.028   4.699  20.386  0.00  0.00    +0.000 C 
ATOM     25  C   UNL     1       1.645   6.003  20.905  0.00  0.00    +0.000 C 
BRANCH  23  26
ATOM     26  C   UNL     1       3.092   3.225  20.382  0.00  0.00    +0.000 C 
BRANCH  26  27
ATOM     27  C   UNL     1       4.162   2.456  19.623  0.00  0.00    +0.000 C 
ATOM     28  F   UNL     1       3.672   1.735  18.599  0.00  0.00    +0.000 F 
ATOM     29  F   UNL     1       5.088   3.307  19.126  0.00  0.00    +0.000 F 
ATOM     30  F   UNL     1       4.805   1.601  20.451  0.00  0.00    +0.000 F 
ENDBRANCH  26  27
ENDBRANCH  23  26
ENDBRANCH   3  18
TORSDOF 3
ENDMDL
MODEL 3
REMARK VINA RESULT:      -8.2      0.864      1.115
REMARK  Name = 
REMARK  4 active torsions:
REMARK  status: ('A' for Active; 'I' for Inactive)
REMARK    1  A    between atoms: C_1  and  C_2
REMARK    2  A    between atoms: C_3  and  C_4
REMARK    3  A    between atoms: C_9  and  C_10
REMARK    4  A    between atoms: C_10  and  C_11
REMARK                            x       y       z     vdW  Elec       q    Type
REMARK                         _______ _______ _______ _____ _____    ______ ____
ROOT
ATOM      1  C   UNL     1       0.895   8.542  21.116  0.00  0.00    +0.000 C 
ATOM      2  C   UNL     1       1.373   8.714  19.718  0.00  0.00    +0.000 A 
ATOM      3  C   UNL     1       2.145   7.878  18.918  0.00  0.00    +0.000 A 
ATOM      4  C   UNL     1       2.277   8.587  17.709  0.00  0.00    +0.000 A 
ATOM      5  N   UNL     1       1.707   9.787  17.739  0.00  0.00    +0.000 NA
ATOM      6  N   UNL     1       1.141   9.864  18.979  0.00  0.00    +0.000 N 
ATOM      7  C   UNL     1       0.443  11.039  19.348  0.00  0.00    +0.000 A 
ATOM      8  N   UNL     1      -0.373  11.107  20.361  0.00  0.00    +0.000 NA
ATOM      9  C   UNL     1      -0.887  12.401  20.550  0.00  0.00    +0.000 A 
ATOM     10  C   UNL     1      -2.022  12.734  21.314  0.00  0.00    +0.000 A 
ATOM     11  C   UNL     1      -2.224  14.104  21.309  0.00  0.00    +0.000 A 
ATOM     12  S   UNL     1      -1.007  14.947  20.427  0.00  0.00    +0.000 S 
ATOM     13  C   UNL     1      -0.296  13.488  19.970  0.00  0.00    +0.000 A 
ATOM     14  C   UNL     1       0.780  13.333  19.043  0.00  0.00    +0.000 A 
ATOM     15  O   UNL     1       1.655  14.150  18.807  0.00  0.00    +0.000 OA
ATOM     16  N   UNL     1       0.768  12.075  18.491  0.00  0.00    +0.000 N 
ATOM     17  H   UNL     1       0.046  12.072  17.778  0.00  0.00    +0.000 HD
ENDROOT
BRANCH   3  18
ATOM     18  C   UNL     1       2.614   6.543  19.250  0.00  0.00    +0.000 C 
ATOM     19  O   UNL     1       2.325   6.040  20.333  0.00  0.00    +0.000 OA
ATOM     20  N   UNL     1       3.349   5.845  18.289  0.00  0.00    +0.000 N 
ATOM     21  C   UNL     1       3.542   4.413  18.489  0.00  0.00    +0.000 C 
ATOM     22  C   UNL     1       5.016   4.094  18.697  0.00  0.00    +0.000 C 
ATOM     23  C   UNL     1       5.875   4.592  17.522  0.00  0.00    +0.000 C 
ATOM     24  C   UNL     1       5.629   6.104  17.349  0.00  0.00    +0.000 C 
ATOM     25  C   UNL     1       4.143   6.456  17.217  0.00  0.00    +0.000 C 
BRANCH  23  26
ATOM     26  C   UNL     1       5.636   3.847  16.191  0.00  0.00    +0.000 C 
BRANCH  26  27
ATOM     27  C   UNL     1       6.445   4.346  15.003  0.00  0.00    +0.000 C 
ATOM     28  F   UNL     1       5.951   5.474  14.462  0.00  0.00    +0.000 F 
ATOM     29  F   UNL     1       7.722   4.588  15.374  0.00  0.00    +0.000 F 
ATOM     30  F   UNL     1       6.479   3.409  14.029  0.00  0.00    +0.000 F 
ENDBRANCH  26  27
ENDBRANCH  23  26
ENDBRANCH   3  18
TORSDOF 3
ENDMDL
MODEL 4
REMARK VINA RESULT:      -8.1      3.074      4.111
REMARK  Name = 
REMARK  4 active torsions:
REMARK  status: ('A' for Active; 'I' for Inactive)
REMARK    1  A    between atoms: C_1  and  C_2
REMARK    2  A    between atoms: C_3  and  C_4
REMARK    3  A    between atoms: C_9  and  C_10
REMARK    4  A    between atoms: C_10  and  C_11
REMARK                            x       y       z     vdW  Elec       q    Type
REMARK                         _______ _______ _______ _____ _____    ______ ____
ROOT
ATOM      1  C   UNL     1       1.138  11.577  19.667  0.00  0.00    +0.000 C 
ATOM      2  C   UNL     1       0.729  10.408  20.491  0.00  0.00    +0.000 A 
ATOM      3  C   UNL     1       0.915   9.046  20.282  0.00  0.00    +0.000 A 
ATOM      4  C   UNL     1       0.299   8.441  21.394  0.00  0.00    +0.000 A 
ATOM      5  N   UNL     1      -0.285   9.313  22.209  0.00  0.00    +0.000 NA
ATOM      6  N   UNL     1      -0.013  10.531  21.656  0.00  0.00    +0.000 N 
ATOM      7  C   UNL     1      -0.503  11.700  22.286  0.00  0.00    +0.000 A 
ATOM      8  N   UNL     1      -0.064  12.899  22.026  0.00  0.00    +0.000 NA
ATOM      9  C   UNL     1      -0.759  13.890  22.739  0.00  0.00    +0.000 A 
ATOM     10  C   UNL     1      -0.325  15.214  22.946  0.00  0.00    +0.000 A 
ATOM     11  C   UNL     1      -1.270  15.927  23.664  0.00  0.00    +0.000 A 
ATOM     12  S   UNL     1      -2.673  14.990  24.019  0.00  0.00    +0.000 S 
ATOM     13  C   UNL     1      -1.967  13.627  23.320  0.00  0.00    +0.000 A 
ATOM     14  C   UNL     1      -2.501  12.303  23.340  0.00  0.00    +0.000 A 
ATOM     15  O   UNL     1      -3.681  11.999  23.403  0.00  0.00    +0.000 OA
ATOM     16  N   UNL     1      -1.500  11.374  23.185  0.00  0.00    +0.000 N 
ATOM     17  H   UNL     1      -1.036  11.287  24.084  0.00  0.00    +0.000 HD
ENDROOT
BRANCH   3  18
ATOM     18  C   UNL     1       1.661   8.423  19.199  0.00  0.00    +0.000 C 
ATOM     19  O   UNL     1       1.745   8.982  18.110  0.00  0.00    +0.000 OA
ATOM     20  N   UNL     1       2.309   7.214  19.457  0.00  0.00    +0.000 N 
ATOM     21  C   UNL     1       3.304   6.757  18.493  0.00  0.00    +0.000 C 
ATOM     22  C   UNL     1       2.855   5.461  17.831  0.00  0.00    +0.000 C 
ATOM     23  C   UNL     1       2.571   4.363  18.869  0.00  0.00    +0.000 C 
ATOM     24  C   UNL     1       1.523   4.897  19.866  0.00  0.00    +0.000 C 
ATOM     25  C   UNL     1       1.920   6.242  20.486  0.00  0.00    +0.000 C 
BRANCH  23  26
ATOM     26  C   UNL     1       3.820   3.850  19.618  0.00  0.00    +0.000 C 
BRANCH  26  27
ATOM     27  C   UNL     1       3.735   2.423  20.138  0.00  0.00    +0.000 C 
ATOM     28  F   UNL     1       4.922   1.790  20.147  0.00  0.00    +0.000 F 
ATOM     29  F   UNL     1       3.248   2.410  21.398  0.00  0.00    +0.000 F 
ATOM     30  F   UNL     1       2.893   1.693  19.372  0.00  0.00    +0.000 F 
ENDBRANCH  26  27
ENDBRANCH  23  26
ENDBRANCH   3  18
TORSDOF 3
ENDMDL
MODEL 5
REMARK VINA RESULT:      -8.1      3.754      4.756
REMARK  Name = 
REMARK  4 active torsions:
REMARK  status: ('A' for Active; 'I' for Inactive)
REMARK    1  A    between atoms: C_1  and  C_2
REMARK    2  A    between atoms: C_3  and  C_4
REMARK    3  A    between atoms: C_9  and  C_10
REMARK    4  A    between atoms: C_10  and  C_11
REMARK                            x       y       z     vdW  Elec       q    Type
REMARK                         _______ _______ _______ _____ _____    ______ ____
ROOT
ATOM      1  C   UNL     1      -1.481  10.181  18.526  0.00  0.00    +0.000 C 
ATOM      2  C   UNL     1      -0.511  10.348  19.641  0.00  0.00    +0.000 A 
ATOM      3  C   UNL     1       0.737   9.772  19.847  0.00  0.00    +0.000 A 
ATOM      4  C   UNL     1       1.163  10.306  21.079  0.00  0.00    +0.000 A 
ATOM      5  N   UNL     1       0.259  11.096  21.648  0.00  0.00    +0.000 NA
ATOM      6  N   UNL     1      -0.775  11.130  20.756  0.00  0.00    +0.000 N 
ATOM      7  C   UNL     1      -1.926  11.895  21.062  0.00  0.00    +0.000 A 
ATOM      8  N   UNL     1      -2.821  12.236  20.180  0.00  0.00    +0.000 NA
ATOM      9  C   UNL     1      -3.896  12.938  20.751  0.00  0.00    +0.000 A 
ATOM     10  C   UNL     1      -4.831  13.726  20.052  0.00  0.00    +0.000 A 
ATOM     11  C   UNL     1      -5.773  14.246  20.923  0.00  0.00    +0.000 A 
ATOM     12  S   UNL     1      -5.529  13.724  22.548  0.00  0.00    +0.000 S 
ATOM     13  C   UNL     1      -4.121  12.912  22.099  0.00  0.00    +0.000 A 
ATOM     14  C   UNL     1      -3.194  12.285  22.987  0.00  0.00    +0.000 A 
ATOM     15  O   UNL     1      -3.451  11.805  24.080  0.00  0.00    +0.000 OA
ATOM     16  N   UNL     1      -1.950  12.199  22.410  0.00  0.00    +0.000 N 
ATOM     17  H   UNL     1      -1.526  13.119  22.487  0.00  0.00    +0.000 HD
ENDROOT
BRANCH   3  18
ATOM     18  C   UNL     1       1.454   8.895  18.935  0.00  0.00    +0.000 C 
ATOM     19  O   UNL     1       1.621   9.227  17.765  0.00  0.00    +0.000 OA
ATOM     20  N   UNL     1       1.980   7.705  19.444  0.00  0.00    +0.000 N 
ATOM     21  C   UNL     1       2.956   6.991  18.628  0.00  0.00    +0.000 C 
ATOM     22  C   UNL     1       2.409   5.636  18.199  0.00  0.00    +0.000 C 
ATOM     23  C   UNL     1       1.995   4.783  19.411  0.00  0.00    +0.000 C 
ATOM     24  C   UNL     1       0.972   5.583  20.241  0.00  0.00    +0.000 C 
ATOM     25  C   UNL     1       1.473   6.983  20.616  0.00  0.00    +0.000 C 
BRANCH  23  26
ATOM     26  C   UNL     1       3.169   4.317  20.299  0.00  0.00    +0.000 C 
BRANCH  26  27
ATOM     27  C   UNL     1       3.221   2.825  20.591  0.00  0.00    +0.000 C 
ATOM     28  F   UNL     1       2.345   2.111  19.861  0.00  0.00    +0.000 F 
ATOM     29  F   UNL     1       4.459   2.341  20.343  0.00  0.00    +0.000 F 
ATOM     30  F   UNL     1       2.950   2.591  21.895  0.00  0.00    +0.000 F 
ENDBRANCH  26  27
ENDBRANCH  23  26
ENDBRANCH   3  18
TORSDOF 3
ENDMDL
MODEL 6
REMARK VINA RESULT:      -8.0      0.833      1.104
REMARK  Name = 
REMARK  4 active torsions:
REMARK  status: ('A' for Active; 'I' for Inactive)
REMARK    1  A    between atoms: C_1  and  C_2
REMARK    2  A    between atoms: C_3  and  C_4
REMARK    3  A    between atoms: C_9  and  C_10
REMARK    4  A    between atoms: C_10  and  C_11
REMARK                            x       y       z     vdW  Elec       q    Type
REMARK                         _______ _______ _______ _____ _____    ______ ____
ROOT
ATOM      1  C   UNL     1       1.091   8.624  21.739  0.00  0.00    +0.000 C 
ATOM      2  C   UNL     1       1.303   9.057  20.332  0.00  0.00    +0.000 A 
ATOM      3  C   UNL     1       1.852   8.377  19.251  0.00  0.00    +0.000 A 
ATOM      4  C   UNL     1       1.795   9.307  18.195  0.00  0.00    +0.000 A 
ATOM      5  N   UNL     1       1.318  10.491  18.565  0.00  0.00    +0.000 NA
ATOM      6  N   UNL     1       1.005  10.336  19.885  0.00  0.00    +0.000 N 
ATOM      7  C   UNL     1       0.466  11.432  20.600  0.00  0.00    +0.000 A 
ATOM      8  N   UNL     1      -0.135  11.318  21.750  0.00  0.00    +0.000 NA
ATOM      9  C   UNL     1      -0.521  12.562  22.279  0.00  0.00    +0.000 A 
ATOM     10  C   UNL     1      -1.465  12.765  23.303  0.00  0.00    +0.000 A 
ATOM     11  C   UNL     1      -1.578  14.113  23.598  0.00  0.00    +0.000 A 
ATOM     12  S   UNL     1      -0.502  15.084  22.664  0.00  0.00    +0.000 S 
ATOM     13  C   UNL     1       0.015  13.727  21.808  0.00  0.00    +0.000 A 
ATOM     14  C   UNL     1       0.882  13.731  20.672  0.00  0.00    +0.000 A 
ATOM     15  O   UNL     1       1.745  14.558  20.424  0.00  0.00    +0.000 OA
ATOM     16  N   UNL     1       0.686  12.607  19.907  0.00  0.00    +0.000 N 
ATOM     17  H   UNL     1      -0.158  12.763  19.365  0.00  0.00    +0.000 HD
ENDROOT
BRANCH   3  18
ATOM     18  C   UNL     1       2.292   6.991  19.225  0.00  0.00    +0.000 C 
ATOM     19  O   UNL     1       1.987   6.232  20.139  0.00  0.00    +0.000 OA
ATOM     20  N   UNL     1       3.017   6.552  18.115  0.00  0.00    +0.000 N 
ATOM     21  C   UNL     1       3.179   5.113  17.936  0.00  0.00    +0.000 C 
ATOM     22  C   UNL     1       4.645   4.719  18.053  0.00  0.00    +0.000 C 
ATOM     23  C   UNL     1       5.521   5.487  17.048  0.00  0.00    +0.000 C 
ATOM     24  C   UNL     1       5.308   6.996  17.273  0.00  0.00    +0.000 C 
ATOM     25  C   UNL     1       3.830   7.402  17.238  0.00  0.00    +0.000 C 
BRANCH  23  26
ATOM     26  C   UNL     1       5.273   5.118  15.569  0.00  0.00    +0.000 C 
BRANCH  26  27
ATOM     27  C   UNL     1       6.241   4.108  14.972  0.00  0.00    +0.000 C 
ATOM     28  F   UNL     1       6.154   4.017  13.633  0.00  0.00    +0.000 F 
ATOM     29  F   UNL     1       7.514   4.437  15.285  0.00  0.00    +0.000 F 
ATOM     30  F   UNL     1       6.007   2.876  15.478  0.00  0.00    +0.000 F 
ENDBRANCH  26  27
ENDBRANCH  23  26
ENDBRANCH   3  18
TORSDOF 3
ENDMDL
MODEL 7
REMARK VINA RESULT:      -7.9      3.630      4.584
REMARK  Name = 
REMARK  4 active torsions:
REMARK  status: ('A' for Active; 'I' for Inactive)
REMARK    1  A    between atoms: C_1  and  C_2
REMARK    2  A    between atoms: C_3  and  C_4
REMARK    3  A    between atoms: C_9  and  C_10
REMARK    4  A    between atoms: C_10  and  C_11
REMARK                            x       y       z     vdW  Elec       q    Type
REMARK                         _______ _______ _______ _____ _____    ______ ____
ROOT
ATOM      1  C   UNL     1      -0.043  10.862  18.772  0.00  0.00    +0.000 C 
ATOM      2  C   UNL     1       0.420  10.256  20.049  0.00  0.00    +0.000 A 
ATOM      3  C   UNL     1       1.206   9.133  20.284  0.00  0.00    +0.000 A 
ATOM      4  C   UNL     1       1.289   9.060  21.688  0.00  0.00    +0.000 A 
ATOM      5  N   UNL     1       0.578   9.997  22.305  0.00  0.00    +0.000 NA
ATOM      6  N   UNL     1       0.046  10.744  21.293  0.00  0.00    +0.000 N 
ATOM      7  C   UNL     1      -0.784  11.846  21.610  0.00  0.00    +0.000 A 
ATOM      8  N   UNL     1      -1.093  12.785  20.762  0.00  0.00    +0.000 NA
ATOM      9  C   UNL     1      -1.982  13.727  21.306  0.00  0.00    +0.000 A 
ATOM     10  C   UNL     1      -2.237  15.013  20.792  0.00  0.00    +0.000 A 
ATOM     11  C   UNL     1      -3.190  15.661  21.559  0.00  0.00    +0.000 A 
ATOM     12  S   UNL     1      -3.785  14.677  22.843  0.00  0.00    +0.000 S 
ATOM     13  C   UNL     1      -2.696  13.453  22.438  0.00  0.00    +0.000 A 
ATOM     14  C   UNL     1      -2.464  12.257  23.183  0.00  0.00    +0.000 A 
ATOM     15  O   UNL     1      -3.269  11.683  23.899  0.00  0.00    +0.000 OA
ATOM     16  N   UNL     1      -1.211  11.758  22.922  0.00  0.00    +0.000 N 
ATOM     17  H   UNL     1      -0.554  12.315  23.458  0.00  0.00    +0.000 HD
ENDROOT
BRANCH   3  18
ATOM     18  C   UNL     1       1.856   8.300  19.286  0.00  0.00    +0.000 C 
ATOM     19  O   UNL     1       2.075   8.743  18.162  0.00  0.00    +0.000 OA
ATOM     20  N   UNL     1       2.261   7.017  19.661  0.00  0.00    +0.000 N 
ATOM     21  C   UNL     1       3.183   6.310  18.779  0.00  0.00    +0.000 C 
ATOM     22  C   UNL     1       2.522   5.068  18.196  0.00  0.00    +0.000 C 
ATOM     23  C   UNL     1       2.010   4.128  19.301  0.00  0.00    +0.000 C 
ATOM     24  C   UNL     1       1.049   4.923  20.207  0.00  0.00    +0.000 C 
ATOM     25  C   UNL     1       1.669   6.220  20.741  0.00  0.00    +0.000 C 
BRANCH  23  26
ATOM     26  C   UNL     1       3.120   3.459  20.141  0.00  0.00    +0.000 C 
BRANCH  26  27
ATOM     27  C   UNL     1       2.645   2.689  21.363  0.00  0.00    +0.000 C 
ATOM     28  F   UNL     1       3.565   1.830  21.838  0.00  0.00    +0.000 F 
ATOM     29  F   UNL     1       2.321   3.543  22.359  0.00  0.00    +0.000 F 
ATOM     30  F   UNL     1       1.536   1.974  21.067  0.00  0.00    +0.000 F 
ENDBRANCH  26  27
ENDBRANCH  23  26
ENDBRANCH   3  18
TORSDOF 3
ENDMDL
MODEL 8
REMARK VINA RESULT:      -7.9      5.006      8.810
REMARK  Name = 
REMARK  4 active torsions:
REMARK  status: ('A' for Active; 'I' for Inactive)
REMARK    1  A    between atoms: C_1  and  C_2
REMARK    2  A    between atoms: C_3  and  C_4
REMARK    3  A    between atoms: C_9  and  C_10
REMARK    4  A    between atoms: C_10  and  C_11
REMARK                            x       y       z     vdW  Elec       q    Type
REMARK                         _______ _______ _______ _____ _____    ______ ____
ROOT
ATOM      1  C   UNL     1       2.540   9.482  17.493  0.00  0.00    +0.000 C 
ATOM      2  C   UNL     1       2.110   8.712  18.691  0.00  0.00    +0.000 A 
ATOM      3  C   UNL     1       1.220   9.042  19.706  0.00  0.00    +0.000 A 
ATOM      4  C   UNL     1       1.239   7.921  20.558  0.00  0.00    +0.000 A 
ATOM      5  N   UNL     1       2.100   6.985  20.173  0.00  0.00    +0.000 NA
ATOM      6  N   UNL     1       2.634   7.469  19.013  0.00  0.00    +0.000 N 
ATOM      7  C   UNL     1       3.609   6.703  18.330  0.00  0.00    +0.000 A 
ATOM      8  N   UNL     1       3.958   6.916  17.093  0.00  0.00    +0.000 NA
ATOM      9  C   UNL     1       4.990   6.060  16.672  0.00  0.00    +0.000 A 
ATOM     10  C   UNL     1       5.351   5.799  15.336  0.00  0.00    +0.000 A 
ATOM     11  C   UNL     1       6.430   4.933  15.287  0.00  0.00    +0.000 A 
ATOM     12  S   UNL     1       7.004   4.504  16.855  0.00  0.00    +0.000 S 
ATOM     13  C   UNL     1       5.753   5.376  17.576  0.00  0.00    +0.000 A 
ATOM     14  C   UNL     1       5.442   5.401  18.969  0.00  0.00    +0.000 A 
ATOM     15  O   UNL     1       6.229   5.238  19.889  0.00  0.00    +0.000 OA
ATOM     16  N   UNL     1       4.124   5.731  19.167  0.00  0.00    +0.000 N 
ATOM     17  H   UNL     1       3.579   4.895  18.978  0.00  0.00    +0.000 HD
ENDROOT
BRANCH   3  18
ATOM     18  C   UNL     1       0.402  10.241  19.793  0.00  0.00    +0.000 C 
ATOM     19  O   UNL     1       0.496  10.981  20.768  0.00  0.00    +0.000 OA
ATOM     20  N   UNL     1      -0.440  10.543  18.721  0.00  0.00    +0.000 N 
ATOM     21  C   UNL     1      -1.010  11.884  18.660  0.00  0.00    +0.000 C 
ATOM     22  C   UNL     1      -2.525  11.831  18.804  0.00  0.00    +0.000 C 
ATOM     23  C   UNL     1      -3.165  10.928  17.735  0.00  0.00    +0.000 C 
ATOM     24  C   UNL     1      -2.524   9.530  17.836  0.00  0.00    +0.000 C 
ATOM     25  C   UNL     1      -0.993   9.568  17.773  0.00  0.00    +0.000 C 
BRANCH  23  26
ATOM     26  C   UNL     1      -3.062  11.470  16.293  0.00  0.00    +0.000 C 
BRANCH  26  27
ATOM     27  C   UNL     1      -3.356  10.464  15.191  0.00  0.00    +0.000 C 
ATOM     28  F   UNL     1      -2.247   9.927  14.652  0.00  0.00    +0.000 F 
ATOM     29  F   UNL     1      -4.116   9.453  15.669  0.00  0.00    +0.000 F 
ATOM     30  F   UNL     1      -4.050  11.051  14.190  0.00  0.00    +0.000 F 
ENDBRANCH  26  27
ENDBRANCH  23  26
ENDBRANCH   3  18
TORSDOF 3
ENDMDL
MODEL 9
REMARK VINA RESULT:      -7.9      6.292      7.388
REMARK  Name = 
REMARK  4 active torsions:
REMARK  status: ('A' for Active; 'I' for Inactive)
REMARK    1  A    between atoms: C_1  and  C_2
REMARK    2  A    between atoms: C_3  and  C_4
REMARK    3  A    between atoms: C_9  and  C_10
REMARK    4  A    between atoms: C_10  and  C_11
REMARK                            x       y       z     vdW  Elec       q    Type
REMARK                         _______ _______ _______ _____ _____    ______ ____
ROOT
ATOM      1  C   UNL     1       6.346   8.347  16.723  0.00  0.00    +0.000 C 
ATOM      2  C   UNL     1       7.149   7.502  17.646  0.00  0.00    +0.000 A 
ATOM      3  C   UNL     1       7.060   6.145  17.936  0.00  0.00    +0.000 A 
ATOM      4  C   UNL     1       8.075   5.930  18.889  0.00  0.00    +0.000 A 
ATOM      5  N   UNL     1       8.715   7.043  19.233  0.00  0.00    +0.000 NA
ATOM      6  N   UNL     1       8.149   8.015  18.459  0.00  0.00    +0.000 N 
ATOM      7  C   UNL     1       8.607   9.349  18.582  0.00  0.00    +0.000 A 
ATOM      8  N   UNL     1       8.360  10.280  17.705  0.00  0.00    +0.000 NA
ATOM      9  C   UNL     1       8.872  11.530  18.093  0.00  0.00    +0.000 A 
ATOM     10  C   UNL     1       9.075  12.637  17.246  0.00  0.00    +0.000 A 
ATOM     11  C   UNL     1       9.564  13.714  17.965  0.00  0.00    +0.000 A 
ATOM     12  S   UNL     1       9.711  13.371  19.649  0.00  0.00    +0.000 S 
ATOM     13  C   UNL     1       9.236  11.774  19.387  0.00  0.00    +0.000 A 
ATOM     14  C   UNL     1       9.238  10.729  20.360  0.00  0.00    +0.000 A 
ATOM     15  O   UNL     1       9.100  10.862  21.566  0.00  0.00    +0.000 OA
ATOM     16  N   UNL     1       9.325   9.500  19.753  0.00  0.00    +0.000 N 
ATOM     17  H   UNL     1      10.298   9.369  19.492  0.00  0.00    +0.000 HD
ENDROOT
BRANCH   3  18
ATOM     18  C   UNL     1       6.173   5.176  17.313  0.00  0.00    +0.000 C 
ATOM     19  O   UNL     1       6.353   4.840  16.146  0.00  0.00    +0.000 OA
ATOM     20  N   UNL     1       5.160   4.614  18.092  0.00  0.00    +0.000 N 
ATOM     21  C   UNL     1       4.485   3.428  17.576  0.00  0.00    +0.000 C 
ATOM     22  C   UNL     1       3.017   3.724  17.300  0.00  0.00    +0.000 C 
ATOM     23  C   UNL     1       2.298   4.247  18.556  0.00  0.00    +0.000 C 
ATOM     24  C   UNL     1       3.054   5.490  19.064  0.00  0.00    +0.000 C 
ATOM     25  C   UNL     1       4.551   5.236  19.273  0.00  0.00    +0.000 C 
BRANCH  23  26
ATOM     26  C   UNL     1       2.143   3.206  19.687  0.00  0.00    +0.000 C 
BRANCH  26  27
ATOM     27  C   UNL     1       1.413   3.690  20.930  0.00  0.00    +0.000 C 
ATOM     28  F   UNL     1       0.478   4.621  20.667  0.00  0.00    +0.000 F 
ATOM     29  F   UNL     1       0.805   2.655  21.550  0.00  0.00    +0.000 F 
ATOM     30  F   UNL     1       2.287   4.230  21.809  0.00  0.00    +0.000 F 
ENDBRANCH  26  27
ENDBRANCH  23  26
ENDBRANCH   3  18
TORSDOF 3
ENDMDL
