MODEL 1
REMARK VINA RESULT:      -7.6      0.000      0.000
REMARK  Name = 
REMARK  6 active torsions:
REMARK  status: ('A' for Active; 'I' for Inactive)
REMARK    1  A    between atoms: C_2  and  C_3
REMARK    2  A    between atoms: C_3  and  O_4
REMARK    3  A    between atoms: O_4  and  C_5
REMARK    4  A    between atoms: C_5  and  O_6
REMARK    5  A    between atoms: C_8  and  C_9
REMARK    6  A    between atoms: C_16  and  C_17
REMARK                            x       y       z     vdW  Elec       q    Type
REMARK                         _______ _______ _______ _____ _____    ______ ____
ROOT
ATOM      1  C   UNL     1       2.049   3.771  17.828  0.00  0.00    +0.000 C 
ATOM      2  C   UNL     1       3.320   4.194  18.011  0.00  0.00    +0.000 C 
ATOM      3  C   UNL     1       4.460   3.358  18.562  0.00  0.00    +0.000 C 
ATOM      4  C   UNL     1       4.279   1.930  19.056  0.00  0.00    +0.000 C 
ATOM      5  N   UNL     1       5.695   3.749  18.646  0.00  0.00    +0.000 NA
ATOM      6  C   UNL     1       6.036   4.983  18.232  0.00  0.00    +0.000 A 
ATOM      7  N   UNL     1       7.225   5.543  18.178  0.00  0.00    +0.000 NA
ATOM      8  C   UNL     1       6.982   6.784  17.673  0.00  0.00    +0.000 A 
ATOM      9  N   UNL     1       5.706   7.042  17.375  0.00  0.00    +0.000 NA
ATOM     10  N   UNL     1       5.125   5.891  17.779  0.00  0.00    +0.000 N 
ATOM     11  C   UNL     1       3.692   5.642  17.687  0.00  0.00    +0.000 C 
ENDROOT
BRANCH  11  12
ATOM     12  C   UNL     1       2.933   6.651  18.548  0.00  0.00    +0.000 A 
ATOM     13  C   UNL     1       2.357   7.796  17.967  0.00  0.00    +0.000 A 
ATOM     14  C   UNL     1       1.576   8.658  18.738  0.00  0.00    +0.000 A 
ATOM     15 BR   UNL     1       0.751  10.153  17.924  0.00  0.00    +0.000 Br
ATOM     16  C   UNL     1       1.373   8.412  20.094  0.00  0.00    +0.000 A 
ATOM     17  C   UNL     1       1.961   7.296  20.686  0.00  0.00    +0.000 A 
ATOM     18  C   UNL     1       2.729   6.428  19.914  0.00  0.00    +0.000 A 
ATOM     19  F   UNL     1       3.248   5.342  20.500  0.00  0.00    +0.000 F 
ENDBRANCH  11  12
BRANCH   1  20
ATOM     20  O   UNL     1       1.119   4.643  17.299  0.00  0.00    +0.000 OA
ATOM     21  H   UNL     1       1.276   5.504  17.729  0.00  0.00    +0.000 HD
ENDBRANCH   1  20
BRANCH   1  22
ATOM     22  O   UNL     1       1.617   2.554  18.266  0.00  0.00    +0.000 OA
BRANCH  22  23
ATOM     23  C   UNL     1       0.482   2.485  19.126  0.00  0.00    +0.000 C 
BRANCH  23  25
ATOM     24  C   UNL     1       1.498   2.683  21.428  0.00  0.00    +0.000 C 
ATOM     25  C   UNL     1       0.854   3.214  20.380  0.00  0.00    +0.000 C 
ENDBRANCH  23  25
ENDBRANCH  22  23
ENDBRANCH   1  22
TORSDOF 5
ENDMDL
MODEL 2
REMARK VINA RESULT:      -7.5      1.498      1.802
REMARK  Name = 
REMARK  6 active torsions:
REMARK  status: ('A' for Active; 'I' for Inactive)
REMARK    1  A    between atoms: C_2  and  C_3
REMARK    2  A    between atoms: C_3  and  O_4
REMARK    3  A    between atoms: O_4  and  C_5
REMARK    4  A    between atoms: C_5  and  O_6
REMARK    5  A    between atoms: C_8  and  C_9
REMARK    6  A    between atoms: C_16  and  C_17
REMARK                            x       y       z     vdW  Elec       q    Type
REMARK                         _______ _______ _______ _____ _____    ______ ____
ROOT
ATOM      1  C   UNL     1       2.485   3.627  17.999  0.00  0.00    +0.000 C 
ATOM      2  C   UNL     1       3.698   4.147  18.289  0.00  0.00    +0.000 C 
ATOM      3  C   UNL     1       4.719   3.539  19.234  0.00  0.00    +0.000 C 
ATOM      4  C   UNL     1       4.454   2.277  20.041  0.00  0.00    +0.000 C 
ATOM      5  N   UNL     1       5.915   4.002  19.432  0.00  0.00    +0.000 NA
ATOM      6  C   UNL     1       6.323   5.106  18.779  0.00  0.00    +0.000 A 
ATOM      7  N   UNL     1       7.500   5.695  18.795  0.00  0.00    +0.000 NA
ATOM      8  C   UNL     1       7.350   6.752  17.949  0.00  0.00    +0.000 A 
ATOM      9  N   UNL     1       6.150   6.859  17.372  0.00  0.00    +0.000 NA
ATOM     10  N   UNL     1       5.508   5.821  17.951  0.00  0.00    +0.000 N 
ATOM     11  C   UNL     1       4.119   5.483  17.673  0.00  0.00    +0.000 C 
ENDROOT
BRANCH  11  12
ATOM     12  C   UNL     1       3.209   6.636  18.092  0.00  0.00    +0.000 A 
ATOM     13  C   UNL     1       2.614   6.649  19.368  0.00  0.00    +0.000 A 
ATOM     14  C   UNL     1       1.869   7.754  19.784  0.00  0.00    +0.000 A 
ATOM     15 BR   UNL     1       1.137   7.785  21.528  0.00  0.00    +0.000 Br
ATOM     16  C   UNL     1       1.685   8.847  18.940  0.00  0.00    +0.000 A 
ATOM     17  C   UNL     1       2.247   8.833  17.665  0.00  0.00    +0.000 A 
ATOM     18  C   UNL     1       3.001   7.737  17.254  0.00  0.00    +0.000 A 
ATOM     19  F   UNL     1       3.563   7.768  16.039  0.00  0.00    +0.000 F 
ENDBRANCH  11  12
BRANCH   1  20
ATOM     20  O   UNL     1       1.666   4.287  17.104  0.00  0.00    +0.000 OA
ATOM     21  H   UNL     1       2.231   4.931  16.640  0.00  0.00    +0.000 HD
ENDBRANCH   1  20
BRANCH   1  22
ATOM     22  O   UNL     1       1.983   2.541  18.654  0.00  0.00    +0.000 OA
BRANCH  22  23
ATOM     23  C   UNL     1       0.702   2.630  19.273  0.00  0.00    +0.000 C 
BRANCH  23  25
ATOM     24  C   UNL     1       1.482   2.954  21.652  0.00  0.00    +0.000 C 
ATOM     25  C   UNL     1       0.895   3.410  20.537  0.00  0.00    +0.000 C 
ENDBRANCH  23  25
ENDBRANCH  22  23
ENDBRANCH   1  22
TORSDOF 5
ENDMDL
MODEL 3
REMARK VINA RESULT:      -7.3      3.095      5.528
REMARK  Name = 
REMARK  6 active torsions:
REMARK  status: ('A' for Active; 'I' for Inactive)
REMARK    1  A    between atoms: C_2  and  C_3
REMARK    2  A    between atoms: C_3  and  O_4
REMARK    3  A    between atoms: O_4  and  C_5
REMARK    4  A    between atoms: C_5  and  O_6
REMARK    5  A    between atoms: C_8  and  C_9
REMARK    6  A    between atoms: C_16  and  C_17
REMARK                            x       y       z     vdW  Elec       q    Type
REMARK                         _______ _______ _______ _____ _____    ______ ____
ROOT
ATOM      1  C   UNL     1       2.720   7.667  17.973  0.00  0.00    +0.000 C 
ATOM      2  C   UNL     1       2.496   6.489  18.596  0.00  0.00    +0.000 C 
ATOM      3  C   UNL     1       1.911   6.319  19.986  0.00  0.00    +0.000 C 
ATOM      4  C   UNL     1       1.572   7.494  20.892  0.00  0.00    +0.000 C 
ATOM      5  N   UNL     1       1.616   5.180  20.534  0.00  0.00    +0.000 NA
ATOM      6  C   UNL     1       1.835   4.036  19.860  0.00  0.00    +0.000 A 
ATOM      7  N   UNL     1       1.554   2.799  20.209  0.00  0.00    +0.000 NA
ATOM      8  C   UNL     1       1.979   2.054  19.151  0.00  0.00    +0.000 A 
ATOM      9  N   UNL     1       2.493   2.748  18.131  0.00  0.00    +0.000 NA
ATOM     10  N   UNL     1       2.423   4.001  18.630  0.00  0.00    +0.000 N 
ATOM     11  C   UNL     1       2.879   5.179  17.904  0.00  0.00    +0.000 C 
ENDROOT
BRANCH  11  12
ATOM     12  C   UNL     1       4.379   5.074  17.634  0.00  0.00    +0.000 A 
ATOM     13  C   UNL     1       4.856   4.851  16.329  0.00  0.00    +0.000 A 
ATOM     14  C   UNL     1       6.228   4.861  16.071  0.00  0.00    +0.000 A 
ATOM     15 BR   UNL     1       6.849   4.631  14.299  0.00  0.00    +0.000 Br
ATOM     16  C   UNL     1       7.144   5.069  17.100  0.00  0.00    +0.000 A 
ATOM     17  C   UNL     1       6.683   5.263  18.401  0.00  0.00    +0.000 A 
ATOM     18  C   UNL     1       5.314   5.266  18.656  0.00  0.00    +0.000 A 
ATOM     19  F   UNL     1       4.899   5.496  19.909  0.00  0.00    +0.000 F 
ENDBRANCH  11  12
BRANCH   1  20
ATOM     20  O   UNL     1       3.244   7.664  16.696  0.00  0.00    +0.000 OA
ATOM     21  H   UNL     1       4.203   7.523  16.793  0.00  0.00    +0.000 HD
ENDBRANCH   1  20
BRANCH   1  22
ATOM     22  O   UNL     1       2.571   8.865  18.607  0.00  0.00    +0.000 OA
BRANCH  22  23
ATOM     23  C   UNL     1       1.921   9.937  17.929  0.00  0.00    +0.000 C 
BRANCH  23  25
ATOM     24  C   UNL     1      -0.380  10.288  18.905  0.00  0.00    +0.000 C 
ATOM     25  C   UNL     1       0.449   9.683  18.044  0.00  0.00    +0.000 C 
ENDBRANCH  23  25
ENDBRANCH  22  23
ENDBRANCH   1  22
TORSDOF 5
ENDMDL
MODEL 4
REMARK VINA RESULT:      -7.1      3.205      5.636
REMARK  Name = 
REMARK  6 active torsions:
REMARK  status: ('A' for Active; 'I' for Inactive)
REMARK    1  A    between atoms: C_2  and  C_3
REMARK    2  A    between atoms: C_3  and  O_4
REMARK    3  A    between atoms: O_4  and  C_5
REMARK    4  A    between atoms: C_5  and  O_6
REMARK    5  A    between atoms: C_8  and  C_9
REMARK    6  A    between atoms: C_16  and  C_17
REMARK                            x       y       z     vdW  Elec       q    Type
REMARK                         _______ _______ _______ _____ _____    ______ ____
ROOT
ATOM      1  C   UNL     1       2.871   7.513  17.887  0.00  0.00    +0.000 C 
ATOM      2  C   UNL     1       2.681   6.321  18.494  0.00  0.00    +0.000 C 
ATOM      3  C   UNL     1       2.071   6.114  19.868  0.00  0.00    +0.000 C 
ATOM      4  C   UNL     1       1.661   7.265  20.775  0.00  0.00    +0.000 C 
ATOM      5  N   UNL     1       1.810   4.959  20.399  0.00  0.00    +0.000 NA
ATOM      6  C   UNL     1       2.092   3.831  19.721  0.00  0.00    +0.000 A 
ATOM      7  N   UNL     1       1.855   2.580  20.053  0.00  0.00    +0.000 NA
ATOM      8  C   UNL     1       2.336   1.864  18.999  0.00  0.00    +0.000 A 
ATOM      9  N   UNL     1       2.845   2.588  17.998  0.00  0.00    +0.000 NA
ATOM     10  N   UNL     1       2.711   3.832  18.506  0.00  0.00    +0.000 N 
ATOM     11  C   UNL     1       3.135   5.034  17.800  0.00  0.00    +0.000 C 
ENDROOT
BRANCH  11  12
ATOM     12  C   UNL     1       4.644   4.994  17.566  0.00  0.00    +0.000 A 
ATOM     13  C   UNL     1       5.536   5.361  18.591  0.00  0.00    +0.000 A 
ATOM     14  C   UNL     1       6.913   5.224  18.408  0.00  0.00    +0.000 A 
ATOM     15 BR   UNL     1       8.093   5.654  19.821  0.00  0.00    +0.000 Br
ATOM     16  C   UNL     1       7.425   4.744  17.204  0.00  0.00    +0.000 A 
ATOM     17  C   UNL     1       6.552   4.403  16.173  0.00  0.00    +0.000 A 
ATOM     18  C   UNL     1       5.178   4.528  16.360  0.00  0.00    +0.000 A 
ATOM     19  F   UNL     1       4.361   4.156  15.366  0.00  0.00    +0.000 F 
ENDBRANCH  11  12
BRANCH   1  20
ATOM     20  O   UNL     1       3.424   7.544  16.622  0.00  0.00    +0.000 OA
ATOM     21  H   UNL     1       2.852   6.990  16.059  0.00  0.00    +0.000 HD
ENDBRANCH   1  20
BRANCH   1  22
ATOM     22  O   UNL     1       2.656   8.698  18.526  0.00  0.00    +0.000 OA
BRANCH  22  23
ATOM     23  C   UNL     1       2.032   9.769  17.822  0.00  0.00    +0.000 C 
BRANCH  23  25
ATOM     24  C   UNL     1      -0.076  10.201  19.142  0.00  0.00    +0.000 C 
ATOM     25  C   UNL     1       0.563   9.659  18.097  0.00  0.00    +0.000 C 
ENDBRANCH  23  25
ENDBRANCH  22  23
ENDBRANCH   1  22
TORSDOF 5
ENDMDL
MODEL 5
REMARK VINA RESULT:      -6.6      3.004      4.284
REMARK  Name = 
REMARK  6 active torsions:
REMARK  status: ('A' for Active; 'I' for Inactive)
REMARK    1  A    between atoms: C_2  and  C_3
REMARK    2  A    between atoms: C_3  and  O_4
REMARK    3  A    between atoms: O_4  and  C_5
REMARK    4  A    between atoms: C_5  and  O_6
REMARK    5  A    between atoms: C_8  and  C_9
REMARK    6  A    between atoms: C_16  and  C_17
REMARK                            x       y       z     vdW  Elec       q    Type
REMARK                         _______ _______ _______ _____ _____    ______ ____
ROOT
ATOM      1  C   UNL     1       3.575   6.095  17.936  0.00  0.00    +0.000 C 
ATOM      2  C   UNL     1       4.273   5.387  17.021  0.00  0.00    +0.000 C 
ATOM      3  C   UNL     1       4.021   3.939  16.642  0.00  0.00    +0.000 C 
ATOM      4  C   UNL     1       2.971   3.074  17.324  0.00  0.00    +0.000 C 
ATOM      5  N   UNL     1       4.639   3.301  15.696  0.00  0.00    +0.000 NA
ATOM      6  C   UNL     1       5.588   3.926  14.975  0.00  0.00    +0.000 A 
ATOM      7  N   UNL     1       6.280   3.481  13.948  0.00  0.00    +0.000 NA
ATOM      8  C   UNL     1       7.080   4.530  13.611  0.00  0.00    +0.000 A 
ATOM      9  N   UNL     1       6.920   5.633  14.348  0.00  0.00    +0.000 NA
ATOM     10  N   UNL     1       5.992   5.203  15.231  0.00  0.00    +0.000 N 
ATOM     11  C   UNL     1       5.455   6.036  16.298  0.00  0.00    +0.000 C 
ENDROOT
BRANCH  11  12
ATOM     12  C   UNL     1       6.576   6.444  17.254  0.00  0.00    +0.000 A 
ATOM     13  C   UNL     1       7.087   7.755  17.238  0.00  0.00    +0.000 A 
ATOM     14  C   UNL     1       8.036   8.151  18.182  0.00  0.00    +0.000 A 
ATOM     15 BR   UNL     1       8.658   9.936  18.191  0.00  0.00    +0.000 Br
ATOM     16  C   UNL     1       8.507   7.252  19.137  0.00  0.00    +0.000 A 
ATOM     17  C   UNL     1       8.028   5.943  19.144  0.00  0.00    +0.000 A 
ATOM     18  C   UNL     1       7.071   5.551  18.211  0.00  0.00    +0.000 A 
ATOM     19  F   UNL     1       6.599   4.300  18.267  0.00  0.00    +0.000 F 
ENDBRANCH  11  12
BRANCH   1  20
ATOM     20  O   UNL     1       3.911   7.415  18.164  0.00  0.00    +0.000 OA
ATOM     21  H   UNL     1       4.855   7.420  18.404  0.00  0.00    +0.000 HD
ENDBRANCH   1  20
BRANCH   1  22
ATOM     22  O   UNL     1       2.635   5.520  18.739  0.00  0.00    +0.000 OA
BRANCH  22  23
ATOM     23  C   UNL     1       2.666   5.772  20.142  0.00  0.00    +0.000 C 
BRANCH  23  25
ATOM     24  C   UNL     1       0.926   3.944  20.135  0.00  0.00    +0.000 C 
ATOM     25  C   UNL     1       1.573   4.945  20.746  0.00  0.00    +0.000 C 
ENDBRANCH  23  25
ENDBRANCH  22  23
ENDBRANCH   1  22
TORSDOF 5
ENDMDL
MODEL 6
REMARK VINA RESULT:      -6.5      2.593      4.782
REMARK  Name = 
REMARK  6 active torsions:
REMARK  status: ('A' for Active; 'I' for Inactive)
REMARK    1  A    between atoms: C_2  and  C_3
REMARK    2  A    between atoms: C_3  and  O_4
REMARK    3  A    between atoms: O_4  and  C_5
REMARK    4  A    between atoms: C_5  and  O_6
REMARK    5  A    between atoms: C_8  and  C_9
REMARK    6  A    between atoms: C_16  and  C_17
REMARK                            x       y       z     vdW  Elec       q    Type
REMARK                         _______ _______ _______ _____ _____    ______ ____
ROOT
ATOM      1  C   UNL     1       5.842   5.331  18.591  0.00  0.00    +0.000 C 
ATOM      2  C   UNL     1       4.773   4.590  18.228  0.00  0.00    +0.000 C 
ATOM      3  C   UNL     1       4.561   3.948  16.869  0.00  0.00    +0.000 C 
ATOM      4  C   UNL     1       5.522   4.134  15.705  0.00  0.00    +0.000 C 
ATOM      5  N   UNL     1       3.573   3.162  16.565  0.00  0.00    +0.000 NA
ATOM      6  C   UNL     1       2.638   2.874  17.488  0.00  0.00    +0.000 A 
ATOM      7  N   UNL     1       1.604   2.064  17.399  0.00  0.00    +0.000 NA
ATOM      8  C   UNL     1       1.014   2.149  18.624  0.00  0.00    +0.000 A 
ATOM      9  N   UNL     1       1.627   2.948  19.502  0.00  0.00    +0.000 NA
ATOM     10  N   UNL     1       2.633   3.424  18.736  0.00  0.00    +0.000 N 
ATOM     11  C   UNL     1       3.625   4.376  19.218  0.00  0.00    +0.000 C 
ENDROOT
BRANCH  11  12
ATOM     12  C   UNL     1       2.941   5.683  19.615  0.00  0.00    +0.000 A 
ATOM     13  C   UNL     1       2.861   6.753  18.704  0.00  0.00    +0.000 A 
ATOM     14  C   UNL     1       2.144   7.905  19.034  0.00  0.00    +0.000 A 
ATOM     15 BR   UNL     1       1.988   9.303  17.771  0.00  0.00    +0.000 Br
ATOM     16  C   UNL     1       1.518   8.022  20.274  0.00  0.00    +0.000 A 
ATOM     17  C   UNL     1       1.614   6.979  21.193  0.00  0.00    +0.000 A 
ATOM     18  C   UNL     1       2.318   5.825  20.859  0.00  0.00    +0.000 A 
ATOM     19  F   UNL     1       2.359   4.823  21.747  0.00  0.00    +0.000 F 
ENDBRANCH  11  12
BRANCH   1  20
ATOM     20  O   UNL     1       5.905   5.839  19.874  0.00  0.00    +0.000 OA
ATOM     21  H   UNL     1       6.715   5.473  20.274  0.00  0.00    +0.000 HD
ENDBRANCH   1  20
BRANCH   1  22
ATOM     22  O   UNL     1       6.804   5.707  17.701  0.00  0.00    +0.000 OA
BRANCH  22  23
ATOM     23  C   UNL     1       7.873   6.542  18.138  0.00  0.00    +0.000 C 
BRANCH  23  25
ATOM     24  C   UNL     1       8.124   9.046  17.945  0.00  0.00    +0.000 C 
ATOM     25  C   UNL     1       7.665   7.874  17.485  0.00  0.00    +0.000 C 
ENDBRANCH  23  25
ENDBRANCH  22  23
ENDBRANCH   1  22
TORSDOF 5
ENDMDL
MODEL 7
REMARK VINA RESULT:      -6.4      2.895      5.109
REMARK  Name = 
REMARK  6 active torsions:
REMARK  status: ('A' for Active; 'I' for Inactive)
REMARK    1  A    between atoms: C_2  and  C_3
REMARK    2  A    between atoms: C_3  and  O_4
REMARK    3  A    between atoms: O_4  and  C_5
REMARK    4  A    between atoms: C_5  and  O_6
REMARK    5  A    between atoms: C_8  and  C_9
REMARK    6  A    between atoms: C_16  and  C_17
REMARK                            x       y       z     vdW  Elec       q    Type
REMARK                         _______ _______ _______ _____ _____    ______ ____
ROOT
ATOM      1  C   UNL     1       1.708   7.787  20.294  0.00  0.00    +0.000 C 
ATOM      2  C   UNL     1       2.512   7.468  19.256  0.00  0.00    +0.000 C 
ATOM      3  C   UNL     1       2.646   8.255  17.965  0.00  0.00    +0.000 C 
ATOM      4  C   UNL     1       1.810   9.488  17.655  0.00  0.00    +0.000 C 
ATOM      5  N   UNL     1       3.490   7.987  17.016  0.00  0.00    +0.000 NA
ATOM      6  C   UNL     1       4.323   6.938  17.137  0.00  0.00    +0.000 A 
ATOM      7  N   UNL     1       5.280   6.537  16.327  0.00  0.00    +0.000 NA
ATOM      8  C   UNL     1       5.800   5.443  16.948  0.00  0.00    +0.000 A 
ATOM      9  N   UNL     1       5.248   5.135  18.125  0.00  0.00    +0.000 NA
ATOM     10  N   UNL     1       4.287   6.081  18.197  0.00  0.00    +0.000 N 
ATOM     11  C   UNL     1       3.357   6.193  19.313  0.00  0.00    +0.000 C 
ENDROOT
BRANCH  11  12
ATOM     12  C   UNL     1       2.505   4.928  19.410  0.00  0.00    +0.000 A 
ATOM     13  C   UNL     1       2.474   4.177  20.600  0.00  0.00    +0.000 A 
ATOM     14  C   UNL     1       1.615   3.083  20.718  0.00  0.00    +0.000 A 
ATOM     15 BR   UNL     1       1.535   2.128  22.348  0.00  0.00    +0.000 Br
ATOM     16  C   UNL     1       0.794   2.705  19.657  0.00  0.00    +0.000 A 
ATOM     17  C   UNL     1       0.837   3.426  18.465  0.00  0.00    +0.000 A 
ATOM     18  C   UNL     1       1.685   4.525  18.351  0.00  0.00    +0.000 A 
ATOM     19  F   UNL     1       1.675   5.223  17.208  0.00  0.00    +0.000 F 
ENDBRANCH  11  12
BRANCH   1  20
ATOM     20  O   UNL     1       1.705   6.981  21.415  0.00  0.00    +0.000 OA
ATOM     21  H   UNL     1       1.026   6.299  21.259  0.00  0.00    +0.000 HD
ENDBRANCH   1  20
BRANCH   1  22
ATOM     22  O   UNL     1       0.802   8.804  20.227  0.00  0.00    +0.000 OA
BRANCH  22  23
ATOM     23  C   UNL     1       0.903   9.891  21.144  0.00  0.00    +0.000 C 
BRANCH  23  25
ATOM     24  C   UNL     1      -0.193   9.541  23.390  0.00  0.00    +0.000 C 
ATOM     25  C   UNL     1      -0.266   9.773  22.073  0.00  0.00    +0.000 C 
ENDBRANCH  23  25
ENDBRANCH  22  23
ENDBRANCH   1  22
TORSDOF 5
ENDMDL
MODEL 8
REMARK VINA RESULT:      -6.3      2.771      4.884
REMARK  Name = 
REMARK  6 active torsions:
REMARK  status: ('A' for Active; 'I' for Inactive)
REMARK    1  A    between atoms: C_2  and  C_3
REMARK    2  A    between atoms: C_3  and  O_4
REMARK    3  A    between atoms: O_4  and  C_5
REMARK    4  A    between atoms: C_5  and  O_6
REMARK    5  A    between atoms: C_8  and  C_9
REMARK    6  A    between atoms: C_16  and  C_17
REMARK                            x       y       z     vdW  Elec       q    Type
REMARK                         _______ _______ _______ _____ _____    ______ ____
ROOT
ATOM      1  C   UNL     1       5.531   5.310  18.862  0.00  0.00    +0.000 C 
ATOM      2  C   UNL     1       4.438   4.571  18.572  0.00  0.00    +0.000 C 
ATOM      3  C   UNL     1       4.314   3.585  17.425  0.00  0.00    +0.000 C 
ATOM      4  C   UNL     1       5.415   3.367  16.397  0.00  0.00    +0.000 C 
ATOM      5  N   UNL     1       3.291   2.815  17.215  0.00  0.00    +0.000 NA
ATOM      6  C   UNL     1       2.233   2.864  18.044  0.00  0.00    +0.000 A 
ATOM      7  N   UNL     1       1.137   2.135  18.040  0.00  0.00    +0.000 NA
ATOM      8  C   UNL     1       0.426   2.605  19.102  0.00  0.00    +0.000 A 
ATOM      9  N   UNL     1       1.016   3.577  19.803  0.00  0.00    +0.000 NA
ATOM     10  N   UNL     1       2.145   3.745  19.081  0.00  0.00    +0.000 N 
ATOM     11  C   UNL     1       3.170   4.726  19.416  0.00  0.00    +0.000 C 
ENDROOT
BRANCH  11  12
ATOM     12  C   UNL     1       2.584   6.135  19.343  0.00  0.00    +0.000 A 
ATOM     13  C   UNL     1       2.081   6.760  20.499  0.00  0.00    +0.000 A 
ATOM     14  C   UNL     1       1.644   8.085  20.449  0.00  0.00    +0.000 A 
ATOM     15 BR   UNL     1       1.038   8.931  22.027  0.00  0.00    +0.000 Br
ATOM     16  C   UNL     1       1.679   8.800  19.253  0.00  0.00    +0.000 A 
ATOM     17  C   UNL     1       2.150   8.182  18.096  0.00  0.00    +0.000 A 
ATOM     18  C   UNL     1       2.598   6.864  18.149  0.00  0.00    +0.000 A 
ATOM     19  F   UNL     1       3.083   6.309  17.031  0.00  0.00    +0.000 F 
ENDBRANCH  11  12
BRANCH   1  20
ATOM     20  O   UNL     1       5.501   6.156  19.953  0.00  0.00    +0.000 OA
ATOM     21  H   UNL     1       4.652   5.993  20.403  0.00  0.00    +0.000 HD
ENDBRANCH   1  20
BRANCH   1  22
ATOM     22  O   UNL     1       6.620   5.351  18.043  0.00  0.00    +0.000 OA
BRANCH  22  23
ATOM     23  C   UNL     1       7.711   6.207  18.374  0.00  0.00    +0.000 C 
BRANCH  23  25
ATOM     24  C   UNL     1       8.018   8.649  17.817  0.00  0.00    +0.000 C 
ATOM     25  C   UNL     1       7.574   7.423  17.511  0.00  0.00    +0.000 C 
ENDBRANCH  23  25
ENDBRANCH  22  23
ENDBRANCH   1  22
TORSDOF 5
ENDMDL
MODEL 9
REMARK VINA RESULT:      -6.2     10.348     13.076
REMARK  Name = 
REMARK  6 active torsions:
REMARK  status: ('A' for Active; 'I' for Inactive)
REMARK    1  A    between atoms: C_2  and  C_3
REMARK    2  A    between atoms: C_3  and  O_4
REMARK    3  A    between atoms: O_4  and  C_5
REMARK    4  A    between atoms: C_5  and  O_6
REMARK    5  A    between atoms: C_8  and  C_9
REMARK    6  A    between atoms: C_16  and  C_17
REMARK                            x       y       z     vdW  Elec       q    Type
REMARK                         _______ _______ _______ _____ _____    ______ ____
ROOT
ATOM      1  C   UNL     1      -6.744  14.150  18.018  0.00  0.00    +0.000 C 
ATOM      2  C   UNL     1      -6.945  13.152  18.906  0.00  0.00    +0.000 C 
ATOM      3  C   UNL     1      -7.432  13.323  20.334  0.00  0.00    +0.000 C 
ATOM      4  C   UNL     1      -7.684  14.684  20.967  0.00  0.00    +0.000 C 
ATOM      5  N   UNL     1      -7.708  12.349  21.146  0.00  0.00    +0.000 NA
ATOM      6  C   UNL     1      -7.559  11.075  20.739  0.00  0.00    +0.000 A 
ATOM      7  N   UNL     1      -7.837   9.959  21.379  0.00  0.00    +0.000 NA
ATOM      8  C   UNL     1      -7.503   8.980  20.494  0.00  0.00    +0.000 A 
ATOM      9  N   UNL     1      -7.050   9.406  19.312  0.00  0.00    +0.000 NA
ATOM     10  N   UNL     1      -7.061  10.742  19.514  0.00  0.00    +0.000 N 
ATOM     11  C   UNL     1      -6.636  11.707  18.509  0.00  0.00    +0.000 C 
ENDROOT
BRANCH  11  12
ATOM     12  C   UNL     1      -5.161  11.493  18.173  0.00  0.00    +0.000 A 
ATOM     13  C   UNL     1      -4.783  10.964  16.925  0.00  0.00    +0.000 A 
ATOM     14  C   UNL     1      -3.432  10.868  16.583  0.00  0.00    +0.000 A 
ATOM     15 BR   UNL     1      -2.944  10.222  14.874  0.00  0.00    +0.000 Br
ATOM     16  C   UNL     1      -2.442  11.272  17.476  0.00  0.00    +0.000 A 
ATOM     17  C   UNL     1      -2.805  11.771  18.725  0.00  0.00    +0.000 A 
ATOM     18  C   UNL     1      -4.153  11.879  19.062  0.00  0.00    +0.000 A 
ATOM     19  F   UNL     1      -4.473  12.400  20.253  0.00  0.00    +0.000 F 
ENDBRANCH  11  12
BRANCH   1  20
ATOM     20  O   UNL     1      -6.313  13.839  16.743  0.00  0.00    +0.000 OA
ATOM     21  H   UNL     1      -6.397  14.656  16.219  0.00  0.00    +0.000 HD
ENDBRANCH   1  20
BRANCH   1  22
ATOM     22  O   UNL     1      -6.826  15.465  18.368  0.00  0.00    +0.000 OA
BRANCH  22  23
ATOM     23  C   UNL     1      -7.745  16.314  17.685  0.00  0.00    +0.000 C 
BRANCH  23  25
ATOM     24  C   UNL     1      -6.375  18.407  17.347  0.00  0.00    +0.000 C 
ATOM     25  C   UNL     1      -7.330  17.721  17.989  0.00  0.00    +0.000 C 
ENDBRANCH  23  25
ENDBRANCH  22  23
ENDBRANCH   1  22
TORSDOF 5
ENDMDL
