MODEL 1
REMARK VINA RESULT:      -6.7      0.000      0.000
REMARK  Name = 
REMARK  6 active torsions:
REMARK  status: ('A' for Active; 'I' for Inactive)
REMARK    1  A    between atoms: C_1  and  C_2
REMARK    2  A    between atoms: C_2  and  O_3
REMARK    3  A    between atoms: O_3  and  C_4
REMARK    4  A    between atoms: C_4  and  C_6
REMARK    5  A    between atoms: C_7  and  N_8
REMARK    6  A    between atoms: N_20  and  O_21
REMARK                            x       y       z     vdW  Elec       q    Type
REMARK                         _______ _______ _______ _____ _____    ______ ____
ROOT
ATOM      1  N   UNL     1       1.805   7.241  18.930  0.00  0.00    +0.000 N 
ATOM      2  C   UNL     1       1.881   7.094  20.329  0.00  0.00    +0.000 C 
ATOM      3  O   UNL     1       2.313   6.089  20.904  0.00  0.00    +0.000 OA
ATOM      4  N   UNL     1       1.522   8.176  21.094  0.00  0.00    +0.000 N 
ATOM      5  C   UNL     1       1.116   9.396  20.566  0.00  0.00    +0.000 A 
ATOM      6  C   UNL     1       0.882  10.483  21.401  0.00  0.00    +0.000 A 
ATOM      7  C   UNL     1       0.402  11.676  20.856  0.00  0.00    +0.000 A 
ATOM      8 CL   UNL     1       0.165  13.010  21.927  0.00  0.00    +0.000 Cl
ATOM      9  C   UNL     1       0.137  11.767  19.483  0.00  0.00    +0.000 A 
ATOM     10 CL   UNL     1      -0.520  13.183  18.753  0.00  0.00    +0.000 Cl
ATOM     11  C   UNL     1       0.402  10.672  18.656  0.00  0.00    +0.000 A 
ATOM     12  C   UNL     1       0.925   9.485  19.186  0.00  0.00    +0.000 A 
ATOM     13  N   UNL     1       1.274   8.410  18.342  0.00  0.00    +0.000 N 
ATOM     14  H   UNL     1       1.651   8.050  22.089  0.00  0.00    +0.000 HD
ENDROOT
BRANCH   1  16
ATOM     15  C   UNL     1       2.994   5.323  17.819  0.00  0.00    +0.000 A 
ATOM     16  C   UNL     1       2.858   6.628  18.248  0.00  0.00    +0.000 A 
ATOM     17  S   UNL     1       4.258   7.559  18.029  0.00  0.00    +0.000 S 
ATOM     18  C   UNL     1       5.128   6.228  17.405  0.00  0.00    +0.000 A 
ATOM     19  C   UNL     1       4.329   5.095  17.274  0.00  0.00    +0.000 A 
ATOM     20  C   UNL     1       4.791   3.807  16.634  0.00  0.00    +0.000 C 
ATOM     21  C   UNL     1       5.659   4.045  15.396  0.00  0.00    +0.000 C 
ATOM     22  C   UNL     1       7.129   4.346  15.700  0.00  0.00    +0.000 C 
ATOM     23  C   UNL     1       7.401   5.182  16.951  0.00  0.00    +0.000 C 
ATOM     24  C   UNL     1       6.568   6.456  17.035  0.00  0.00    +0.000 C 
BRANCH  15  25
ATOM     25  C   UNL     1       1.885   4.378  17.943  0.00  0.00    +0.000 C 
ATOM     26  O   UNL     1       0.874   4.432  17.249  0.00  0.00    +0.000 OA
BRANCH  25  27
ATOM     27  O   UNL     1       2.063   3.492  18.965  0.00  0.00    +0.000 OA
BRANCH  27  29
ATOM     28  C   UNL     1       1.281   2.825  21.128  0.00  0.00    +0.000 C 
ATOM     29  C   UNL     1       0.878   3.184  19.710  0.00  0.00    +0.000 C 
ENDBRANCH  27  29
ENDBRANCH  25  27
ENDBRANCH  15  25
ENDBRANCH   1  16
BRANCH  13  30
ATOM     30  O   UNL     1       0.690   8.299  17.084  0.00  0.00    +0.000 OA
ATOM     31  H   UNL     1       0.658   9.226  16.785  0.00  0.00    +0.000 HD
ENDBRANCH  13  30
TORSDOF 5
ENDMDL
MODEL 2
REMARK VINA RESULT:      -6.6      3.750      5.803
REMARK  Name = 
REMARK  6 active torsions:
REMARK  status: ('A' for Active; 'I' for Inactive)
REMARK    1  A    between atoms: C_1  and  C_2
REMARK    2  A    between atoms: C_2  and  O_3
REMARK    3  A    between atoms: O_3  and  C_4
REMARK    4  A    between atoms: C_4  and  C_6
REMARK    5  A    between atoms: C_7  and  N_8
REMARK    6  A    between atoms: N_20  and  O_21
REMARK                            x       y       z     vdW  Elec       q    Type
REMARK                         _______ _______ _______ _____ _____    ______ ____
ROOT
ATOM      1  N   UNL     1       0.468  11.535  18.333  0.00  0.00    +0.000 N 
ATOM      2  C   UNL     1      -0.901  11.798  18.536  0.00  0.00    +0.000 C 
ATOM      3  O   UNL     1      -1.799  10.955  18.432  0.00  0.00    +0.000 OA
ATOM      4  N   UNL     1      -1.242  13.061  18.954  0.00  0.00    +0.000 N 
ATOM      5  C   UNL     1      -0.317  14.068  19.205  0.00  0.00    +0.000 A 
ATOM      6  C   UNL     1      -0.727  15.284  19.739  0.00  0.00    +0.000 A 
ATOM      7  C   UNL     1       0.208  16.308  19.911  0.00  0.00    +0.000 A 
ATOM      8 CL   UNL     1      -0.341  17.786  20.616  0.00  0.00    +0.000 Cl
ATOM      9  C   UNL     1       1.542  16.116  19.526  0.00  0.00    +0.000 A 
ATOM     10 CL   UNL     1       2.732  17.356  19.645  0.00  0.00    +0.000 Cl
ATOM     11  C   UNL     1       1.939  14.879  19.014  0.00  0.00    +0.000 A 
ATOM     12  C   UNL     1       1.019  13.831  18.878  0.00  0.00    +0.000 A 
ATOM     13  N   UNL     1       1.437  12.556  18.443  0.00  0.00    +0.000 N 
ATOM     14  H   UNL     1      -2.225  13.190  19.149  0.00  0.00    +0.000 HD
ENDROOT
BRANCH   1  16
ATOM     15  C   UNL     1       0.962   9.746  20.031  0.00  0.00    +0.000 A 
ATOM     16  C   UNL     1       0.858  10.263  18.755  0.00  0.00    +0.000 A 
ATOM     17  S   UNL     1       1.441   9.215  17.555  0.00  0.00    +0.000 S 
ATOM     18  C   UNL     1       1.915   8.048  18.708  0.00  0.00    +0.000 A 
ATOM     19  C   UNL     1       1.548   8.410  20.001  0.00  0.00    +0.000 A 
ATOM     20  C   UNL     1       1.724   7.517  21.208  0.00  0.00    +0.000 C 
ATOM     21  C   UNL     1       1.402   6.052  20.908  0.00  0.00    +0.000 C 
ATOM     22  C   UNL     1       2.543   5.275  20.246  0.00  0.00    +0.000 C 
ATOM     23  C   UNL     1       3.397   6.052  19.244  0.00  0.00    +0.000 C 
ATOM     24  C   UNL     1       2.587   6.803  18.195  0.00  0.00    +0.000 C 
BRANCH  15  25
ATOM     25  C   UNL     1       0.516  10.522  21.187  0.00  0.00    +0.000 C 
ATOM     26  O   UNL     1       1.161  11.449  21.667  0.00  0.00    +0.000 OA
BRANCH  25  27
ATOM     27  O   UNL     1      -0.647  10.046  21.719  0.00  0.00    +0.000 OA
BRANCH  27  29
ATOM     28  C   UNL     1      -1.877  11.603  23.061  0.00  0.00    +0.000 C 
ATOM     29  C   UNL     1      -0.898  10.442  23.073  0.00  0.00    +0.000 C 
ENDBRANCH  27  29
ENDBRANCH  25  27
ENDBRANCH  15  25
ENDBRANCH   1  16
BRANCH  13  30
ATOM     30  O   UNL     1       2.608  12.425  17.704  0.00  0.00    +0.000 OA
ATOM     31  H   UNL     1       3.211  11.997  18.338  0.00  0.00    +0.000 HD
ENDBRANCH  13  30
TORSDOF 5
ENDMDL
MODEL 3
REMARK VINA RESULT:      -6.6      5.900      7.906
REMARK  Name = 
REMARK  6 active torsions:
REMARK  status: ('A' for Active; 'I' for Inactive)
REMARK    1  A    between atoms: C_1  and  C_2
REMARK    2  A    between atoms: C_2  and  O_3
REMARK    3  A    between atoms: O_3  and  C_4
REMARK    4  A    between atoms: C_4  and  C_6
REMARK    5  A    between atoms: C_7  and  N_8
REMARK    6  A    between atoms: N_20  and  O_21
REMARK                            x       y       z     vdW  Elec       q    Type
REMARK                         _______ _______ _______ _____ _____    ______ ____
ROOT
ATOM      1  N   UNL     1      -1.774  12.212  21.167  0.00  0.00    +0.000 N 
ATOM      2  C   UNL     1      -1.681  11.899  22.537  0.00  0.00    +0.000 C 
ATOM      3  O   UNL     1      -0.647  11.525  23.101  0.00  0.00    +0.000 OA
ATOM      4  N   UNL     1      -2.802  12.101  23.304  0.00  0.00    +0.000 N 
ATOM      5  C   UNL     1      -3.995  12.613  22.808  0.00  0.00    +0.000 A 
ATOM      6  C   UNL     1      -5.050  12.903  23.669  0.00  0.00    +0.000 A 
ATOM      7  C   UNL     1      -6.265  13.344  23.140  0.00  0.00    +0.000 A 
ATOM      8 CL   UNL     1      -7.531  13.729  24.250  0.00  0.00    +0.000 Cl
ATOM      9  C   UNL     1      -6.426  13.471  21.753  0.00  0.00    +0.000 A 
ATOM     10 CL   UNL     1      -7.915  13.943  21.028  0.00  0.00    +0.000 Cl
ATOM     11  C   UNL     1      -5.347  13.200  20.907  0.00  0.00    +0.000 A 
ATOM     12  C   UNL     1      -4.111  12.799  21.430  0.00  0.00    +0.000 A 
ATOM     13  N   UNL     1      -2.998  12.608  20.585  0.00  0.00    +0.000 N 
ATOM     14  H   UNL     1      -2.675  11.925  24.291  0.00  0.00    +0.000 HD
ENDROOT
BRANCH   1  16
ATOM     15  C   UNL     1       0.325  12.308  19.784  0.00  0.00    +0.000 A 
ATOM     16  C   UNL     1      -0.622  12.810  20.654  0.00  0.00    +0.000 A 
ATOM     17  S   UNL     1      -0.213  14.329  21.291  0.00  0.00    +0.000 S 
ATOM     18  C   UNL     1       1.285  14.346  20.469  0.00  0.00    +0.000 A 
ATOM     19  C   UNL     1       1.438  13.241  19.637  0.00  0.00    +0.000 A 
ATOM     20  C   UNL     1       2.604  13.052  18.694  0.00  0.00    +0.000 C 
ATOM     21  C   UNL     1       3.020  14.353  18.005  0.00  0.00    +0.000 C 
ATOM     22  C   UNL     1       3.929  15.253  18.847  0.00  0.00    +0.000 C 
ATOM     23  C   UNL     1       3.646  15.283  20.349  0.00  0.00    +0.000 C 
ATOM     24  C   UNL     1       2.183  15.532  20.696  0.00  0.00    +0.000 C 
BRANCH  15  25
ATOM     25  C   UNL     1       0.138  11.004  19.151  0.00  0.00    +0.000 C 
ATOM     26  O   UNL     1      -0.670  10.803  18.248  0.00  0.00    +0.000 OA
BRANCH  25  27
ATOM     27  O   UNL     1       0.893  10.026  19.731  0.00  0.00    +0.000 OA
BRANCH  27  29
ATOM     28  C   UNL     1       1.214   8.618  21.642  0.00  0.00    +0.000 C 
ATOM     29  C   UNL     1       0.197   9.212  20.683  0.00  0.00    +0.000 C 
ENDBRANCH  27  29
ENDBRANCH  25  27
ENDBRANCH  15  25
ENDBRANCH   1  16
BRANCH  13  30
ATOM     30  O   UNL     1      -3.191  12.343  19.232  0.00  0.00    +0.000 OA
ATOM     31  H   UNL     1      -4.155  12.209  19.180  0.00  0.00    +0.000 HD
ENDBRANCH  13  30
TORSDOF 5
ENDMDL
MODEL 4
REMARK VINA RESULT:      -6.6      6.504      8.146
REMARK  Name = 
REMARK  6 active torsions:
REMARK  status: ('A' for Active; 'I' for Inactive)
REMARK    1  A    between atoms: C_1  and  C_2
REMARK    2  A    between atoms: C_2  and  O_3
REMARK    3  A    between atoms: O_3  and  C_4
REMARK    4  A    between atoms: C_4  and  C_6
REMARK    5  A    between atoms: C_7  and  N_8
REMARK    6  A    between atoms: N_20  and  O_21
REMARK                            x       y       z     vdW  Elec       q    Type
REMARK                         _______ _______ _______ _____ _____    ______ ____
ROOT
ATOM      1  N   UNL     1      -1.761  12.287  21.203  0.00  0.00    +0.000 N 
ATOM      2  C   UNL     1      -1.628  11.927  22.559  0.00  0.00    +0.000 C 
ATOM      3  O   UNL     1      -0.580  11.527  23.077  0.00  0.00    +0.000 OA
ATOM      4  N   UNL     1      -2.723  12.112  23.367  0.00  0.00    +0.000 N 
ATOM      5  C   UNL     1      -3.927  12.649  22.926  0.00  0.00    +0.000 A 
ATOM      6  C   UNL     1      -4.951  12.916  23.828  0.00  0.00    +0.000 A 
ATOM      7  C   UNL     1      -6.179  13.384  23.353  0.00  0.00    +0.000 A 
ATOM      8 CL   UNL     1      -7.406  13.740  24.514  0.00  0.00    +0.000 Cl
ATOM      9  C   UNL     1      -6.382  13.558  21.977  0.00  0.00    +0.000 A 
ATOM     10 CL   UNL     1      -7.889  14.065  21.315  0.00  0.00    +0.000 Cl
ATOM     11  C   UNL     1      -5.332  13.308  21.089  0.00  0.00    +0.000 A 
ATOM     12  C   UNL     1      -4.084  12.881  21.559  0.00  0.00    +0.000 A 
ATOM     13  N   UNL     1      -2.999  12.711  20.673  0.00  0.00    +0.000 N 
ATOM     14  H   UNL     1      -2.567  11.901  24.343  0.00  0.00    +0.000 HD
ENDROOT
BRANCH   1  16
ATOM     15  C   UNL     1       0.298  12.412  19.763  0.00  0.00    +0.000 A 
ATOM     16  C   UNL     1      -0.620  12.894  20.675  0.00  0.00    +0.000 A 
ATOM     17  S   UNL     1      -0.184  14.391  21.343  0.00  0.00    +0.000 S 
ATOM     18  C   UNL     1       1.289  14.424  20.479  0.00  0.00    +0.000 A 
ATOM     19  C   UNL     1       1.412  13.343  19.610  0.00  0.00    +0.000 A 
ATOM     20  C   UNL     1       2.548  13.176  18.629  0.00  0.00    +0.000 C 
ATOM     21  C   UNL     1       2.952  14.495  17.967  0.00  0.00    +0.000 C 
ATOM     22  C   UNL     1       3.891  15.365  18.807  0.00  0.00    +0.000 C 
ATOM     23  C   UNL     1       3.652  15.352  20.317  0.00  0.00    +0.000 C 
ATOM     24  C   UNL     1       2.201  15.598  20.714  0.00  0.00    +0.000 C 
BRANCH  15  25
ATOM     25  C   UNL     1       0.084  11.128  19.097  0.00  0.00    +0.000 C 
ATOM     26  O   UNL     1       0.773  10.136  19.311  0.00  0.00    +0.000 OA
BRANCH  25  27
ATOM     27  O   UNL     1      -0.905  11.184  18.158  0.00  0.00    +0.000 OA
BRANCH  27  29
ATOM     28  C   UNL     1      -2.549  10.134  16.769  0.00  0.00    +0.000 C 
ATOM     29  C   UNL     1      -1.360   9.910  17.686  0.00  0.00    +0.000 C 
ENDBRANCH  27  29
ENDBRANCH  25  27
ENDBRANCH  15  25
ENDBRANCH   1  16
BRANCH  13  30
ATOM     30  O   UNL     1      -3.237  12.494  19.319  0.00  0.00    +0.000 OA
ATOM     31  H   UNL     1      -4.006  13.066  19.146  0.00  0.00    +0.000 HD
ENDBRANCH  13  30
TORSDOF 5
ENDMDL
MODEL 5
REMARK VINA RESULT:      -6.4      4.144      7.422
REMARK  Name = 
REMARK  6 active torsions:
REMARK  status: ('A' for Active; 'I' for Inactive)
REMARK    1  A    between atoms: C_1  and  C_2
REMARK    2  A    between atoms: C_2  and  O_3
REMARK    3  A    between atoms: O_3  and  C_4
REMARK    4  A    between atoms: C_4  and  C_6
REMARK    5  A    between atoms: C_7  and  N_8
REMARK    6  A    between atoms: N_20  and  O_21
REMARK                            x       y       z     vdW  Elec       q    Type
REMARK                         _______ _______ _______ _____ _____    ______ ____
ROOT
ATOM      1  N   UNL     1       4.294   5.363  17.744  0.00  0.00    +0.000 N 
ATOM      2  C   UNL     1       3.549   4.309  17.179  0.00  0.00    +0.000 C 
ATOM      3  O   UNL     1       2.499   3.862  17.653  0.00  0.00    +0.000 OA
ATOM      4  N   UNL     1       3.986   3.805  15.979  0.00  0.00    +0.000 N 
ATOM      5  C   UNL     1       5.095   4.289  15.295  0.00  0.00    +0.000 A 
ATOM      6  C   UNL     1       5.408   3.807  14.028  0.00  0.00    +0.000 A 
ATOM      7  C   UNL     1       6.569   4.253  13.392  0.00  0.00    +0.000 A 
ATOM      8 CL   UNL     1       6.893   3.657  11.804  0.00  0.00    +0.000 Cl
ATOM      9  C   UNL     1       7.422   5.160  14.037  0.00  0.00    +0.000 A 
ATOM     10 CL   UNL     1       8.903   5.700  13.342  0.00  0.00    +0.000 Cl
ATOM     11  C   UNL     1       7.078   5.651  15.298  0.00  0.00    +0.000 A 
ATOM     12  C   UNL     1       5.893   5.244  15.927  0.00  0.00    +0.000 A 
ATOM     13  N   UNL     1       5.502   5.804  17.161  0.00  0.00    +0.000 N 
ATOM     14  H   UNL     1       3.390   3.094  15.578  0.00  0.00    +0.000 HD
ENDROOT
BRANCH   1  16
ATOM     15  C   UNL     1       2.818   6.315  19.545  0.00  0.00    +0.000 A 
ATOM     16  C   UNL     1       3.503   6.343  18.346  0.00  0.00    +0.000 A 
ATOM     17  S   UNL     1       3.193   7.734  17.426  0.00  0.00    +0.000 S 
ATOM     18  C   UNL     1       2.076   8.327  18.574  0.00  0.00    +0.000 A 
ATOM     19  C   UNL     1       2.005   7.516  19.703  0.00  0.00    +0.000 A 
ATOM     20  C   UNL     1       1.198   7.856  20.935  0.00  0.00    +0.000 C 
ATOM     21  C   UNL     1       1.275   9.340  21.297  0.00  0.00    +0.000 C 
ATOM     22  C   UNL     1       0.321  10.237  20.503  0.00  0.00    +0.000 C 
ATOM     23  C   UNL     1       0.098   9.856  19.039  0.00  0.00    +0.000 C 
ATOM     24  C   UNL     1       1.386   9.627  18.258  0.00  0.00    +0.000 C 
BRANCH  15  25
ATOM     25  C   UNL     1       2.961   5.182  20.459  0.00  0.00    +0.000 C 
ATOM     26  O   UNL     1       4.000   4.539  20.577  0.00  0.00    +0.000 OA
BRANCH  25  27
ATOM     27  O   UNL     1       1.794   4.871  21.094  0.00  0.00    +0.000 OA
BRANCH  27  29
ATOM     28  C   UNL     1       1.471   2.560  21.635  0.00  0.00    +0.000 C 
ATOM     29  C   UNL     1       1.164   3.666  20.641  0.00  0.00    +0.000 C 
ENDBRANCH  27  29
ENDBRANCH  25  27
ENDBRANCH  15  25
ENDBRANCH   1  16
BRANCH  13  30
ATOM     30  O   UNL     1       6.456   6.380  17.994  0.00  0.00    +0.000 OA
ATOM     31  H   UNL     1       6.755   7.147  17.473  0.00  0.00    +0.000 HD
ENDBRANCH  13  30
TORSDOF 5
ENDMDL
MODEL 6
REMARK VINA RESULT:      -6.3      7.457      9.204
REMARK  Name = 
REMARK  6 active torsions:
REMARK  status: ('A' for Active; 'I' for Inactive)
REMARK    1  A    between atoms: C_1  and  C_2
REMARK    2  A    between atoms: C_2  and  O_3
REMARK    3  A    between atoms: O_3  and  C_4
REMARK    4  A    between atoms: C_4  and  C_6
REMARK    5  A    between atoms: C_7  and  N_8
REMARK    6  A    between atoms: N_20  and  O_21
REMARK                            x       y       z     vdW  Elec       q    Type
REMARK                         _______ _______ _______ _____ _____    ______ ____
ROOT
ATOM      1  N   UNL     1      -4.048  13.894  21.537  0.00  0.00    +0.000 N 
ATOM      2  C   UNL     1      -4.407  13.224  22.724  0.00  0.00    +0.000 C 
ATOM      3  O   UNL     1      -5.080  12.189  22.766  0.00  0.00    +0.000 OA
ATOM      4  N   UNL     1      -3.902  13.719  23.901  0.00  0.00    +0.000 N 
ATOM      5  C   UNL     1      -3.051  14.816  23.976  0.00  0.00    +0.000 A 
ATOM      6  C   UNL     1      -2.486  15.187  25.192  0.00  0.00    +0.000 A 
ATOM      7  C   UNL     1      -1.695  16.337  25.258  0.00  0.00    +0.000 A 
ATOM      8 CL   UNL     1      -0.982  16.734  26.780  0.00  0.00    +0.000 Cl
ATOM      9  C   UNL     1      -1.495  17.121  24.113  0.00  0.00    +0.000 A 
ATOM     10 CL   UNL     1      -0.590  18.587  24.136  0.00  0.00    +0.000 Cl
ATOM     11  C   UNL     1      -2.050  16.718  22.897  0.00  0.00    +0.000 A 
ATOM     12  C   UNL     1      -2.808  15.543  22.810  0.00  0.00    +0.000 A 
ATOM     13  N   UNL     1      -3.298  15.090  21.567  0.00  0.00    +0.000 N 
ATOM     14  H   UNL     1      -4.130  13.174  24.720  0.00  0.00    +0.000 HD
ENDROOT
BRANCH   1  16
ATOM     15  C   UNL     1      -2.621  12.449  20.053  0.00  0.00    +0.000 A 
ATOM     16  C   UNL     1      -3.802  13.034  20.466  0.00  0.00    +0.000 A 
ATOM     17  S   UNL     1      -5.095  12.765  19.402  0.00  0.00    +0.000 S 
ATOM     18  C   UNL     1      -4.105  11.901  18.309  0.00  0.00    +0.000 A 
ATOM     19  C   UNL     1      -2.811  11.736  18.794  0.00  0.00    +0.000 A 
ATOM     20  C   UNL     1      -1.752  10.907  18.104  0.00  0.00    +0.000 C 
ATOM     21  C   UNL     1      -2.313   9.614  17.509  0.00  0.00    +0.000 C 
ATOM     22  C   UNL     1      -2.982   9.783  16.142  0.00  0.00    +0.000 C 
ATOM     23  C   UNL     1      -3.761  11.081  15.927  0.00  0.00    +0.000 C 
ATOM     24  C   UNL     1      -4.747  11.400  17.044  0.00  0.00    +0.000 C 
BRANCH  15  25
ATOM     25  C   UNL     1      -1.402  12.591  20.848  0.00  0.00    +0.000 C 
ATOM     26  O   UNL     1      -0.484  13.347  20.544  0.00  0.00    +0.000 OA
BRANCH  25  27
ATOM     27  O   UNL     1      -1.365  11.731  21.907  0.00  0.00    +0.000 OA
BRANCH  27  29
ATOM     28  C   UNL     1      -0.414   9.878  23.090  0.00  0.00    +0.000 C 
ATOM     29  C   UNL     1      -0.340  10.731  21.837  0.00  0.00    +0.000 C 
ENDBRANCH  27  29
ENDBRANCH  25  27
ENDBRANCH  15  25
ENDBRANCH   1  16
BRANCH  13  30
ATOM     30  O   UNL     1      -3.462  15.988  20.517  0.00  0.00    +0.000 OA
ATOM     31  H   UNL     1      -4.148  15.557  19.977  0.00  0.00    +0.000 HD
ENDBRANCH  13  30
TORSDOF 5
ENDMDL
MODEL 7
REMARK VINA RESULT:      -6.3      3.006      4.823
REMARK  Name = 
REMARK  6 active torsions:
REMARK  status: ('A' for Active; 'I' for Inactive)
REMARK    1  A    between atoms: C_1  and  C_2
REMARK    2  A    between atoms: C_2  and  O_3
REMARK    3  A    between atoms: O_3  and  C_4
REMARK    4  A    between atoms: C_4  and  C_6
REMARK    5  A    between atoms: C_7  and  N_8
REMARK    6  A    between atoms: N_20  and  O_21
REMARK                            x       y       z     vdW  Elec       q    Type
REMARK                         _______ _______ _______ _____ _____    ______ ____
ROOT
ATOM      1  N   UNL     1       0.365  10.664  18.907  0.00  0.00    +0.000 N 
ATOM      2  C   UNL     1      -0.996  10.572  18.555  0.00  0.00    +0.000 C 
ATOM      3  O   UNL     1      -1.463   9.731  17.779  0.00  0.00    +0.000 OA
ATOM      4  N   UNL     1      -1.866  11.429  19.183  0.00  0.00    +0.000 N 
ATOM      5  C   UNL     1      -1.479  12.351  20.149  0.00  0.00    +0.000 A 
ATOM      6  C   UNL     1      -2.433  13.103  20.826  0.00  0.00    +0.000 A 
ATOM      7  C   UNL     1      -2.018  14.078  21.737  0.00  0.00    +0.000 A 
ATOM      8 CL   UNL     1      -3.239  14.958  22.583  0.00  0.00    +0.000 Cl
ATOM      9  C   UNL     1      -0.652  14.310  21.947  0.00  0.00    +0.000 A 
ATOM     10 CL   UNL     1      -0.067  15.540  23.002  0.00  0.00    +0.000 Cl
ATOM     11  C   UNL     1       0.291  13.527  21.275  0.00  0.00    +0.000 A 
ATOM     12  C   UNL     1      -0.116  12.517  20.393  0.00  0.00    +0.000 A 
ATOM     13  N   UNL     1       0.831  11.670  19.780  0.00  0.00    +0.000 N 
ATOM     14  H   UNL     1      -2.839  11.288  18.950  0.00  0.00    +0.000 HD
ENDROOT
BRANCH   1  16
ATOM     15  C   UNL     1       1.013   8.503  20.020  0.00  0.00    +0.000 A 
ATOM     16  C   UNL     1       1.002   9.425  18.992  0.00  0.00    +0.000 A 
ATOM     17  S   UNL     1       2.051   9.027  17.719  0.00  0.00    +0.000 S 
ATOM     18  C   UNL     1       2.609   7.629  18.527  0.00  0.00    +0.000 A 
ATOM     19  C   UNL     1       1.934   7.410  19.724  0.00  0.00    +0.000 A 
ATOM     20  C   UNL     1       2.126   6.186  20.589  0.00  0.00    +0.000 C 
ATOM     21  C   UNL     1       2.270   4.903  19.768  0.00  0.00    +0.000 C 
ATOM     22  C   UNL     1       3.678   4.657  19.218  0.00  0.00    +0.000 C 
ATOM     23  C   UNL     1       4.455   5.897  18.774  0.00  0.00    +0.000 C 
ATOM     24  C   UNL     1       3.673   6.814  17.841  0.00  0.00    +0.000 C 
BRANCH  15  25
ATOM     25  C   UNL     1       0.175   8.696  21.202  0.00  0.00    +0.000 C 
ATOM     26  O   UNL     1      -0.918   8.157  21.348  0.00  0.00    +0.000 OA
BRANCH  25  27
ATOM     27  O   UNL     1       0.701   9.603  22.076  0.00  0.00    +0.000 OA
BRANCH  27  29
ATOM     28  C   UNL     1      -1.100  10.644  23.262  0.00  0.00    +0.000 C 
ATOM     29  C   UNL     1       0.052   9.659  23.352  0.00  0.00    +0.000 C 
ENDBRANCH  27  29
ENDBRANCH  25  27
ENDBRANCH  15  25
ENDBRANCH   1  16
BRANCH  13  30
ATOM     30  O   UNL     1       2.152  12.089  19.647  0.00  0.00    +0.000 OA
ATOM     31  H   UNL     1       2.312  12.551  20.489  0.00  0.00    +0.000 HD
ENDBRANCH  13  30
TORSDOF 5
ENDMDL
MODEL 8
REMARK VINA RESULT:      -6.3      5.466     10.340
REMARK  Name = 
REMARK  6 active torsions:
REMARK  status: ('A' for Active; 'I' for Inactive)
REMARK    1  A    between atoms: C_1  and  C_2
REMARK    2  A    between atoms: C_2  and  O_3
REMARK    3  A    between atoms: O_3  and  C_4
REMARK    4  A    between atoms: C_4  and  C_6
REMARK    5  A    between atoms: C_7  and  N_8
REMARK    6  A    between atoms: N_20  and  O_21
REMARK                            x       y       z     vdW  Elec       q    Type
REMARK                         _______ _______ _______ _____ _____    ______ ____
ROOT
ATOM      1  N   UNL     1      -1.574  11.775  21.514  0.00  0.00    +0.000 N 
ATOM      2  C   UNL     1      -1.741  12.168  20.171  0.00  0.00    +0.000 C 
ATOM      3  O   UNL     1      -2.431  13.125  19.803  0.00  0.00    +0.000 OA
ATOM      4  N   UNL     1      -1.021  11.484  19.223  0.00  0.00    +0.000 N 
ATOM      5  C   UNL     1      -0.134  10.455  19.519  0.00  0.00    +0.000 A 
ATOM      6  C   UNL     1       0.648   9.889  18.518  0.00  0.00    +0.000 A 
ATOM      7  C   UNL     1       1.476   8.806  18.824  0.00  0.00    +0.000 A 
ATOM      8 CL   UNL     1       2.458   8.163  17.558  0.00  0.00    +0.000 Cl
ATOM      9  C   UNL     1       1.498   8.282  20.124  0.00  0.00    +0.000 A 
ATOM     10 CL   UNL     1       2.442   6.907  20.558  0.00  0.00    +0.000 Cl
ATOM     11  C   UNL     1       0.724   8.881  21.122  0.00  0.00    +0.000 A 
ATOM     12  C   UNL     1      -0.076   9.995  20.835  0.00  0.00    +0.000 A 
ATOM     13  N   UNL     1      -0.791  10.652  21.858  0.00  0.00    +0.000 N 
ATOM     14  H   UNL     1      -1.121  11.838  18.281  0.00  0.00    +0.000 HD
ENDROOT
BRANCH   1  16
ATOM     15  C   UNL     1      -2.503  13.268  23.312  0.00  0.00    +0.000 A 
ATOM     16  C   UNL     1      -1.549  12.846  22.408  0.00  0.00    +0.000 A 
ATOM     17  S   UNL     1      -0.223  13.898  22.288  0.00  0.00    +0.000 S 
ATOM     18  C   UNL     1      -0.908  14.997  23.403  0.00  0.00    +0.000 A 
ATOM     19  C   UNL     1      -2.102  14.523  23.939  0.00  0.00    +0.000 A 
ATOM     20  C   UNL     1      -2.866  15.221  25.040  0.00  0.00    +0.000 C 
ATOM     21  C   UNL     1      -1.946  15.807  26.113  0.00  0.00    +0.000 C 
ATOM     22  C   UNL     1      -1.343  17.169  25.756  0.00  0.00    +0.000 C 
ATOM     23  C   UNL     1      -0.975  17.380  24.288  0.00  0.00    +0.000 C 
ATOM     24  C   UNL     1      -0.135  16.255  23.695  0.00  0.00    +0.000 C 
BRANCH  15  25
ATOM     25  C   UNL     1      -3.718  12.485  23.533  0.00  0.00    +0.000 C 
ATOM     26  O   UNL     1      -3.861  11.716  24.479  0.00  0.00    +0.000 OA
BRANCH  25  27
ATOM     27  O   UNL     1      -4.630  12.639  22.530  0.00  0.00    +0.000 OA
BRANCH  27  29
ATOM     28  C   UNL     1      -5.987  14.554  23.007  0.00  0.00    +0.000 C 
ATOM     29  C   UNL     1      -5.938  13.038  22.960  0.00  0.00    +0.000 C 
ENDBRANCH  27  29
ENDBRANCH  25  27
ENDBRANCH  15  25
ENDBRANCH   1  16
BRANCH  13  30
ATOM     30  O   UNL     1      -1.106   9.972  23.031  0.00  0.00    +0.000 OA
ATOM     31  H   UNL     1      -0.610   9.139  22.931  0.00  0.00    +0.000 HD
ENDBRANCH  13  30
TORSDOF 5
ENDMDL
MODEL 9
REMARK VINA RESULT:      -6.3      4.564      9.310
REMARK  Name = 
REMARK  6 active torsions:
REMARK  status: ('A' for Active; 'I' for Inactive)
REMARK    1  A    between atoms: C_1  and  C_2
REMARK    2  A    between atoms: C_2  and  O_3
REMARK    3  A    between atoms: O_3  and  C_4
REMARK    4  A    between atoms: C_4  and  C_6
REMARK    5  A    between atoms: C_7  and  N_8
REMARK    6  A    between atoms: N_20  and  O_21
REMARK                            x       y       z     vdW  Elec       q    Type
REMARK                         _______ _______ _______ _____ _____    ______ ____
ROOT
ATOM      1  N   UNL     1      -0.281  11.327  20.130  0.00  0.00    +0.000 N 
ATOM      2  C   UNL     1      -0.074  11.595  18.762  0.00  0.00    +0.000 C 
ATOM      3  O   UNL     1      -0.456  12.619  18.185  0.00  0.00    +0.000 OA
ATOM      4  N   UNL     1       0.671  10.689  18.051  0.00  0.00    +0.000 N 
ATOM      5  C   UNL     1       1.242   9.550  18.608  0.00  0.00    +0.000 A 
ATOM      6  C   UNL     1       2.083   8.741  17.852  0.00  0.00    +0.000 A 
ATOM      7  C   UNL     1       2.583   7.561  18.409  0.00  0.00    +0.000 A 
ATOM      8 CL   UNL     1       3.655   6.610  17.446  0.00  0.00    +0.000 Cl
ATOM      9  C   UNL     1       2.221   7.188  19.711  0.00  0.00    +0.000 A 
ATOM     10 CL   UNL     1       2.744   5.716  20.437  0.00  0.00    +0.000 Cl
ATOM     11  C   UNL     1       1.395   8.027  20.463  0.00  0.00    +0.000 A 
ATOM     12  C   UNL     1       0.923   9.233  19.929  0.00  0.00    +0.000 A 
ATOM     13  N   UNL     1       0.161  10.121  20.717  0.00  0.00    +0.000 N 
ATOM     14  H   UNL     1       0.849  10.950  17.090  0.00  0.00    +0.000 HD
ENDROOT
BRANCH   1  16
ATOM     15  C   UNL     1      -1.242  13.173  21.544  0.00  0.00    +0.000 A 
ATOM     16  C   UNL     1      -0.223  12.466  20.935  0.00  0.00    +0.000 A 
ATOM     17  S   UNL     1       1.295  13.206  21.087  0.00  0.00    +0.000 S 
ATOM     18  C   UNL     1       0.636  14.541  21.926  0.00  0.00    +0.000 A 
ATOM     19  C   UNL     1      -0.725  14.383  22.174  0.00  0.00    +0.000 A 
ATOM     20  C   UNL     1      -1.546  15.342  23.004  0.00  0.00    +0.000 C 
ATOM     21  C   UNL     1      -0.792  15.848  24.236  0.00  0.00    +0.000 C 
ATOM     22  C   UNL     1       0.167  17.010  23.959  0.00  0.00    +0.000 C 
ATOM     23  C   UNL     1       0.902  16.973  22.619  0.00  0.00    +0.000 C 
ATOM     24  C   UNL     1       1.582  15.641  22.325  0.00  0.00    +0.000 C 
BRANCH  15  25
ATOM     25  C   UNL     1      -2.618  12.682  21.501  0.00  0.00    +0.000 C 
ATOM     26  O   UNL     1      -3.324  12.743  20.499  0.00  0.00    +0.000 OA
BRANCH  25  27
ATOM     27  O   UNL     1      -3.052  12.233  22.714  0.00  0.00    +0.000 OA
BRANCH  27  29
ATOM     28  C   UNL     1      -4.462  12.631  24.610  0.00  0.00    +0.000 C 
ATOM     29  C   UNL     1      -4.355  12.692  23.097  0.00  0.00    +0.000 C 
ENDBRANCH  27  29
ENDBRANCH  25  27
ENDBRANCH  15  25
ENDBRANCH   1  16
BRANCH  13  30
ATOM     30  O   UNL     1      -0.530   9.645  21.827  0.00  0.00    +0.000 OA
ATOM     31  H   UNL     1      -0.328  10.316  22.504  0.00  0.00    +0.000 HD
ENDBRANCH  13  30
TORSDOF 5
ENDMDL
