MODEL 1
REMARK VINA RESULT:      -7.2      0.000      0.000
REMARK  Name = 
REMARK  8 active torsions:
REMARK  status: ('A' for Active; 'I' for Inactive)
REMARK    1  A    between atoms: C_1  and  C_2
REMARK    2  A    between atoms: C_2  and  N_3
REMARK    3  A    between atoms: C_4  and  C_6
REMARK    4  A    between atoms: C_6  and  O_7
REMARK    5  A    between atoms: O_7  and  C_8
REMARK    6  A    between atoms: C_8  and  C_10
REMARK    7  A    between atoms: C_11  and  C_12
REMARK    8  A    between atoms: C_16  and  N_17
REMARK                            x       y       z     vdW  Elec       q    Type
REMARK                         _______ _______ _______ _____ _____    ______ ____
ROOT
ATOM      1  C   UNL     1       6.063   5.248  15.434  0.00  0.00    +0.000 C 
ATOM      2  C   UNL     1       5.118   4.358  15.776  0.00  0.00    +0.000 C 
ENDROOT
BRANCH   2   3
ATOM      3  C   UNL     1       4.083   4.588  16.795  0.00  0.00    +0.000 A 
ATOM      4  C   UNL     1       3.949   5.866  17.361  0.00  0.00    +0.000 A 
ATOM      5  C   UNL     1       3.027   6.107  18.384  0.00  0.00    +0.000 A 
ATOM      6  C   UNL     1       2.230   5.071  18.869  0.00  0.00    +0.000 A 
ATOM      7  C   UNL     1       2.366   3.791  18.318  0.00  0.00    +0.000 A 
ATOM      8  C   UNL     1       3.286   3.546  17.288  0.00  0.00    +0.000 A 
BRANCH   7   9
ATOM      9  N   UNL     1       1.550   2.686  18.836  0.00  0.00    +0.000 N 
ATOM     10  O   UNL     1       2.007   2.021  19.776  0.00  0.00    +0.000 OA
ATOM     11  O   UNL     1       0.451   2.483  18.300  0.00  0.00    +0.000 OA
ENDBRANCH   7   9
ENDBRANCH   2   3
BRANCH   1  12
ATOM     12  C   UNL     1       7.010   4.925  14.346  0.00  0.00    +0.000 C 
ATOM     13  O   UNL     1       7.966   5.614  14.030  0.00  0.00    +0.000 OA
BRANCH  12  14
ATOM     14  O   UNL     1       6.646   3.738  13.805  0.00  0.00    +0.000 OA
BRANCH  14  15
ATOM     15  C   UNL     1       6.784   3.637  12.382  0.00  0.00    +0.000 C 
BRANCH  15  17
ATOM     16  N   UNL     1       4.537   3.688  11.386  0.00  0.00    +0.000 N 
ATOM     17  C   UNL     1       5.615   2.902  11.726  0.00  0.00    +0.000 C 
ATOM     18  O   UNL     1       5.660   1.693  11.506  0.00  0.00    +0.000 OA
ATOM     19  H   UNL     1       4.580   4.678  11.589  0.00  0.00    +0.000 HD
BRANCH  16  21
ATOM     20  C   UNL     1       2.844   4.018   9.630  0.00  0.00    +0.000 C 
ATOM     21  C   UNL     1       3.361   3.134  10.750  0.00  0.00    +0.000 C 
ENDBRANCH  16  21
ENDBRANCH  15  17
ENDBRANCH  14  15
ENDBRANCH  12  14
ENDBRANCH   1  12
TORSDOF 7
ENDMDL
MODEL 2
REMARK VINA RESULT:      -7.1      2.180      3.186
REMARK  Name = 
REMARK  8 active torsions:
REMARK  status: ('A' for Active; 'I' for Inactive)
REMARK    1  A    between atoms: C_1  and  C_2
REMARK    2  A    between atoms: C_2  and  N_3
REMARK    3  A    between atoms: C_4  and  C_6
REMARK    4  A    between atoms: C_6  and  O_7
REMARK    5  A    between atoms: O_7  and  C_8
REMARK    6  A    between atoms: C_8  and  C_10
REMARK    7  A    between atoms: C_11  and  C_12
REMARK    8  A    between atoms: C_16  and  N_17
REMARK                            x       y       z     vdW  Elec       q    Type
REMARK                         _______ _______ _______ _____ _____    ______ ____
ROOT
ATOM      1  C   UNL     1       5.789   5.103  18.371  0.00  0.00    +0.000 C 
ATOM      2  C   UNL     1       4.552   5.129  17.849  0.00  0.00    +0.000 C 
ENDROOT
BRANCH   2   3
ATOM      3  C   UNL     1       3.398   4.401  18.397  0.00  0.00    +0.000 A 
ATOM      4  C   UNL     1       2.202   4.359  17.664  0.00  0.00    +0.000 A 
ATOM      5  C   UNL     1       1.061   3.738  18.184  0.00  0.00    +0.000 A 
ATOM      6  C   UNL     1       1.093   3.159  19.451  0.00  0.00    +0.000 A 
ATOM      7  C   UNL     1       2.279   3.207  20.193  0.00  0.00    +0.000 A 
ATOM      8  C   UNL     1       3.427   3.824  19.674  0.00  0.00    +0.000 A 
BRANCH   7   9
ATOM      9  N   UNL     1       2.320   2.622  21.539  0.00  0.00    +0.000 N 
ATOM     10  O   UNL     1       1.260   2.568  22.178  0.00  0.00    +0.000 OA
ATOM     11  O   UNL     1       3.414   2.216  21.957  0.00  0.00    +0.000 OA
ENDBRANCH   7   9
ENDBRANCH   2   3
BRANCH   1  12
ATOM     12  C   UNL     1       6.854   5.932  17.767  0.00  0.00    +0.000 C 
ATOM     13  O   UNL     1       7.698   6.545  18.398  0.00  0.00    +0.000 OA
BRANCH  12  14
ATOM     14  O   UNL     1       6.739   5.853  16.420  0.00  0.00    +0.000 OA
BRANCH  14  15
ATOM     15  C   UNL     1       7.007   4.566  15.849  0.00  0.00    +0.000 C 
BRANCH  15  17
ATOM     16  N   UNL     1       6.339   3.507  13.733  0.00  0.00    +0.000 N 
ATOM     17  C   UNL     1       6.973   4.579  14.320  0.00  0.00    +0.000 C 
ATOM     18  O   UNL     1       7.467   5.503  13.676  0.00  0.00    +0.000 OA
ATOM     19  H   UNL     1       5.948   2.793  14.332  0.00  0.00    +0.000 HD
BRANCH  16  21
ATOM     20  C   UNL     1       4.773   3.363  11.840  0.00  0.00    +0.000 C 
ATOM     21  C   UNL     1       6.220   3.386  12.296  0.00  0.00    +0.000 C 
ENDBRANCH  16  21
ENDBRANCH  15  17
ENDBRANCH  14  15
ENDBRANCH  12  14
ENDBRANCH   1  12
TORSDOF 7
ENDMDL
MODEL 3
REMARK VINA RESULT:      -7.1      1.774      2.748
REMARK  Name = 
REMARK  8 active torsions:
REMARK  status: ('A' for Active; 'I' for Inactive)
REMARK    1  A    between atoms: C_1  and  C_2
REMARK    2  A    between atoms: C_2  and  N_3
REMARK    3  A    between atoms: C_4  and  C_6
REMARK    4  A    between atoms: C_6  and  O_7
REMARK    5  A    between atoms: O_7  and  C_8
REMARK    6  A    between atoms: C_8  and  C_10
REMARK    7  A    between atoms: C_11  and  C_12
REMARK    8  A    between atoms: C_16  and  N_17
REMARK                            x       y       z     vdW  Elec       q    Type
REMARK                         _______ _______ _______ _____ _____    ______ ____
ROOT
ATOM      1  C   UNL     1       5.573   5.589  17.695  0.00  0.00    +0.000 C 
ATOM      2  C   UNL     1       4.564   6.213  18.323  0.00  0.00    +0.000 C 
ENDROOT
BRANCH   2   3
ATOM      3  C   UNL     1       3.381   5.540  18.879  0.00  0.00    +0.000 A 
ATOM      4  C   UNL     1       2.702   6.125  19.959  0.00  0.00    +0.000 A 
ATOM      5  C   UNL     1       1.618   5.480  20.563  0.00  0.00    +0.000 A 
ATOM      6  C   UNL     1       1.200   4.232  20.104  0.00  0.00    +0.000 A 
ATOM      7  C   UNL     1       1.880   3.636  19.034  0.00  0.00    +0.000 A 
ATOM      8  C   UNL     1       2.964   4.282  18.423  0.00  0.00    +0.000 A 
BRANCH   7   9
ATOM      9  N   UNL     1       1.465   2.311  18.556  0.00  0.00    +0.000 N 
ATOM     10  O   UNL     1       2.354   1.494  18.274  0.00  0.00    +0.000 OA
ATOM     11  O   UNL     1       0.249   2.088  18.462  0.00  0.00    +0.000 OA
ENDBRANCH   7   9
ENDBRANCH   2   3
BRANCH   1  12
ATOM     12  C   UNL     1       6.742   6.369  17.236  0.00  0.00    +0.000 C 
ATOM     13  O   UNL     1       7.447   7.054  17.959  0.00  0.00    +0.000 OA
BRANCH  12  14
ATOM     14  O   UNL     1       6.898   6.157  15.908  0.00  0.00    +0.000 OA
BRANCH  14  15
ATOM     15  C   UNL     1       7.059   4.789  15.513  0.00  0.00    +0.000 C 
BRANCH  15  17
ATOM     16  N   UNL     1       6.240   3.520  13.573  0.00  0.00    +0.000 N 
ATOM     17  C   UNL     1       6.984   4.598  13.998  0.00  0.00    +0.000 C 
ATOM     18  O   UNL     1       7.541   5.375  13.226  0.00  0.00    +0.000 OA
ATOM     19  H   UNL     1       5.802   2.933  14.270  0.00  0.00    +0.000 HD
BRANCH  16  21
ATOM     20  C   UNL     1       4.619   3.301  11.733  0.00  0.00    +0.000 C 
ATOM     21  C   UNL     1       6.071   3.217  12.168  0.00  0.00    +0.000 C 
ENDBRANCH  16  21
ENDBRANCH  15  17
ENDBRANCH  14  15
ENDBRANCH  12  14
ENDBRANCH   1  12
TORSDOF 7
ENDMDL
MODEL 4
REMARK VINA RESULT:      -7.0      1.716      2.111
REMARK  Name = 
REMARK  8 active torsions:
REMARK  status: ('A' for Active; 'I' for Inactive)
REMARK    1  A    between atoms: C_1  and  C_2
REMARK    2  A    between atoms: C_2  and  N_3
REMARK    3  A    between atoms: C_4  and  C_6
REMARK    4  A    between atoms: C_6  and  O_7
REMARK    5  A    between atoms: O_7  and  C_8
REMARK    6  A    between atoms: C_8  and  C_10
REMARK    7  A    between atoms: C_11  and  C_12
REMARK    8  A    between atoms: C_16  and  N_17
REMARK                            x       y       z     vdW  Elec       q    Type
REMARK                         _______ _______ _______ _____ _____    ______ ____
ROOT
ATOM      1  C   UNL     1       5.023   4.024  16.220  0.00  0.00    +0.000 C 
ATOM      2  C   UNL     1       4.227   4.704  17.061  0.00  0.00    +0.000 C 
ENDROOT
BRANCH   2   3
ATOM      3  C   UNL     1       3.241   4.087  17.960  0.00  0.00    +0.000 A 
ATOM      4  C   UNL     1       1.893   4.038  17.569  0.00  0.00    +0.000 A 
ATOM      5  C   UNL     1       0.913   3.525  18.426  0.00  0.00    +0.000 A 
ATOM      6  C   UNL     1       1.262   3.064  19.694  0.00  0.00    +0.000 A 
ATOM      7  C   UNL     1       2.602   3.121  20.096  0.00  0.00    +0.000 A 
ATOM      8  C   UNL     1       3.589   3.629  19.238  0.00  0.00    +0.000 A 
BRANCH   7   9
ATOM      9  N   UNL     1       2.980   2.660  21.438  0.00  0.00    +0.000 N 
ATOM     10  O   UNL     1       3.982   1.937  21.539  0.00  0.00    +0.000 OA
ATOM     11  O   UNL     1       2.274   3.021  22.390  0.00  0.00    +0.000 OA
ENDBRANCH   7   9
ENDBRANCH   2   3
BRANCH   1  12
ATOM     12  C   UNL     1       6.024   4.753  15.412  0.00  0.00    +0.000 C 
ATOM     13  O   UNL     1       6.260   5.946  15.510  0.00  0.00    +0.000 OA
BRANCH  12  14
ATOM     14  O   UNL     1       6.635   3.865  14.593  0.00  0.00    +0.000 OA
BRANCH  14  15
ATOM     15  C   UNL     1       6.809   4.291  13.236  0.00  0.00    +0.000 C 
BRANCH  15  17
ATOM     16  N   UNL     1       4.764   3.682  12.015  0.00  0.00    +0.000 N 
ATOM     17  C   UNL     1       6.090   3.386  12.235  0.00  0.00    +0.000 C 
ATOM     18  O   UNL     1       6.679   2.472  11.660  0.00  0.00    +0.000 OA
ATOM     19  H   UNL     1       4.354   4.458  12.519  0.00  0.00    +0.000 HD
BRANCH  16  21
ATOM     20  C   UNL     1       3.212   3.806  10.109  0.00  0.00    +0.000 C 
ATOM     21  C   UNL     1       3.956   2.918  11.089  0.00  0.00    +0.000 C 
ENDBRANCH  16  21
ENDBRANCH  15  17
ENDBRANCH  14  15
ENDBRANCH  12  14
ENDBRANCH   1  12
TORSDOF 7
ENDMDL
MODEL 5
REMARK VINA RESULT:      -7.0      2.008      2.900
REMARK  Name = 
REMARK  8 active torsions:
REMARK  status: ('A' for Active; 'I' for Inactive)
REMARK    1  A    between atoms: C_1  and  C_2
REMARK    2  A    between atoms: C_2  and  N_3
REMARK    3  A    between atoms: C_4  and  C_6
REMARK    4  A    between atoms: C_6  and  O_7
REMARK    5  A    between atoms: O_7  and  C_8
REMARK    6  A    between atoms: C_8  and  C_10
REMARK    7  A    between atoms: C_11  and  C_12
REMARK    8  A    between atoms: C_16  and  N_17
REMARK                            x       y       z     vdW  Elec       q    Type
REMARK                         _______ _______ _______ _____ _____    ______ ____
ROOT
ATOM      1  C   UNL     1       5.848   5.958  18.146  0.00  0.00    +0.000 C 
ATOM      2  C   UNL     1       4.560   6.142  17.815  0.00  0.00    +0.000 C 
ENDROOT
BRANCH   2   3
ATOM      3  C   UNL     1       3.418   5.776  18.667  0.00  0.00    +0.000 A 
ATOM      4  C   UNL     1       2.830   6.754  19.484  0.00  0.00    +0.000 A 
ATOM      5  C   UNL     1       1.790   6.429  20.361  0.00  0.00    +0.000 A 
ATOM      6  C   UNL     1       1.328   5.117  20.446  0.00  0.00    +0.000 A 
ATOM      7  C   UNL     1       1.917   4.133  19.643  0.00  0.00    +0.000 A 
ATOM      8  C   UNL     1       2.956   4.456  18.758  0.00  0.00    +0.000 A 
BRANCH   7   9
ATOM      9  N   UNL     1       1.456   2.743  19.739  0.00  0.00    +0.000 N 
ATOM     10  O   UNL     1       1.660   2.139  20.802  0.00  0.00    +0.000 OA
ATOM     11  O   UNL     1       0.889   2.255  18.751  0.00  0.00    +0.000 OA
ENDBRANCH   7   9
ENDBRANCH   2   3
BRANCH   1  12
ATOM     12  C   UNL     1       6.910   6.428  17.232  0.00  0.00    +0.000 C 
ATOM     13  O   UNL     1       7.138   7.599  16.975  0.00  0.00    +0.000 OA
BRANCH  12  14
ATOM     14  O   UNL     1       7.585   5.347  16.775  0.00  0.00    +0.000 OA
BRANCH  14  15
ATOM     15  C   UNL     1       6.804   4.391  16.046  0.00  0.00    +0.000 C 
BRANCH  15  17
ATOM     16  N   UNL     1       6.267   3.611  13.776  0.00  0.00    +0.000 N 
ATOM     17  C   UNL     1       6.968   4.526  14.531  0.00  0.00    +0.000 C 
ATOM     18  O   UNL     1       7.667   5.408  14.038  0.00  0.00    +0.000 OA
ATOM     19  H   UNL     1       5.704   2.922  14.256  0.00  0.00    +0.000 HD
BRANCH  16  21
ATOM     20  C   UNL     1       5.983   2.264  11.736  0.00  0.00    +0.000 C 
ATOM     21  C   UNL     1       6.318   3.620  12.330  0.00  0.00    +0.000 C 
ENDBRANCH  16  21
ENDBRANCH  15  17
ENDBRANCH  14  15
ENDBRANCH  12  14
ENDBRANCH   1  12
TORSDOF 7
ENDMDL
MODEL 6
REMARK VINA RESULT:      -6.9      0.820      1.100
REMARK  Name = 
REMARK  8 active torsions:
REMARK  status: ('A' for Active; 'I' for Inactive)
REMARK    1  A    between atoms: C_1  and  C_2
REMARK    2  A    between atoms: C_2  and  N_3
REMARK    3  A    between atoms: C_4  and  C_6
REMARK    4  A    between atoms: C_6  and  O_7
REMARK    5  A    between atoms: O_7  and  C_8
REMARK    6  A    between atoms: C_8  and  C_10
REMARK    7  A    between atoms: C_11  and  C_12
REMARK    8  A    between atoms: C_16  and  N_17
REMARK                            x       y       z     vdW  Elec       q    Type
REMARK                         _______ _______ _______ _____ _____    ______ ____
ROOT
ATOM      1  C   UNL     1       5.397   4.988  15.325  0.00  0.00    +0.000 C 
ATOM      2  C   UNL     1       5.453   5.133  16.659  0.00  0.00    +0.000 C 
ENDROOT
BRANCH   2   3
ATOM      3  C   UNL     1       4.285   5.346  17.525  0.00  0.00    +0.000 A 
ATOM      4  C   UNL     1       3.826   6.654  17.749  0.00  0.00    +0.000 A 
ATOM      5  C   UNL     1       2.763   6.904  18.624  0.00  0.00    +0.000 A 
ATOM      6  C   UNL     1       2.148   5.852  19.300  0.00  0.00    +0.000 A 
ATOM      7  C   UNL     1       2.608   4.546  19.092  0.00  0.00    +0.000 A 
ATOM      8  C   UNL     1       3.670   4.290  18.211  0.00  0.00    +0.000 A 
BRANCH   7   9
ATOM      9  N   UNL     1       1.985   3.431  19.815  0.00  0.00    +0.000 N 
ATOM     10  O   UNL     1       0.783   3.210  19.611  0.00  0.00    +0.000 OA
ATOM     11  O   UNL     1       2.699   2.776  20.589  0.00  0.00    +0.000 OA
ENDBRANCH   7   9
ENDBRANCH   2   3
BRANCH   1  12
ATOM     12  C   UNL     1       6.637   4.712  14.568  0.00  0.00    +0.000 C 
ATOM     13  O   UNL     1       7.629   5.422  14.578  0.00  0.00    +0.000 OA
BRANCH  12  14
ATOM     14  O   UNL     1       6.480   3.539  13.910  0.00  0.00    +0.000 OA
BRANCH  14  15
ATOM     15  C   UNL     1       6.646   3.599  12.488  0.00  0.00    +0.000 C 
BRANCH  15  17
ATOM     16  N   UNL     1       4.420   3.707  11.448  0.00  0.00    +0.000 N 
ATOM     17  C   UNL     1       5.508   2.913  11.730  0.00  0.00    +0.000 C 
ATOM     18  O   UNL     1       5.587   1.735  11.387  0.00  0.00    +0.000 OA
ATOM     19  H   UNL     1       4.436   4.671  11.754  0.00  0.00    +0.000 HD
BRANCH  16  21
ATOM     20  C   UNL     1       2.894   4.081   9.553  0.00  0.00    +0.000 C 
ATOM     21  C   UNL     1       3.272   3.199  10.729  0.00  0.00    +0.000 C 
ENDBRANCH  16  21
ENDBRANCH  15  17
ENDBRANCH  14  15
ENDBRANCH  12  14
ENDBRANCH   1  12
TORSDOF 7
ENDMDL
MODEL 7
REMARK VINA RESULT:      -6.9      1.530      2.019
REMARK  Name = 
REMARK  8 active torsions:
REMARK  status: ('A' for Active; 'I' for Inactive)
REMARK    1  A    between atoms: C_1  and  C_2
REMARK    2  A    between atoms: C_2  and  N_3
REMARK    3  A    between atoms: C_4  and  C_6
REMARK    4  A    between atoms: C_6  and  O_7
REMARK    5  A    between atoms: O_7  and  C_8
REMARK    6  A    between atoms: C_8  and  C_10
REMARK    7  A    between atoms: C_11  and  C_12
REMARK    8  A    between atoms: C_16  and  N_17
REMARK                            x       y       z     vdW  Elec       q    Type
REMARK                         _______ _______ _______ _____ _____    ______ ____
ROOT
ATOM      1  C   UNL     1       5.628   4.408  16.412  0.00  0.00    +0.000 C 
ATOM      2  C   UNL     1       4.678   5.335  16.615  0.00  0.00    +0.000 C 
ENDROOT
BRANCH   2   3
ATOM      3  C   UNL     1       3.709   5.311  17.720  0.00  0.00    +0.000 A 
ATOM      4  C   UNL     1       3.367   6.513  18.359  0.00  0.00    +0.000 A 
ATOM      5  C   UNL     1       2.505   6.523  19.460  0.00  0.00    +0.000 A 
ATOM      6  C   UNL     1       1.979   5.329  19.950  0.00  0.00    +0.000 A 
ATOM      7  C   UNL     1       2.325   4.125  19.326  0.00  0.00    +0.000 A 
ATOM      8  C   UNL     1       3.185   4.111  18.218  0.00  0.00    +0.000 A 
BRANCH   7   9
ATOM      9  N   UNL     1       1.797   2.857  19.846  0.00  0.00    +0.000 N 
ATOM     10  O   UNL     1       2.022   1.827  19.195  0.00  0.00    +0.000 OA
ATOM     11  O   UNL     1       1.156   2.893  20.906  0.00  0.00    +0.000 OA
ENDBRANCH   7   9
ENDBRANCH   2   3
BRANCH   1  12
ATOM     12  C   UNL     1       6.588   4.576  15.301  0.00  0.00    +0.000 C 
ATOM     13  O   UNL     1       7.486   5.402  15.278  0.00  0.00    +0.000 OA
BRANCH  12  14
ATOM     14  O   UNL     1       6.312   3.644  14.358  0.00  0.00    +0.000 OA
BRANCH  14  15
ATOM     15  C   UNL     1       5.525   4.099  13.249  0.00  0.00    +0.000 C 
BRANCH  15  17
ATOM     16  N   UNL     1       6.606   2.335  11.921  0.00  0.00    +0.000 N 
ATOM     17  C   UNL     1       5.464   3.081  12.110  0.00  0.00    +0.000 C 
ATOM     18  O   UNL     1       4.448   2.938  11.433  0.00  0.00    +0.000 OA
ATOM     19  H   UNL     1       7.396   2.504  12.528  0.00  0.00    +0.000 HD
BRANCH  16  21
ATOM     20  C   UNL     1       6.169  -0.020  11.353  0.00  0.00    +0.000 C 
ATOM     21  C   UNL     1       6.693   1.326  10.887  0.00  0.00    +0.000 C 
ENDBRANCH  16  21
ENDBRANCH  15  17
ENDBRANCH  14  15
ENDBRANCH  12  14
ENDBRANCH   1  12
TORSDOF 7
ENDMDL
MODEL 8
REMARK VINA RESULT:      -6.9      2.378      2.665
REMARK  Name = 
REMARK  8 active torsions:
REMARK  status: ('A' for Active; 'I' for Inactive)
REMARK    1  A    between atoms: C_1  and  C_2
REMARK    2  A    between atoms: C_2  and  N_3
REMARK    3  A    between atoms: C_4  and  C_6
REMARK    4  A    between atoms: C_6  and  O_7
REMARK    5  A    between atoms: O_7  and  C_8
REMARK    6  A    between atoms: C_8  and  C_10
REMARK    7  A    between atoms: C_11  and  C_12
REMARK    8  A    between atoms: C_16  and  N_17
REMARK                            x       y       z     vdW  Elec       q    Type
REMARK                         _______ _______ _______ _____ _____    ______ ____
ROOT
ATOM      1  C   UNL     1       5.390   5.346  15.905  0.00  0.00    +0.000 C 
ATOM      2  C   UNL     1       4.910   4.459  16.791  0.00  0.00    +0.000 C 
ENDROOT
BRANCH   2   3
ATOM      3  C   UNL     1       3.943   4.776  17.851  0.00  0.00    +0.000 A 
ATOM      4  C   UNL     1       3.316   3.729  18.545  0.00  0.00    +0.000 A 
ATOM      5  C   UNL     1       2.337   3.989  19.510  0.00  0.00    +0.000 A 
ATOM      6  C   UNL     1       1.959   5.301  19.789  0.00  0.00    +0.000 A 
ATOM      7  C   UNL     1       2.569   6.350  19.093  0.00  0.00    +0.000 A 
ATOM      8  C   UNL     1       3.555   6.094  18.129  0.00  0.00    +0.000 A 
BRANCH   7   9
ATOM      9  N   UNL     1       2.163   7.736  19.360  0.00  0.00    +0.000 N 
ATOM     10  O   UNL     1       2.291   8.562  18.445  0.00  0.00    +0.000 OA
ATOM     11  O   UNL     1       1.716   7.997  20.486  0.00  0.00    +0.000 OA
ENDBRANCH   7   9
ENDBRANCH   2   3
BRANCH   1  12
ATOM     12  C   UNL     1       6.310   4.892  14.841  0.00  0.00    +0.000 C 
ATOM     13  O   UNL     1       7.477   5.235  14.739  0.00  0.00    +0.000 OA
BRANCH  12  14
ATOM     14  O   UNL     1       5.644   4.021  14.047  0.00  0.00    +0.000 OA
BRANCH  14  15
ATOM     15  C   UNL     1       6.314   3.649  12.836  0.00  0.00    +0.000 C 
BRANCH  15  17
ATOM     16  N   UNL     1       4.311   3.672  11.410  0.00  0.00    +0.000 N 
ATOM     17  C   UNL     1       5.393   2.938  11.844  0.00  0.00    +0.000 C 
ATOM     18  O   UNL     1       5.628   1.795  11.457  0.00  0.00    +0.000 OA
ATOM     19  H   UNL     1       4.193   4.611  11.766  0.00  0.00    +0.000 HD
BRANCH  16  21
ATOM     20  C   UNL     1       2.818   4.199   9.525  0.00  0.00    +0.000 C 
ATOM     21  C   UNL     1       3.357   3.134  10.464  0.00  0.00    +0.000 C 
ENDBRANCH  16  21
ENDBRANCH  15  17
ENDBRANCH  14  15
ENDBRANCH  12  14
ENDBRANCH   1  12
TORSDOF 7
ENDMDL
MODEL 9
REMARK VINA RESULT:      -6.8      2.030      2.644
REMARK  Name = 
REMARK  8 active torsions:
REMARK  status: ('A' for Active; 'I' for Inactive)
REMARK    1  A    between atoms: C_1  and  C_2
REMARK    2  A    between atoms: C_2  and  N_3
REMARK    3  A    between atoms: C_4  and  C_6
REMARK    4  A    between atoms: C_6  and  O_7
REMARK    5  A    between atoms: O_7  and  C_8
REMARK    6  A    between atoms: C_8  and  C_10
REMARK    7  A    between atoms: C_11  and  C_12
REMARK    8  A    between atoms: C_16  and  N_17
REMARK                            x       y       z     vdW  Elec       q    Type
REMARK                         _______ _______ _______ _____ _____    ______ ____
ROOT
ATOM      1  C   UNL     1       5.867   5.019  17.322  0.00  0.00    +0.000 C 
ATOM      2  C   UNL     1       4.550   5.280  17.329  0.00  0.00    +0.000 C 
ENDROOT
BRANCH   2   3
ATOM      3  C   UNL     1       3.547   4.495  18.064  0.00  0.00    +0.000 A 
ATOM      4  C   UNL     1       2.241   4.403  17.558  0.00  0.00    +0.000 A 
ATOM      5  C   UNL     1       1.241   3.727  18.264  0.00  0.00    +0.000 A 
ATOM      6  C   UNL     1       1.526   3.140  19.496  0.00  0.00    +0.000 A 
ATOM      7  C   UNL     1       2.823   3.238  20.013  0.00  0.00    +0.000 A 
ATOM      8  C   UNL     1       3.830   3.910  19.306  0.00  0.00    +0.000 A 
BRANCH   7   9
ATOM      9  N   UNL     1       3.132   2.645  21.321  0.00  0.00    +0.000 N 
ATOM     10  O   UNL     1       2.356   2.880  22.259  0.00  0.00    +0.000 OA
ATOM     11  O   UNL     1       4.150   1.944  21.409  0.00  0.00    +0.000 OA
ENDBRANCH   7   9
ENDBRANCH   2   3
BRANCH   1  12
ATOM     12  C   UNL     1       6.786   5.921  16.596  0.00  0.00    +0.000 C 
ATOM     13  O   UNL     1       7.720   6.518  17.106  0.00  0.00    +0.000 OA
BRANCH  12  14
ATOM     14  O   UNL     1       6.426   5.931  15.290  0.00  0.00    +0.000 OA
BRANCH  14  15
ATOM     15  C   UNL     1       7.159   5.041  14.439  0.00  0.00    +0.000 C 
BRANCH  15  17
ATOM     16  N   UNL     1       6.399   3.728  12.504  0.00  0.00    +0.000 N 
ATOM     17  C   UNL     1       6.289   3.923  13.863  0.00  0.00    +0.000 C 
ATOM     18  O   UNL     1       5.562   3.242  14.583  0.00  0.00    +0.000 OA
ATOM     19  H   UNL     1       7.029   4.323  11.982  0.00  0.00    +0.000 HD
BRANCH  16  21
ATOM     20  C   UNL     1       4.277   3.192  11.377  0.00  0.00    +0.000 C 
ATOM     21  C   UNL     1       5.644   2.701  11.819  0.00  0.00    +0.000 C 
ENDBRANCH  16  21
ENDBRANCH  15  17
ENDBRANCH  14  15
ENDBRANCH  12  14
ENDBRANCH   1  12
TORSDOF 7
ENDMDL
