MODEL 1
REMARK VINA RESULT:      -6.6      0.000      0.000
REMARK  Name = 
REMARK  5 active torsions:
REMARK  status: ('A' for Active; 'I' for Inactive)
REMARK    1  A    between atoms: C_1  and  C_2
REMARK    2  A    between atoms: C_6  and  C_7
REMARK    3  A    between atoms: C_7  and  C_8
REMARK    4  A    between atoms: C_7  and  C_9
REMARK    5  A    between atoms: C_14  and  C_15
REMARK                            x       y       z     vdW  Elec       q    Type
REMARK                         _______ _______ _______ _____ _____    ______ ____
ROOT
ATOM      1  C   UNL     1       1.582   4.036  19.238  0.00  0.00    +0.000 C 
ATOM      2  C   UNL     1       2.662   4.923  18.671  0.00  0.00    +0.000 A 
ATOM      3  C   UNL     1       2.331   6.247  18.359  0.00  0.00    +0.000 A 
ATOM      4  C   UNL     1       3.282   7.104  17.823  0.00  0.00    +0.000 A 
ATOM      5  C   UNL     1       4.579   6.649  17.605  0.00  0.00    +0.000 A 
ATOM      6  C   UNL     1       4.969   5.328  17.917  0.00  0.00    +0.000 A 
ATOM      7  C   UNL     1       3.986   4.449  18.456  0.00  0.00    +0.000 A 
ATOM      8  C   UNL     1       4.282   3.005  18.796  0.00  0.00    +0.000 C 
ENDROOT
BRANCH   6   9
ATOM      9  C   UNL     1       6.421   4.902  17.674  0.00  0.00    +0.000 C 
ATOM     10  C   UNL     1       7.491   5.923  18.087  0.00  0.00    +0.000 C 
BRANCH   9  11
ATOM     11  C   UNL     1       6.558   4.553  16.217  0.00  0.00    +0.000 A 
ATOM     12  C   UNL     1       5.971   3.554  15.461  0.00  0.00    +0.000 A 
ATOM     13  N   UNL     1       6.373   3.778  14.174  0.00  0.00    +0.000 N 
ATOM     14  C   UNL     1       7.160   4.892  14.178  0.00  0.00    +0.000 A 
ATOM     15  N   UNL     1       7.300   5.378  15.389  0.00  0.00    +0.000 NA
ATOM     16  H   UNL     1       6.116   3.236  13.361  0.00  0.00    +0.000 HD
ENDBRANCH   9  11
ENDBRANCH   6   9
TORSDOF 2
ENDMDL
MODEL 2
REMARK VINA RESULT:      -6.6      2.051      3.349
REMARK  Name = 
REMARK  5 active torsions:
REMARK  status: ('A' for Active; 'I' for Inactive)
REMARK    1  A    between atoms: C_1  and  C_2
REMARK    2  A    between atoms: C_6  and  C_7
REMARK    3  A    between atoms: C_7  and  C_8
REMARK    4  A    between atoms: C_7  and  C_9
REMARK    5  A    between atoms: C_14  and  C_15
REMARK                            x       y       z     vdW  Elec       q    Type
REMARK                         _______ _______ _______ _____ _____    ______ ____
ROOT
ATOM      1  C   UNL     1       0.900   4.114  20.279  0.00  0.00    +0.000 C 
ATOM      2  C   UNL     1       1.935   3.991  19.189  0.00  0.00    +0.000 A 
ATOM      3  C   UNL     1       2.050   2.764  18.525  0.00  0.00    +0.000 A 
ATOM      4  C   UNL     1       2.994   2.591  17.523  0.00  0.00    +0.000 A 
ATOM      5  C   UNL     1       3.826   3.648  17.165  0.00  0.00    +0.000 A 
ATOM      6  C   UNL     1       3.741   4.911  17.793  0.00  0.00    +0.000 A 
ATOM      7  C   UNL     1       2.778   5.079  18.829  0.00  0.00    +0.000 A 
ATOM      8  C   UNL     1       2.621   6.376  19.592  0.00  0.00    +0.000 C 
ENDROOT
BRANCH   6   9
ATOM      9  C   UNL     1       4.672   6.038  17.331  0.00  0.00    +0.000 C 
ATOM     10  C   UNL     1       5.043   6.024  15.841  0.00  0.00    +0.000 C 
BRANCH   9  11
ATOM     11  C   UNL     1       5.910   5.986  18.185  0.00  0.00    +0.000 A 
ATOM     12  C   UNL     1       6.212   5.233  19.304  0.00  0.00    +0.000 A 
ATOM     13  N   UNL     1       7.517   5.515  19.601  0.00  0.00    +0.000 N 
ATOM     14  C   UNL     1       7.968   6.399  18.664  0.00  0.00    +0.000 A 
ATOM     15  N   UNL     1       7.027   6.710  17.804  0.00  0.00    +0.000 NA
ATOM     16  H   UNL     1       8.060   5.124  20.358  0.00  0.00    +0.000 HD
ENDBRANCH   9  11
ENDBRANCH   6   9
TORSDOF 2
ENDMDL
MODEL 3
REMARK VINA RESULT:      -6.5      1.956      3.428
REMARK  Name = 
REMARK  5 active torsions:
REMARK  status: ('A' for Active; 'I' for Inactive)
REMARK    1  A    between atoms: C_1  and  C_2
REMARK    2  A    between atoms: C_6  and  C_7
REMARK    3  A    between atoms: C_7  and  C_8
REMARK    4  A    between atoms: C_7  and  C_9
REMARK    5  A    between atoms: C_14  and  C_15
REMARK                            x       y       z     vdW  Elec       q    Type
REMARK                         _______ _______ _______ _____ _____    ______ ____
ROOT
ATOM      1  C   UNL     1       0.814   4.152  20.152  0.00  0.00    +0.000 C 
ATOM      2  C   UNL     1       1.938   3.652  19.280  0.00  0.00    +0.000 A 
ATOM      3  C   UNL     1       2.089   2.269  19.127  0.00  0.00    +0.000 A 
ATOM      4  C   UNL     1       3.113   1.754  18.346  0.00  0.00    +0.000 A 
ATOM      5  C   UNL     1       3.991   2.619  17.698  0.00  0.00    +0.000 A 
ATOM      6  C   UNL     1       3.873   4.022  17.805  0.00  0.00    +0.000 A 
ATOM      7  C   UNL     1       2.827   4.544  18.618  0.00  0.00    +0.000 A 
ATOM      8  C   UNL     1       2.626   6.028  18.833  0.00  0.00    +0.000 C 
ENDROOT
BRANCH   6   9
ATOM      9  C   UNL     1       4.860   4.914  17.044  0.00  0.00    +0.000 C 
ATOM     10  C   UNL     1       5.142   4.503  15.592  0.00  0.00    +0.000 C 
BRANCH   9  11
ATOM     11  C   UNL     1       6.137   4.964  17.837  0.00  0.00    +0.000 A 
ATOM     12  C   UNL     1       7.413   4.523  17.536  0.00  0.00    +0.000 A 
ATOM     13  N   UNL     1       8.201   4.926  18.577  0.00  0.00    +0.000 N 
ATOM     14  C   UNL     1       7.405   5.603  19.455  0.00  0.00    +0.000 A 
ATOM     15  N   UNL     1       6.159   5.637  19.047  0.00  0.00    +0.000 NA
ATOM     16  H   UNL     1       9.196   4.776  18.673  0.00  0.00    +0.000 HD
ENDBRANCH   9  11
ENDBRANCH   6   9
TORSDOF 2
ENDMDL
MODEL 4
REMARK VINA RESULT:      -6.3      1.304      2.682
REMARK  Name = 
REMARK  5 active torsions:
REMARK  status: ('A' for Active; 'I' for Inactive)
REMARK    1  A    between atoms: C_1  and  C_2
REMARK    2  A    between atoms: C_6  and  C_7
REMARK    3  A    between atoms: C_7  and  C_8
REMARK    4  A    between atoms: C_7  and  C_9
REMARK    5  A    between atoms: C_14  and  C_15
REMARK                            x       y       z     vdW  Elec       q    Type
REMARK                         _______ _______ _______ _____ _____    ______ ____
ROOT
ATOM      1  C   UNL     1       0.754   3.602  20.400  0.00  0.00    +0.000 C 
ATOM      2  C   UNL     1       1.767   3.685  19.287  0.00  0.00    +0.000 A 
ATOM      3  C   UNL     1       1.805   2.645  18.351  0.00  0.00    +0.000 A 
ATOM      4  C   UNL     1       2.726   2.664  17.313  0.00  0.00    +0.000 A 
ATOM      5  C   UNL     1       3.611   3.731  17.193  0.00  0.00    +0.000 A 
ATOM      6  C   UNL     1       3.605   4.813  18.100  0.00  0.00    +0.000 A 
ATOM      7  C   UNL     1       2.665   4.782  19.170  0.00  0.00    +0.000 A 
ATOM      8  C   UNL     1       2.590   5.869  20.220  0.00  0.00    +0.000 C 
ENDROOT
BRANCH   6   9
ATOM      9  C   UNL     1       4.592   5.967  17.893  0.00  0.00    +0.000 C 
ATOM     10  C   UNL     1       4.072   7.142  17.051  0.00  0.00    +0.000 C 
BRANCH   9  11
ATOM     11  C   UNL     1       5.843   5.395  17.284  0.00  0.00    +0.000 A 
ATOM     12  C   UNL     1       6.892   4.693  17.852  0.00  0.00    +0.000 A 
ATOM     13  N   UNL     1       7.699   4.328  16.812  0.00  0.00    +0.000 N 
ATOM     14  C   UNL     1       7.125   4.790  15.663  0.00  0.00    +0.000 A 
ATOM     15  N   UNL     1       6.013   5.443  15.911  0.00  0.00    +0.000 NA
ATOM     16  H   UNL     1       8.554   3.791  16.873  0.00  0.00    +0.000 HD
ENDBRANCH   9  11
ENDBRANCH   6   9
TORSDOF 2
ENDMDL
MODEL 5
REMARK VINA RESULT:      -6.2      1.810      3.294
REMARK  Name = 
REMARK  5 active torsions:
REMARK  status: ('A' for Active; 'I' for Inactive)
REMARK    1  A    between atoms: C_1  and  C_2
REMARK    2  A    between atoms: C_6  and  C_7
REMARK    3  A    between atoms: C_7  and  C_8
REMARK    4  A    between atoms: C_7  and  C_9
REMARK    5  A    between atoms: C_14  and  C_15
REMARK                            x       y       z     vdW  Elec       q    Type
REMARK                         _______ _______ _______ _____ _____    ______ ____
ROOT
ATOM      1  C   UNL     1       1.051   2.791  20.997  0.00  0.00    +0.000 C 
ATOM      2  C   UNL     1       1.738   3.298  19.755  0.00  0.00    +0.000 A 
ATOM      3  C   UNL     1       1.818   2.443  18.650  0.00  0.00    +0.000 A 
ATOM      4  C   UNL     1       2.451   2.854  17.485  0.00  0.00    +0.000 A 
ATOM      5  C   UNL     1       3.000   4.131  17.409  0.00  0.00    +0.000 A 
ATOM      6  C   UNL     1       2.933   5.038  18.489  0.00  0.00    +0.000 A 
ATOM      7  C   UNL     1       2.292   4.607  19.686  0.00  0.00    +0.000 A 
ATOM      8  C   UNL     1       2.191   5.481  20.916  0.00  0.00    +0.000 C 
ENDROOT
BRANCH   6   9
ATOM      9  C   UNL     1       3.536   6.438  18.326  0.00  0.00    +0.000 C 
ATOM     10  C   UNL     1       2.610   7.492  17.703  0.00  0.00    +0.000 C 
BRANCH   9  11
ATOM     11  C   UNL     1       4.799   6.300  17.519  0.00  0.00    +0.000 A 
ATOM     12  C   UNL     1       5.078   6.625  16.205  0.00  0.00    +0.000 A 
ATOM     13  N   UNL     1       6.414   6.386  16.039  0.00  0.00    +0.000 N 
ATOM     14  C   UNL     1       6.904   5.949  17.235  0.00  0.00    +0.000 A 
ATOM     15  N   UNL     1       5.960   5.877  18.144  0.00  0.00    +0.000 NA
ATOM     16  H   UNL     1       6.951   6.529  15.195  0.00  0.00    +0.000 HD
ENDBRANCH   9  11
ENDBRANCH   6   9
TORSDOF 2
ENDMDL
MODEL 6
REMARK VINA RESULT:      -6.2      1.187      1.709
REMARK  Name = 
REMARK  5 active torsions:
REMARK  status: ('A' for Active; 'I' for Inactive)
REMARK    1  A    between atoms: C_1  and  C_2
REMARK    2  A    between atoms: C_6  and  C_7
REMARK    3  A    between atoms: C_7  and  C_8
REMARK    4  A    between atoms: C_7  and  C_9
REMARK    5  A    between atoms: C_14  and  C_15
REMARK                            x       y       z     vdW  Elec       q    Type
REMARK                         _______ _______ _______ _____ _____    ______ ____
ROOT
ATOM      1  C   UNL     1       1.532   2.490  20.352  0.00  0.00    +0.000 C 
ATOM      2  C   UNL     1       2.281   3.457  19.470  0.00  0.00    +0.000 A 
ATOM      3  C   UNL     1       1.543   4.418  18.769  0.00  0.00    +0.000 A 
ATOM      4  C   UNL     1       2.179   5.324  17.933  0.00  0.00    +0.000 A 
ATOM      5  C   UNL     1       3.565   5.288  17.799  0.00  0.00    +0.000 A 
ATOM      6  C   UNL     1       4.358   4.349  18.496  0.00  0.00    +0.000 A 
ATOM      7  C   UNL     1       3.697   3.414  19.343  0.00  0.00    +0.000 A 
ATOM      8  C   UNL     1       4.442   2.344  20.111  0.00  0.00    +0.000 C 
ENDROOT
BRANCH   6   9
ATOM      9  C   UNL     1       5.880   4.383  18.320  0.00  0.00    +0.000 C 
ATOM     10  C   UNL     1       6.627   5.394  19.201  0.00  0.00    +0.000 C 
BRANCH   9  11
ATOM     11  C   UNL     1       6.167   4.635  16.865  0.00  0.00    +0.000 A 
ATOM     12  C   UNL     1       6.849   5.661  16.237  0.00  0.00    +0.000 A 
ATOM     13  N   UNL     1       6.894   5.322  14.914  0.00  0.00    +0.000 N 
ATOM     14  C   UNL     1       6.268   4.117  14.778  0.00  0.00    +0.000 A 
ATOM     15  N   UNL     1       5.812   3.680  15.928  0.00  0.00    +0.000 NA
ATOM     16  H   UNL     1       7.332   5.850  14.171  0.00  0.00    +0.000 HD
ENDBRANCH   9  11
ENDBRANCH   6   9
TORSDOF 2
ENDMDL
MODEL 7
REMARK VINA RESULT:      -6.2      1.461      1.901
REMARK  Name = 
REMARK  5 active torsions:
REMARK  status: ('A' for Active; 'I' for Inactive)
REMARK    1  A    between atoms: C_1  and  C_2
REMARK    2  A    between atoms: C_6  and  C_7
REMARK    3  A    between atoms: C_7  and  C_8
REMARK    4  A    between atoms: C_7  and  C_9
REMARK    5  A    between atoms: C_14  and  C_15
REMARK                            x       y       z     vdW  Elec       q    Type
REMARK                         _______ _______ _______ _____ _____    ______ ____
ROOT
ATOM      1  C   UNL     1       0.900   2.416  18.815  0.00  0.00    +0.000 C 
ATOM      2  C   UNL     1       1.896   3.516  19.077  0.00  0.00    +0.000 A 
ATOM      3  C   UNL     1       1.464   4.640  19.791  0.00  0.00    +0.000 A 
ATOM      4  C   UNL     1       2.335   5.688  20.051  0.00  0.00    +0.000 A 
ATOM      5  C   UNL     1       3.653   5.618  19.610  0.00  0.00    +0.000 A 
ATOM      6  C   UNL     1       4.145   4.501  18.899  0.00  0.00    +0.000 A 
ATOM      7  C   UNL     1       3.242   3.433  18.626  0.00  0.00    +0.000 A 
ATOM      8  C   UNL     1       3.650   2.203  17.845  0.00  0.00    +0.000 C 
ENDROOT
BRANCH   6   9
ATOM      9  C   UNL     1       5.615   4.480  18.466  0.00  0.00    +0.000 C 
ATOM     10  C   UNL     1       6.572   5.318  19.325  0.00  0.00    +0.000 C 
BRANCH   9  11
ATOM     11  C   UNL     1       5.673   4.918  17.027  0.00  0.00    +0.000 A 
ATOM     12  C   UNL     1       5.064   5.972  16.372  0.00  0.00    +0.000 A 
ATOM     13  N   UNL     1       5.560   5.955  15.099  0.00  0.00    +0.000 N 
ATOM     14  C   UNL     1       6.452   4.925  15.020  0.00  0.00    +0.000 A 
ATOM     15  N   UNL     1       6.538   4.276  16.158  0.00  0.00    +0.000 NA
ATOM     16  H   UNL     1       5.331   6.599  14.355  0.00  0.00    +0.000 HD
ENDBRANCH   9  11
ENDBRANCH   6   9
TORSDOF 2
ENDMDL
MODEL 8
REMARK VINA RESULT:      -6.2      1.186      1.340
REMARK  Name = 
REMARK  5 active torsions:
REMARK  status: ('A' for Active; 'I' for Inactive)
REMARK    1  A    between atoms: C_1  and  C_2
REMARK    2  A    between atoms: C_6  and  C_7
REMARK    3  A    between atoms: C_7  and  C_8
REMARK    4  A    between atoms: C_7  and  C_9
REMARK    5  A    between atoms: C_14  and  C_15
REMARK                            x       y       z     vdW  Elec       q    Type
REMARK                         _______ _______ _______ _____ _____    ______ ____
ROOT
ATOM      1  C   UNL     1       1.638   2.998  20.651  0.00  0.00    +0.000 C 
ATOM      2  C   UNL     1       2.519   4.037  20.003  0.00  0.00    +0.000 A 
ATOM      3  C   UNL     1       1.978   5.306  19.768  0.00  0.00    +0.000 A 
ATOM      4  C   UNL     1       2.739   6.296  19.163  0.00  0.00    +0.000 A 
ATOM      5  C   UNL     1       4.056   6.030  18.799  0.00  0.00    +0.000 A 
ATOM      6  C   UNL     1       4.655   4.772  19.029  0.00  0.00    +0.000 A 
ATOM      7  C   UNL     1       3.865   3.756  19.639  0.00  0.00    +0.000 A 
ATOM      8  C   UNL     1       4.391   2.363  19.902  0.00  0.00    +0.000 C 
ENDROOT
BRANCH   6   9
ATOM      9  C   UNL     1       6.118   4.558  18.625  0.00  0.00    +0.000 C 
ATOM     10  C   UNL     1       7.100   5.645  19.086  0.00  0.00    +0.000 C 
BRANCH   9  11
ATOM     11  C   UNL     1       6.162   4.405  17.129  0.00  0.00    +0.000 A 
ATOM     12  C   UNL     1       5.208   3.961  16.231  0.00  0.00    +0.000 A 
ATOM     13  N   UNL     1       5.754   4.137  14.991  0.00  0.00    +0.000 N 
ATOM     14  C   UNL     1       6.991   4.688  15.162  0.00  0.00    +0.000 A 
ATOM     15  N   UNL     1       7.272   4.854  16.433  0.00  0.00    +0.000 NA
ATOM     16  H   UNL     1       5.318   3.924  14.105  0.00  0.00    +0.000 HD
ENDBRANCH   9  11
ENDBRANCH   6   9
TORSDOF 2
ENDMDL
MODEL 9
REMARK VINA RESULT:      -6.2      0.884      1.176
REMARK  Name = 
REMARK  5 active torsions:
REMARK  status: ('A' for Active; 'I' for Inactive)
REMARK    1  A    between atoms: C_1  and  C_2
REMARK    2  A    between atoms: C_6  and  C_7
REMARK    3  A    between atoms: C_7  and  C_8
REMARK    4  A    between atoms: C_7  and  C_9
REMARK    5  A    between atoms: C_14  and  C_15
REMARK                            x       y       z     vdW  Elec       q    Type
REMARK                         _______ _______ _______ _____ _____    ______ ____
ROOT
ATOM      1  C   UNL     1       1.289   3.947  18.356  0.00  0.00    +0.000 C 
ATOM      2  C   UNL     1       2.525   4.762  18.071  0.00  0.00    +0.000 A 
ATOM      3  C   UNL     1       2.423   6.157  18.124  0.00  0.00    +0.000 A 
ATOM      4  C   UNL     1       3.526   6.955  17.858  0.00  0.00    +0.000 A 
ATOM      5  C   UNL     1       4.748   6.366  17.549  0.00  0.00    +0.000 A 
ATOM      6  C   UNL     1       4.910   4.964  17.497  0.00  0.00    +0.000 A 
ATOM      7  C   UNL     1       3.771   4.150  17.759  0.00  0.00    +0.000 A 
ATOM      8  C   UNL     1       3.819   2.639  17.700  0.00  0.00    +0.000 C 
ENDROOT
BRANCH   6   9
ATOM      9  C   UNL     1       6.291   4.384  17.175  0.00  0.00    +0.000 C 
ATOM     10  C   UNL     1       7.463   4.979  17.968  0.00  0.00    +0.000 C 
BRANCH   9  11
ATOM     11  C   UNL     1       6.519   4.541  15.696  0.00  0.00    +0.000 A 
ATOM     12  C   UNL     1       7.364   5.378  14.990  0.00  0.00    +0.000 A 
ATOM     13  N   UNL     1       7.235   5.015  13.678  0.00  0.00    +0.000 N 
ATOM     14  C   UNL     1       6.350   3.978  13.625  0.00  0.00    +0.000 A 
ATOM     15  N   UNL     1       5.894   3.673  14.817  0.00  0.00    +0.000 NA
ATOM     16  H   UNL     1       7.723   5.419  12.891  0.00  0.00    +0.000 HD
ENDBRANCH   9  11
ENDBRANCH   6   9
TORSDOF 2
ENDMDL
