MODEL 1
REMARK VINA RESULT:      -8.1      0.000      0.000
REMARK  Name = 
REMARK  6 active torsions:
REMARK  status: ('A' for Active; 'I' for Inactive)
REMARK    1  A    between atoms: O5*_1  and  C5*_2
REMARK    2  A    between atoms: C5*_2  and  C4*_3
REMARK    3  A    between atoms: C1*_5  and  N_6
REMARK    4  A    between atoms: C_10  and  C_11
REMARK    5  A    between atoms: C2*_21  and  O2*_22
REMARK    6  A    between atoms: C3*_23  and  O3*_24
REMARK                            x       y       z     vdW  Elec       q    Type
REMARK                         _______ _______ _______ _____ _____    ______ ____
ROOT
ATOM      1  N   UNL     1       4.177   4.297  18.077  0.00  0.00    +0.000 N 
ATOM      2  C   UNL     1       3.685   3.624  16.990  0.00  0.00    +0.000 A 
ATOM      3  N   UNL     1       4.414   3.824  15.914  0.00  0.00    +0.000 NA
ATOM      4  C   UNL     1       5.431   4.665  16.313  0.00  0.00    +0.000 A 
ATOM      5  C   UNL     1       6.546   5.217  15.673  0.00  0.00    +0.000 A 
ATOM      6  N   UNL     1       7.391   6.028  16.365  0.00  0.00    +0.000 NA
ATOM      7  C   UNL     1       7.103   6.254  17.657  0.00  0.00    +0.000 A 
ATOM      8 CL   UNL     1       8.196   7.267  18.494  0.00  0.00    +0.000 Cl
ATOM      9  N   UNL     1       6.085   5.777  18.395  0.00  0.00    +0.000 NA
ATOM     10  C   UNL     1       5.284   4.989  17.657  0.00  0.00    +0.000 A 
ENDROOT
BRANCH   1  13
ATOM     11  C4* UNL     1       1.982   2.917  20.441  0.00  0.00    +0.000 C 
ATOM     12  O4* UNL     1       3.213   2.851  19.683  0.00  0.00    +0.000 OA
ATOM     13  C1* UNL     1       3.657   4.199  19.425  0.00  0.00    +0.000 C 
ATOM     14  C2* UNL     1       2.492   5.143  19.729  0.00  0.00    +0.000 C 
ATOM     15  C3* UNL     1       1.777   4.384  20.835  0.00  0.00    +0.000 C 
BRANCH  14  16
ATOM     16  O2* UNL     1       2.932   6.427  20.175  0.00  0.00    +0.000 OA
ATOM     17  H2* UNL     1       3.851   6.524  19.834  0.00  0.00    +0.000 HD
ENDBRANCH  14  16
BRANCH  15  18
ATOM     18  O3* UNL     1       2.448   4.723  22.069  0.00  0.00    +0.000 OA
ATOM     19  H3* UNL     1       3.361   4.386  22.038  0.00  0.00    +0.000 HD
ENDBRANCH  15  18
BRANCH  11  20
ATOM     20  C5* UNL     1       0.830   2.346  19.611  0.00  0.00    +0.000 C 
BRANCH  20  21
ATOM     21  O5* UNL     1       1.342   1.605  18.511  0.00  0.00    +0.000 OA
ATOM     22  H5* UNL     1       1.177   2.133  17.709  0.00  0.00    +0.000 HD
ENDBRANCH  20  21
ENDBRANCH  11  20
ENDBRANCH   1  13
BRANCH   5  23
ATOM     23  C   UNL     1       6.866   4.898  14.298  0.00  0.00    +0.000 A 
ATOM     24  C   UNL     1       6.409   3.969  13.381  0.00  0.00    +0.000 A 
ATOM     25  C   UNL     1       7.172   4.148  12.199  0.00  0.00    +0.000 A 
ATOM     26  C   UNL     1       8.041   5.180  12.460  0.00  0.00    +0.000 A 
ATOM     27  O   UNL     1       7.861   5.643  13.722  0.00  0.00    +0.000 OA
ENDBRANCH   5  23
TORSDOF 6
ENDMDL
MODEL 2
REMARK VINA RESULT:      -7.5      2.375      4.019
REMARK  Name = 
REMARK  6 active torsions:
REMARK  status: ('A' for Active; 'I' for Inactive)
REMARK    1  A    between atoms: O5*_1  and  C5*_2
REMARK    2  A    between atoms: C5*_2  and  C4*_3
REMARK    3  A    between atoms: C1*_5  and  N_6
REMARK    4  A    between atoms: C_10  and  C_11
REMARK    5  A    between atoms: C2*_21  and  O2*_22
REMARK    6  A    between atoms: C3*_23  and  O3*_24
REMARK                            x       y       z     vdW  Elec       q    Type
REMARK                         _______ _______ _______ _____ _____    ______ ____
ROOT
ATOM      1  N   UNL     1       3.494   4.594  18.675  0.00  0.00    +0.000 N 
ATOM      2  C   UNL     1       3.888   5.342  19.753  0.00  0.00    +0.000 A 
ATOM      3  N   UNL     1       4.960   6.056  19.494  0.00  0.00    +0.000 NA
ATOM      4  C   UNL     1       5.285   5.765  18.186  0.00  0.00    +0.000 A 
ATOM      5  C   UNL     1       6.276   6.215  17.306  0.00  0.00    +0.000 A 
ATOM      6  N   UNL     1       6.327   5.724  16.038  0.00  0.00    +0.000 NA
ATOM      7  C   UNL     1       5.398   4.819  15.692  0.00  0.00    +0.000 A 
ATOM      8 CL   UNL     1       5.488   4.238  14.088  0.00  0.00    +0.000 Cl
ATOM      9  N   UNL     1       4.388   4.319  16.426  0.00  0.00    +0.000 NA
ATOM     10  C   UNL     1       4.392   4.834  17.667  0.00  0.00    +0.000 A 
ENDROOT
BRANCH   1  13
ATOM     11  C4* UNL     1       0.857   2.869  20.218  0.00  0.00    +0.000 C 
ATOM     12  O4* UNL     1       1.430   4.101  19.722  0.00  0.00    +0.000 OA
ATOM     13  C1* UNL     1       2.295   3.784  18.613  0.00  0.00    +0.000 C 
ATOM     14  C2* UNL     1       2.544   2.275  18.629  0.00  0.00    +0.000 C 
ATOM     15  C3* UNL     1       1.242   1.766  19.225  0.00  0.00    +0.000 C 
BRANCH  14  16
ATOM     16  O2* UNL     1       2.765   1.743  17.321  0.00  0.00    +0.000 OA
ATOM     17  H2* UNL     1       2.762   2.521  16.717  0.00  0.00    +0.000 HD
ENDBRANCH  14  16
BRANCH  15  18
ATOM     18  O3* UNL     1       0.303   1.656  18.132  0.00  0.00    +0.000 OA
ATOM     19  H3* UNL     1      -0.426   1.067  18.396  0.00  0.00    +0.000 HD
ENDBRANCH  15  18
BRANCH  11  20
ATOM     20  C5* UNL     1       1.352   2.601  21.641  0.00  0.00    +0.000 C 
BRANCH  20  21
ATOM     21  O5* UNL     1       2.228   3.640  22.056  0.00  0.00    +0.000 OA
ATOM     22  H5* UNL     1       1.672   4.368  22.389  0.00  0.00    +0.000 HD
ENDBRANCH  20  21
ENDBRANCH  11  20
ENDBRANCH   1  13
BRANCH   5  23
ATOM     23  C   UNL     1       7.221   7.242  17.689  0.00  0.00    +0.000 A 
ATOM     24  C   UNL     1       8.270   7.317  18.585  0.00  0.00    +0.000 A 
ATOM     25  C   UNL     1       8.779   8.639  18.515  0.00  0.00    +0.000 A 
ATOM     26  C   UNL     1       8.017   9.290  17.575  0.00  0.00    +0.000 A 
ATOM     27  O   UNL     1       7.077   8.455  17.066  0.00  0.00    +0.000 OA
ENDBRANCH   5  23
TORSDOF 6
ENDMDL
MODEL 3
REMARK VINA RESULT:      -7.3      4.838      6.313
REMARK  Name = 
REMARK  6 active torsions:
REMARK  status: ('A' for Active; 'I' for Inactive)
REMARK    1  A    between atoms: O5*_1  and  C5*_2
REMARK    2  A    between atoms: C5*_2  and  C4*_3
REMARK    3  A    between atoms: C1*_5  and  N_6
REMARK    4  A    between atoms: C_10  and  C_11
REMARK    5  A    between atoms: C2*_21  and  O2*_22
REMARK    6  A    between atoms: C3*_23  and  O3*_24
REMARK                            x       y       z     vdW  Elec       q    Type
REMARK                         _______ _______ _______ _____ _____    ______ ____
ROOT
ATOM      1  N   UNL     1       1.457   8.942  19.081  0.00  0.00    +0.000 N 
ATOM      2  C   UNL     1       1.998   9.429  17.920  0.00  0.00    +0.000 A 
ATOM      3  N   UNL     1       2.837   8.578  17.371  0.00  0.00    +0.000 NA
ATOM      4  C   UNL     1       2.847   7.484  18.209  0.00  0.00    +0.000 A 
ATOM      5  C   UNL     1       3.485   6.239  18.177  0.00  0.00    +0.000 A 
ATOM      6  N   UNL     1       3.277   5.346  19.182  0.00  0.00    +0.000 NA
ATOM      7  C   UNL     1       2.445   5.715  20.169  0.00  0.00    +0.000 A 
ATOM      8 CL   UNL     1       2.198   4.561  21.404  0.00  0.00    +0.000 Cl
ATOM      9  N   UNL     1       1.757   6.862  20.312  0.00  0.00    +0.000 NA
ATOM     10  C   UNL     1       2.007   7.705  19.295  0.00  0.00    +0.000 A 
ENDROOT
BRANCH   1  13
ATOM     11  C4* UNL     1      -0.926  11.477  19.531  0.00  0.00    +0.000 C 
ATOM     12  O4* UNL     1      -0.550  10.191  18.986  0.00  0.00    +0.000 OA
ATOM     13  C1* UNL     1       0.429   9.598  19.862  0.00  0.00    +0.000 C 
ATOM     14  C2* UNL     1       0.941  10.691  20.801  0.00  0.00    +0.000 C 
ATOM     15  C3* UNL     1      -0.286  11.580  20.919  0.00  0.00    +0.000 C 
BRANCH  14  16
ATOM     16  O2* UNL     1       1.339  10.176  22.074  0.00  0.00    +0.000 OA
ATOM     17  H2* UNL     1       0.971  10.802  22.738  0.00  0.00    +0.000 HD
ENDBRANCH  14  16
BRANCH  15  18
ATOM     18  O3* UNL     1      -1.116  11.002  21.952  0.00  0.00    +0.000 OA
ATOM     19  H3* UNL     1      -1.697  10.329  21.555  0.00  0.00    +0.000 HD
ENDBRANCH  15  18
BRANCH  11  20
ATOM     20  C5* UNL     1      -0.488  12.593  18.579  0.00  0.00    +0.000 C 
BRANCH  20  21
ATOM     21  O5* UNL     1      -1.299  12.585  17.412  0.00  0.00    +0.000 OA
ATOM     22  H5* UNL     1      -1.412  11.654  17.147  0.00  0.00    +0.000 HD
ENDBRANCH  20  21
ENDBRANCH  11  20
ENDBRANCH   1  13
BRANCH   5  23
ATOM     23  C   UNL     1       4.322   5.844  17.064  0.00  0.00    +0.000 A 
ATOM     24  C   UNL     1       5.103   6.520  16.145  0.00  0.00    +0.000 A 
ATOM     25  C   UNL     1       5.645   5.544  15.269  0.00  0.00    +0.000 A 
ATOM     26  C   UNL     1       5.170   4.332  15.710  0.00  0.00    +0.000 A 
ATOM     27  O   UNL     1       4.375   4.502  16.796  0.00  0.00    +0.000 OA
ENDBRANCH   5  23
TORSDOF 6
ENDMDL
MODEL 4
REMARK VINA RESULT:      -7.1      2.263      4.074
REMARK  Name = 
REMARK  6 active torsions:
REMARK  status: ('A' for Active; 'I' for Inactive)
REMARK    1  A    between atoms: O5*_1  and  C5*_2
REMARK    2  A    between atoms: C5*_2  and  C4*_3
REMARK    3  A    between atoms: C1*_5  and  N_6
REMARK    4  A    between atoms: C_10  and  C_11
REMARK    5  A    between atoms: C2*_21  and  O2*_22
REMARK    6  A    between atoms: C3*_23  and  O3*_24
REMARK                            x       y       z     vdW  Elec       q    Type
REMARK                         _______ _______ _______ _____ _____    ______ ____
ROOT
ATOM      1  N   UNL     1       4.322   4.546  18.326  0.00  0.00    +0.000 N 
ATOM      2  C   UNL     1       4.505   5.297  19.457  0.00  0.00    +0.000 A 
ATOM      3  N   UNL     1       5.493   6.154  19.327  0.00  0.00    +0.000 NA
ATOM      4  C   UNL     1       5.980   5.957  18.052  0.00  0.00    +0.000 A 
ATOM      5  C   UNL     1       6.984   6.566  17.289  0.00  0.00    +0.000 A 
ATOM      6  N   UNL     1       7.224   6.135  16.021  0.00  0.00    +0.000 NA
ATOM      7  C   UNL     1       6.462   5.130  15.560  0.00  0.00    +0.000 A 
ATOM      8 CL   UNL     1       6.784   4.628  13.959  0.00  0.00    +0.000 Cl
ATOM      9  N   UNL     1       5.460   4.475  16.173  0.00  0.00    +0.000 NA
ATOM     10  C   UNL     1       5.274   4.939  17.421  0.00  0.00    +0.000 A 
ENDROOT
BRANCH   1  13
ATOM     11  C4* UNL     1       1.116   3.309  19.032  0.00  0.00    +0.000 C 
ATOM     12  O4* UNL     1       1.977   4.229  18.322  0.00  0.00    +0.000 OA
ATOM     13  C1* UNL     1       3.254   3.589  18.122  0.00  0.00    +0.000 C 
ATOM     14  C2* UNL     1       3.313   2.363  19.035  0.00  0.00    +0.000 C 
ATOM     15  C3* UNL     1       1.847   1.964  19.089  0.00  0.00    +0.000 C 
BRANCH  14  16
ATOM     16  O2* UNL     1       4.122   1.317  18.494  0.00  0.00    +0.000 OA
ATOM     17  H2* UNL     1       4.873   1.214  19.122  0.00  0.00    +0.000 HD
ENDBRANCH  14  16
BRANCH  15  18
ATOM     18  O3* UNL     1       1.598   1.151  17.920  0.00  0.00    +0.000 OA
ATOM     19  H3* UNL     1       2.443   0.791  17.596  0.00  0.00    +0.000 HD
ENDBRANCH  15  18
BRANCH  11  20
ATOM     20  C5* UNL     1       0.780   3.874  20.414  0.00  0.00    +0.000 C 
BRANCH  20  21
ATOM     21  O5* UNL     1       0.848   2.844  21.392  0.00  0.00    +0.000 OA
ATOM     22  H5* UNL     1      -0.010   2.384  21.383  0.00  0.00    +0.000 HD
ENDBRANCH  20  21
ENDBRANCH  11  20
ENDBRANCH   1  13
BRANCH   5  23
ATOM     23  C   UNL     1       7.741   7.692  17.791  0.00  0.00    +0.000 A 
ATOM     24  C   UNL     1       8.615   7.887  18.844  0.00  0.00    +0.000 A 
ATOM     25  C   UNL     1       8.988   9.256  18.821  0.00  0.00    +0.000 A 
ATOM     26  C   UNL     1       8.328   9.812  17.752  0.00  0.00    +0.000 A 
ATOM     27  O   UNL     1       7.576   8.876  17.121  0.00  0.00    +0.000 OA
ENDBRANCH   5  23
TORSDOF 6
ENDMDL
MODEL 5
REMARK VINA RESULT:      -7.1      3.531      7.338
REMARK  Name = 
REMARK  6 active torsions:
REMARK  status: ('A' for Active; 'I' for Inactive)
REMARK    1  A    between atoms: O5*_1  and  C5*_2
REMARK    2  A    between atoms: C5*_2  and  C4*_3
REMARK    3  A    between atoms: C1*_5  and  N_6
REMARK    4  A    between atoms: C_10  and  C_11
REMARK    5  A    between atoms: C2*_21  and  O2*_22
REMARK    6  A    between atoms: C3*_23  and  O3*_24
REMARK                            x       y       z     vdW  Elec       q    Type
REMARK                         _______ _______ _______ _____ _____    ______ ____
ROOT
ATOM      1  N   UNL     1       3.852   6.272  17.816  0.00  0.00    +0.000 N 
ATOM      2  C   UNL     1       3.637   7.585  17.489  0.00  0.00    +0.000 A 
ATOM      3  N   UNL     1       2.818   8.176  18.330  0.00  0.00    +0.000 NA
ATOM      4  C   UNL     1       2.481   7.208  19.251  0.00  0.00    +0.000 A 
ATOM      5  C   UNL     1       1.693   7.198  20.408  0.00  0.00    +0.000 A 
ATOM      6  N   UNL     1       1.561   6.049  21.125  0.00  0.00    +0.000 NA
ATOM      7  C   UNL     1       2.215   4.966  20.676  0.00  0.00    +0.000 A 
ATOM      8 CL   UNL     1       2.035   3.549  21.613  0.00  0.00    +0.000 Cl
ATOM      9  N   UNL     1       3.013   4.844  19.601  0.00  0.00    +0.000 NA
ATOM     10  C   UNL     1       3.100   6.005  18.931  0.00  0.00    +0.000 A 
ENDROOT
BRANCH   1  13
ATOM     11  C4* UNL     1       6.884   4.511  17.678  0.00  0.00    +0.000 C 
ATOM     12  O4* UNL     1       5.508   4.609  18.116  0.00  0.00    +0.000 OA
ATOM     13  C1* UNL     1       4.779   5.385  17.144  0.00  0.00    +0.000 C 
ATOM     14  C2* UNL     1       5.797   6.088  16.245  0.00  0.00    +0.000 C 
ATOM     15  C3* UNL     1       6.945   5.091  16.261  0.00  0.00    +0.000 C 
BRANCH  14  16
ATOM     16  O2* UNL     1       5.304   6.297  14.920  0.00  0.00    +0.000 OA
ATOM     17  H2* UNL     1       4.936   5.430  14.636  0.00  0.00    +0.000 HD
ENDBRANCH  14  16
BRANCH  15  18
ATOM     18  O3* UNL     1       6.648   4.104  15.248  0.00  0.00    +0.000 OA
ATOM     19  H3* UNL     1       7.402   4.039  14.635  0.00  0.00    +0.000 HD
ENDBRANCH  15  18
BRANCH  11  20
ATOM     20  C5* UNL     1       7.797   5.237  18.669  0.00  0.00    +0.000 C 
BRANCH  20  21
ATOM     21  O5* UNL     1       7.125   5.421  19.908  0.00  0.00    +0.000 OA
ATOM     22  H5* UNL     1       6.527   6.183  19.798  0.00  0.00    +0.000 HD
ENDBRANCH  20  21
ENDBRANCH  11  20
ENDBRANCH   1  13
BRANCH   5  23
ATOM     23  C   UNL     1       1.057   8.400  20.904  0.00  0.00    +0.000 A 
ATOM     24  C   UNL     1       0.909   8.982  22.148  0.00  0.00    +0.000 A 
ATOM     25  C   UNL     1       0.131  10.154  21.964  0.00  0.00    +0.000 A 
ATOM     26  C   UNL     1      -0.142  10.222  20.620  0.00  0.00    +0.000 A 
ATOM     27  O   UNL     1       0.417   9.171  19.969  0.00  0.00    +0.000 OA
ENDBRANCH   5  23
TORSDOF 6
ENDMDL
MODEL 6
REMARK VINA RESULT:      -7.0      4.157      5.750
REMARK  Name = 
REMARK  6 active torsions:
REMARK  status: ('A' for Active; 'I' for Inactive)
REMARK    1  A    between atoms: O5*_1  and  C5*_2
REMARK    2  A    between atoms: C5*_2  and  C4*_3
REMARK    3  A    between atoms: C1*_5  and  N_6
REMARK    4  A    between atoms: C_10  and  C_11
REMARK    5  A    between atoms: C2*_21  and  O2*_22
REMARK    6  A    between atoms: C3*_23  and  O3*_24
REMARK                            x       y       z     vdW  Elec       q    Type
REMARK                         _______ _______ _______ _____ _____    ______ ____
ROOT
ATOM      1  N   UNL     1       2.032   8.111  19.140  0.00  0.00    +0.000 N 
ATOM      2  C   UNL     1       2.702   8.519  18.017  0.00  0.00    +0.000 A 
ATOM      3  N   UNL     1       3.504   7.586  17.553  0.00  0.00    +0.000 NA
ATOM      4  C   UNL     1       3.354   6.518  18.411  0.00  0.00    +0.000 A 
ATOM      5  C   UNL     1       3.884   5.223  18.455  0.00  0.00    +0.000 A 
ATOM      6  N   UNL     1       3.522   4.378  19.458  0.00  0.00    +0.000 NA
ATOM      7  C   UNL     1       2.651   4.843  20.368  0.00  0.00    +0.000 A 
ATOM      8 CL   UNL     1       2.211   3.746  21.602  0.00  0.00    +0.000 Cl
ATOM      9  N   UNL     1       2.055   6.046  20.433  0.00  0.00    +0.000 NA
ATOM     10  C   UNL     1       2.456   6.838  19.422  0.00  0.00    +0.000 A 
ENDROOT
BRANCH   1  13
ATOM     11  C4* UNL     1       0.303  11.102  19.748  0.00  0.00    +0.000 C 
ATOM     12  O4* UNL     1       0.504   9.908  18.957  0.00  0.00    +0.000 OA
ATOM     13  C1* UNL     1       1.007   8.871  19.824  0.00  0.00    +0.000 C 
ATOM     14  C2* UNL     1       1.463   9.530  21.127  0.00  0.00    +0.000 C 
ATOM     15  C3* UNL     1       0.506  10.708  21.214  0.00  0.00    +0.000 C 
BRANCH  14  16
ATOM     16  O2* UNL     1       1.329   8.661  22.254  0.00  0.00    +0.000 OA
ATOM     17  H2* UNL     1       0.769   9.151  22.898  0.00  0.00    +0.000 HD
ENDBRANCH  14  16
BRANCH  15  18
ATOM     18  O3* UNL     1      -0.706  10.210  21.824  0.00  0.00    +0.000 OA
ATOM     19  H3* UNL     1      -1.066  10.891  22.420  0.00  0.00    +0.000 HD
ENDBRANCH  15  18
BRANCH  11  20
ATOM     20  C5* UNL     1       1.259  12.202  19.280  0.00  0.00    +0.000 C 
BRANCH  20  21
ATOM     21  O5* UNL     1       1.797  11.872  18.006  0.00  0.00    +0.000 OA
ATOM     22  H5* UNL     1       2.088  10.943  18.051  0.00  0.00    +0.000 HD
ENDBRANCH  20  21
ENDBRANCH  11  20
ENDBRANCH   1  13
BRANCH   5  23
ATOM     23  C   UNL     1       4.768   4.730  17.420  0.00  0.00    +0.000 A 
ATOM     24  C   UNL     1       4.598   3.992  16.263  0.00  0.00    +0.000 A 
ATOM     25  C   UNL     1       5.888   3.803  15.703  0.00  0.00    +0.000 A 
ATOM     26  C   UNL     1       6.765   4.443  16.544  0.00  0.00    +0.000 A 
ATOM     27  O   UNL     1       6.100   5.010  17.581  0.00  0.00    +0.000 OA
ENDBRANCH   5  23
TORSDOF 6
ENDMDL
MODEL 7
REMARK VINA RESULT:      -6.9      1.422      1.909
REMARK  Name = 
REMARK  6 active torsions:
REMARK  status: ('A' for Active; 'I' for Inactive)
REMARK    1  A    between atoms: O5*_1  and  C5*_2
REMARK    2  A    between atoms: C5*_2  and  C4*_3
REMARK    3  A    between atoms: C1*_5  and  N_6
REMARK    4  A    between atoms: C_10  and  C_11
REMARK    5  A    between atoms: C2*_21  and  O2*_22
REMARK    6  A    between atoms: C3*_23  and  O3*_24
REMARK                            x       y       z     vdW  Elec       q    Type
REMARK                         _______ _______ _______ _____ _____    ______ ____
ROOT
ATOM      1  N   UNL     1       4.319   4.027  18.121  0.00  0.00    +0.000 N 
ATOM      2  C   UNL     1       3.834   3.349  17.034  0.00  0.00    +0.000 A 
ATOM      3  N   UNL     1       4.515   3.615  15.941  0.00  0.00    +0.000 NA
ATOM      4  C   UNL     1       5.492   4.507  16.329  0.00  0.00    +0.000 A 
ATOM      5  C   UNL     1       6.552   5.138  15.668  0.00  0.00    +0.000 A 
ATOM      6  N   UNL     1       7.368   5.984  16.353  0.00  0.00    +0.000 NA
ATOM      7  C   UNL     1       7.109   6.165  17.658  0.00  0.00    +0.000 A 
ATOM      8 CL   UNL     1       8.165   7.223  18.485  0.00  0.00    +0.000 Cl
ATOM      9  N   UNL     1       6.145   5.612  18.415  0.00  0.00    +0.000 NA
ATOM     10  C   UNL     1       5.368   4.793  17.684  0.00  0.00    +0.000 A 
ENDROOT
BRANCH   1  13
ATOM     11  C4* UNL     1       4.368   2.403  21.231  0.00  0.00    +0.000 C 
ATOM     12  O4* UNL     1       4.917   3.381  20.318  0.00  0.00    +0.000 OA
ATOM     13  C1* UNL     1       3.848   3.869  19.482  0.00  0.00    +0.000 C 
ATOM     14  C2* UNL     1       2.659   2.921  19.640  0.00  0.00    +0.000 C 
ATOM     15  C3* UNL     1       2.844   2.449  21.073  0.00  0.00    +0.000 C 
BRANCH  14  16
ATOM     16  O2* UNL     1       1.405   3.583  19.464  0.00  0.00    +0.000 OA
ATOM     17  H2* UNL     1       0.871   2.987  18.890  0.00  0.00    +0.000 HD
ENDBRANCH  14  16
BRANCH  15  18
ATOM     18  O3* UNL     1       2.232   3.448  21.918  0.00  0.00    +0.000 OA
ATOM     19  H3* UNL     1       2.756   3.541  22.734  0.00  0.00    +0.000 HD
ENDBRANCH  15  18
BRANCH  11  20
ATOM     20  C5* UNL     1       4.966   1.025  20.938  0.00  0.00    +0.000 C 
BRANCH  20  21
ATOM     21  O5* UNL     1       5.958   0.708  21.905  0.00  0.00    +0.000 OA
ATOM     22  H5* UNL     1       5.505   0.624  22.763  0.00  0.00    +0.000 HD
ENDBRANCH  20  21
ENDBRANCH  11  20
ENDBRANCH   1  13
BRANCH   5  23
ATOM     23  C   UNL     1       6.846   4.868  14.277  0.00  0.00    +0.000 A 
ATOM     24  C   UNL     1       6.376   3.969  13.338  0.00  0.00    +0.000 A 
ATOM     25  C   UNL     1       7.115   4.192  12.148  0.00  0.00    +0.000 A 
ATOM     26  C   UNL     1       7.984   5.219  12.427  0.00  0.00    +0.000 A 
ATOM     27  O   UNL     1       7.827   5.637  13.708  0.00  0.00    +0.000 OA
ENDBRANCH   5  23
TORSDOF 6
ENDMDL
MODEL 8
REMARK VINA RESULT:      -6.8      5.214      7.366
REMARK  Name = 
REMARK  6 active torsions:
REMARK  status: ('A' for Active; 'I' for Inactive)
REMARK    1  A    between atoms: O5*_1  and  C5*_2
REMARK    2  A    between atoms: C5*_2  and  C4*_3
REMARK    3  A    between atoms: C1*_5  and  N_6
REMARK    4  A    between atoms: C_10  and  C_11
REMARK    5  A    between atoms: C2*_21  and  O2*_22
REMARK    6  A    between atoms: C3*_23  and  O3*_24
REMARK                            x       y       z     vdW  Elec       q    Type
REMARK                         _______ _______ _______ _____ _____    ______ ____
ROOT
ATOM      1  N   UNL     1       2.213   7.251  18.822  0.00  0.00    +0.000 N 
ATOM      2  C   UNL     1       2.549   7.907  17.668  0.00  0.00    +0.000 A 
ATOM      3  N   UNL     1       2.230   9.182  17.713  0.00  0.00    +0.000 NA
ATOM      4  C   UNL     1       1.660   9.371  18.953  0.00  0.00    +0.000 A 
ATOM      5  C   UNL     1       1.155  10.486  19.634  0.00  0.00    +0.000 A 
ATOM      6  N   UNL     1       0.652  10.341  20.889  0.00  0.00    +0.000 NA
ATOM      7  C   UNL     1       0.674   9.108  21.421  0.00  0.00    +0.000 A 
ATOM      8 CL   UNL     1       0.046   8.971  23.004  0.00  0.00    +0.000 Cl
ATOM      9  N   UNL     1       1.142   7.965  20.890  0.00  0.00    +0.000 NA
ATOM     10  C   UNL     1       1.620   8.169  19.650  0.00  0.00    +0.000 A 
ENDROOT
BRANCH   1  13
ATOM     11  C4* UNL     1       4.511   4.649  19.325  0.00  0.00    +0.000 C 
ATOM     12  O4* UNL     1       3.776   5.788  19.829  0.00  0.00    +0.000 OA
ATOM     13  C1* UNL     1       2.524   5.868  19.117  0.00  0.00    +0.000 C 
ATOM     14  C2* UNL     1       2.623   4.960  17.890  0.00  0.00    +0.000 C 
ATOM     15  C3* UNL     1       3.566   3.880  18.396  0.00  0.00    +0.000 C 
BRANCH  14  16
ATOM     16  O2* UNL     1       1.358   4.416  17.510  0.00  0.00    +0.000 OA
ATOM     17  H2* UNL     1       0.687   5.060  17.831  0.00  0.00    +0.000 HD
ENDBRANCH  14  16
BRANCH  15  18
ATOM     18  O3* UNL     1       2.751   2.923  19.108  0.00  0.00    +0.000 OA
ATOM     19  H3* UNL     1       2.266   2.375  18.465  0.00  0.00    +0.000 HD
ENDBRANCH  15  18
BRANCH  11  20
ATOM     20  C5* UNL     1       5.790   5.123  18.630  0.00  0.00    +0.000 C 
BRANCH  20  21
ATOM     21  O5* UNL     1       6.572   4.005  18.232  0.00  0.00    +0.000 OA
ATOM     22  H5* UNL     1       7.476   4.156  18.563  0.00  0.00    +0.000 HD
ENDBRANCH  20  21
ENDBRANCH  11  20
ENDBRANCH   1  13
BRANCH   5  23
ATOM     23  C   UNL     1       1.210  11.813  19.059  0.00  0.00    +0.000 A 
ATOM     24  C   UNL     1       2.224  12.652  18.638  0.00  0.00    +0.000 A 
ATOM     25  C   UNL     1       1.610  13.856  18.204  0.00  0.00    +0.000 A 
ATOM     26  C   UNL     1       0.259  13.677  18.377  0.00  0.00    +0.000 A 
ATOM     27  O   UNL     1       0.006  12.446  18.888  0.00  0.00    +0.000 OA
ENDBRANCH   5  23
TORSDOF 6
ENDMDL
MODEL 9
REMARK VINA RESULT:      -6.7      5.219      7.403
REMARK  Name = 
REMARK  6 active torsions:
REMARK  status: ('A' for Active; 'I' for Inactive)
REMARK    1  A    between atoms: O5*_1  and  C5*_2
REMARK    2  A    between atoms: C5*_2  and  C4*_3
REMARK    3  A    between atoms: C1*_5  and  N_6
REMARK    4  A    between atoms: C_10  and  C_11
REMARK    5  A    between atoms: C2*_21  and  O2*_22
REMARK    6  A    between atoms: C3*_23  and  O3*_24
REMARK                            x       y       z     vdW  Elec       q    Type
REMARK                         _______ _______ _______ _____ _____    ______ ____
ROOT
ATOM      1  N   UNL     1       2.235   7.245  19.470  0.00  0.00    +0.000 N 
ATOM      2  C   UNL     1       2.413   7.781  18.223  0.00  0.00    +0.000 A 
ATOM      3  N   UNL     1       1.955   9.011  18.143  0.00  0.00    +0.000 NA
ATOM      4  C   UNL     1       1.453   9.294  19.396  0.00  0.00    +0.000 A 
ATOM      5  C   UNL     1       0.872  10.426  19.979  0.00  0.00    +0.000 A 
ATOM      6  N   UNL     1       0.476  10.389  21.279  0.00  0.00    +0.000 NA
ATOM      7  C   UNL     1       0.675   9.242  21.949  0.00  0.00    +0.000 A 
ATOM      8 CL   UNL     1       0.178   9.241  23.584  0.00  0.00    +0.000 Cl
ATOM      9  N   UNL     1       1.235   8.097  21.521  0.00  0.00    +0.000 NA
ATOM     10  C   UNL     1       1.599   8.192  20.230  0.00  0.00    +0.000 A 
ENDROOT
BRANCH   1  13
ATOM     11  C4* UNL     1       4.164   4.356  18.972  0.00  0.00    +0.000 C 
ATOM     12  O4* UNL     1       4.056   5.735  19.396  0.00  0.00    +0.000 OA
ATOM     13  C1* UNL     1       2.722   5.950  19.900  0.00  0.00    +0.000 C 
ATOM     14  C2* UNL     1       1.859   4.766  19.462  0.00  0.00    +0.000 C 
ATOM     15  C3* UNL     1       2.886   3.646  19.431  0.00  0.00    +0.000 C 
BRANCH  14  16
ATOM     16  O2* UNL     1       0.806   4.486  20.387  0.00  0.00    +0.000 OA
ATOM     17  H2* UNL     1       1.080   4.908  21.233  0.00  0.00    +0.000 HD
ENDBRANCH  14  16
BRANCH  15  18
ATOM     18  O3* UNL     1       2.989   3.143  20.782  0.00  0.00    +0.000 OA
ATOM     19  H3* UNL     1       3.864   2.731  20.903  0.00  0.00    +0.000 HD
ENDBRANCH  15  18
BRANCH  11  20
ATOM     20  C5* UNL     1       4.381   4.293  17.458  0.00  0.00    +0.000 C 
BRANCH  20  21
ATOM     21  O5* UNL     1       5.640   3.701  17.170  0.00  0.00    +0.000 OA
ATOM     22  H5* UNL     1       5.892   3.172  17.949  0.00  0.00    +0.000 HD
ENDBRANCH  20  21
ENDBRANCH  11  20
ENDBRANCH   1  13
BRANCH   5  23
ATOM     23  C   UNL     1       0.735  11.669  19.249  0.00  0.00    +0.000 A 
ATOM     24  C   UNL     1       1.601  12.676  18.867  0.00  0.00    +0.000 A 
ATOM     25  C   UNL     1       0.823  13.657  18.200  0.00  0.00    +0.000 A 
ATOM     26  C   UNL     1      -0.468  13.186  18.205  0.00  0.00    +0.000 A 
ATOM     27  O   UNL     1      -0.532  11.985  18.832  0.00  0.00    +0.000 OA
ENDBRANCH   5  23
TORSDOF 6
ENDMDL
