MODEL 1
REMARK VINA RESULT:      -6.7      0.000      0.000
REMARK  Name = 
REMARK  7 active torsions:
REMARK  status: ('A' for Active; 'I' for Inactive)
REMARK    1  A    between atoms: C_1  and  C_2
REMARK    2  A    between atoms: C_7  and  N_8
REMARK    3  A    between atoms: C_9  and  C_11
REMARK    4  A    between atoms: C_11  and  N_12
REMARK    5  A    between atoms: C_11  and  C_13
REMARK    6  A    between atoms: C_13  and  C_14
REMARK    7  A    between atoms: C_13  and  C_15
REMARK                            x       y       z     vdW  Elec       q    Type
REMARK                         _______ _______ _______ _____ _____    ______ ____
ROOT
ATOM      1  N   UNL     1       5.525   3.725  17.868  0.00  0.00    +0.000 N 
ATOM      2  C   UNL     1       4.298   4.093  18.401  0.00  0.00    +0.000 C 
ATOM      3  O   UNL     1       3.445   4.777  17.836  0.00  0.00    +0.000 OA
ATOM      4  H   UNL     1       6.048   3.019  18.368  0.00  0.00    +0.000 HD
ENDROOT
BRANCH   1  11
ATOM      5  C   UNL     1       7.403   6.053  17.759  0.00  0.00    +0.000 C 
ATOM      6  C   UNL     1       6.951   5.274  16.556  0.00  0.00    +0.000 A 
ATOM      7  N   UNL     1       7.476   5.734  15.383  0.00  0.00    +0.000 NA
ATOM      8  C   UNL     1       7.128   5.104  14.243  0.00  0.00    +0.000 A 
ATOM      9  C   UNL     1       6.272   4.031  14.208  0.00  0.00    +0.000 A 
ATOM     10  C   UNL     1       5.737   3.577  15.412  0.00  0.00    +0.000 A 
ATOM     11  C   UNL     1       6.067   4.183  16.629  0.00  0.00    +0.000 A 
ENDBRANCH   1  11
BRANCH   2  12
ATOM     12  C   UNL     1       3.975   3.486  19.795  0.00  0.00    +0.000 C 
BRANCH  12  13
ATOM     13  N   UNL     1       4.768   2.241  19.891  0.00  0.00    +0.000 NA
ATOM     14  H   UNL     1       4.109   1.455  19.903  0.00  0.00    +0.000 HD
ATOM     15  H   UNL     1       5.243   2.195  20.789  0.00  0.00    +0.000 HD
ENDBRANCH  12  13
BRANCH  12  16
ATOM     16  C   UNL     1       2.442   3.228  19.927  0.00  0.00    +0.000 C 
ATOM     17  C   UNL     1       1.956   1.992  19.157  0.00  0.00    +0.000 C 
ATOM     18  C   UNL     1       2.041   3.062  21.403  0.00  0.00    +0.000 C 
ENDBRANCH  12  16
ENDBRANCH   2  12
TORSDOF 4
ENDMDL
MODEL 2
REMARK VINA RESULT:      -6.6      1.545      2.663
REMARK  Name = 
REMARK  7 active torsions:
REMARK  status: ('A' for Active; 'I' for Inactive)
REMARK    1  A    between atoms: C_1  and  C_2
REMARK    2  A    between atoms: C_7  and  N_8
REMARK    3  A    between atoms: C_9  and  C_11
REMARK    4  A    between atoms: C_11  and  N_12
REMARK    5  A    between atoms: C_11  and  C_13
REMARK    6  A    between atoms: C_13  and  C_14
REMARK    7  A    between atoms: C_13  and  C_15
REMARK                            x       y       z     vdW  Elec       q    Type
REMARK                         _______ _______ _______ _____ _____    ______ ____
ROOT
ATOM      1  N   UNL     1       5.601   3.844  18.832  0.00  0.00    +0.000 N 
ATOM      2  C   UNL     1       4.404   3.864  19.532  0.00  0.00    +0.000 C 
ATOM      3  O   UNL     1       3.702   4.855  19.730  0.00  0.00    +0.000 OA
ATOM      4  H   UNL     1       5.979   2.937  18.596  0.00  0.00    +0.000 HD
ENDROOT
BRANCH   1  11
ATOM      5  C   UNL     1       5.070   4.909  16.086  0.00  0.00    +0.000 C 
ATOM      6  C   UNL     1       6.058   5.505  17.046  0.00  0.00    +0.000 A 
ATOM      7  N   UNL     1       6.713   6.594  16.546  0.00  0.00    +0.000 NA
ATOM      8  C   UNL     1       7.625   7.201  17.331  0.00  0.00    +0.000 A 
ATOM      9  C   UNL     1       7.927   6.774  18.602  0.00  0.00    +0.000 A 
ATOM     10  C   UNL     1       7.258   5.657  19.097  0.00  0.00    +0.000 A 
ATOM     11  C   UNL     1       6.294   4.989  18.333  0.00  0.00    +0.000 A 
ENDBRANCH   1  11
BRANCH   2  12
ATOM     12  C   UNL     1       3.894   2.474  20.007  0.00  0.00    +0.000 C 
BRANCH  12  13
ATOM     13  N   UNL     1       5.030   1.542  19.833  0.00  0.00    +0.000 NA
ATOM     14  H   UNL     1       4.755   0.640  20.238  0.00  0.00    +0.000 HD
ATOM     15  H   UNL     1       5.824   1.847  20.391  0.00  0.00    +0.000 HD
ENDBRANCH  12  13
BRANCH  12  16
ATOM     16  C   UNL     1       2.643   2.049  19.180  0.00  0.00    +0.000 C 
ATOM     17  C   UNL     1       1.335   2.689  19.666  0.00  0.00    +0.000 C 
ATOM     18  C   UNL     1       2.825   2.400  17.693  0.00  0.00    +0.000 C 
ENDBRANCH  12  16
ENDBRANCH   2  12
TORSDOF 4
ENDMDL
MODEL 3
REMARK VINA RESULT:      -6.5      1.916      5.751
REMARK  Name = 
REMARK  7 active torsions:
REMARK  status: ('A' for Active; 'I' for Inactive)
REMARK    1  A    between atoms: C_1  and  C_2
REMARK    2  A    between atoms: C_7  and  N_8
REMARK    3  A    between atoms: C_9  and  C_11
REMARK    4  A    between atoms: C_11  and  N_12
REMARK    5  A    between atoms: C_11  and  C_13
REMARK    6  A    between atoms: C_13  and  C_14
REMARK    7  A    between atoms: C_13  and  C_15
REMARK                            x       y       z     vdW  Elec       q    Type
REMARK                         _______ _______ _______ _____ _____    ______ ____
ROOT
ATOM      1  N   UNL     1       4.615   3.617  18.290  0.00  0.00    +0.000 N 
ATOM      2  C   UNL     1       5.745   4.396  18.485  0.00  0.00    +0.000 C 
ATOM      3  O   UNL     1       6.071   4.940  19.540  0.00  0.00    +0.000 OA
ATOM      4  H   UNL     1       4.564   3.091  17.428  0.00  0.00    +0.000 HD
ENDROOT
BRANCH   1  11
ATOM      5  C   UNL     1       1.889   4.778  17.863  0.00  0.00    +0.000 C 
ATOM      6  C   UNL     1       2.279   3.953  19.056  0.00  0.00    +0.000 A 
ATOM      7  N   UNL     1       1.264   3.782  19.953  0.00  0.00    +0.000 NA
ATOM      8  C   UNL     1       1.514   3.057  21.062  0.00  0.00    +0.000 A 
ATOM      9  C   UNL     1       2.736   2.493  21.332  0.00  0.00    +0.000 A 
ATOM     10  C   UNL     1       3.766   2.683  20.413  0.00  0.00    +0.000 A 
ATOM     11  C   UNL     1       3.566   3.417  19.239  0.00  0.00    +0.000 A 
ENDBRANCH   1  11
BRANCH   2  12
ATOM     12  C   UNL     1       6.705   4.484  17.264  0.00  0.00    +0.000 C 
BRANCH  12  13
ATOM     13  N   UNL     1       8.055   4.179  17.785  0.00  0.00    +0.000 NA
ATOM     14  H   UNL     1       7.939   3.614  18.633  0.00  0.00    +0.000 HD
ATOM     15  H   UNL     1       8.512   5.031  18.100  0.00  0.00    +0.000 HD
ENDBRANCH  12  13
BRANCH  12  16
ATOM     16  C   UNL     1       6.622   5.901  16.617  0.00  0.00    +0.000 C 
ATOM     17  C   UNL     1       5.190   6.437  16.488  0.00  0.00    +0.000 C 
ATOM     18  C   UNL     1       7.446   6.919  17.423  0.00  0.00    +0.000 C 
ENDBRANCH  12  16
ENDBRANCH   2  12
TORSDOF 4
ENDMDL
MODEL 4
REMARK VINA RESULT:      -6.5      1.894      5.411
REMARK  Name = 
REMARK  7 active torsions:
REMARK  status: ('A' for Active; 'I' for Inactive)
REMARK    1  A    between atoms: C_1  and  C_2
REMARK    2  A    between atoms: C_7  and  N_8
REMARK    3  A    between atoms: C_9  and  C_11
REMARK    4  A    between atoms: C_11  and  N_12
REMARK    5  A    between atoms: C_11  and  C_13
REMARK    6  A    between atoms: C_13  and  C_14
REMARK    7  A    between atoms: C_13  and  C_15
REMARK                            x       y       z     vdW  Elec       q    Type
REMARK                         _______ _______ _______ _____ _____    ______ ____
ROOT
ATOM      1  N   UNL     1       4.901   4.608  18.126  0.00  0.00    +0.000 N 
ATOM      2  C   UNL     1       5.680   4.436  16.991  0.00  0.00    +0.000 C 
ATOM      3  O   UNL     1       5.339   3.846  15.967  0.00  0.00    +0.000 OA
ATOM      4  H   UNL     1       5.240   5.260  18.820  0.00  0.00    +0.000 HD
ENDROOT
BRANCH   1  11
ATOM      5  C   UNL     1       4.568   2.271  19.967  0.00  0.00    +0.000 C 
ATOM      6  C   UNL     1       3.442   2.922  19.216  0.00  0.00    +0.000 A 
ATOM      7  N   UNL     1       2.229   2.340  19.443  0.00  0.00    +0.000 NA
ATOM      8  C   UNL     1       1.153   2.850  18.812  0.00  0.00    +0.000 A 
ATOM      9  C   UNL     1       1.221   3.918  17.951  0.00  0.00    +0.000 A 
ATOM     10  C   UNL     1       2.467   4.498  17.722  0.00  0.00    +0.000 A 
ATOM     11  C   UNL     1       3.620   4.020  18.354  0.00  0.00    +0.000 A 
ENDBRANCH   1  11
BRANCH   2  12
ATOM     12  C   UNL     1       7.062   5.150  17.025  0.00  0.00    +0.000 C 
BRANCH  12  13
ATOM     13  N   UNL     1       8.063   4.088  17.263  0.00  0.00    +0.000 NA
ATOM     14  H   UNL     1       7.561   3.194  17.308  0.00  0.00    +0.000 HD
ATOM     15  H   UNL     1       8.481   4.198  18.183  0.00  0.00    +0.000 HD
ENDBRANCH  12  13
BRANCH  12  16
ATOM     16  C   UNL     1       7.075   6.242  18.138  0.00  0.00    +0.000 C 
ATOM     17  C   UNL     1       7.915   5.862  19.365  0.00  0.00    +0.000 C 
ATOM     18  C   UNL     1       7.606   7.577  17.587  0.00  0.00    +0.000 C 
ENDBRANCH  12  16
ENDBRANCH   2  12
TORSDOF 4
ENDMDL
MODEL 5
REMARK VINA RESULT:      -6.5      1.963      5.335
REMARK  Name = 
REMARK  7 active torsions:
REMARK  status: ('A' for Active; 'I' for Inactive)
REMARK    1  A    between atoms: C_1  and  C_2
REMARK    2  A    between atoms: C_7  and  N_8
REMARK    3  A    between atoms: C_9  and  C_11
REMARK    4  A    between atoms: C_11  and  N_12
REMARK    5  A    between atoms: C_11  and  C_13
REMARK    6  A    between atoms: C_13  and  C_14
REMARK    7  A    between atoms: C_13  and  C_15
REMARK                            x       y       z     vdW  Elec       q    Type
REMARK                         _______ _______ _______ _____ _____    ______ ____
ROOT
ATOM      1  N   UNL     1       5.034   4.441  17.988  0.00  0.00    +0.000 N 
ATOM      2  C   UNL     1       5.617   4.774  16.774  0.00  0.00    +0.000 C 
ATOM      3  O   UNL     1       5.071   4.713  15.673  0.00  0.00    +0.000 OA
ATOM      4  H   UNL     1       5.535   4.706  18.825  0.00  0.00    +0.000 HD
ENDROOT
BRANCH   1  11
ATOM      5  C   UNL     1       2.569   6.117  18.256  0.00  0.00    +0.000 C 
ATOM      6  C   UNL     1       2.577   4.616  18.286  0.00  0.00    +0.000 A 
ATOM      7  N   UNL     1       1.338   4.069  18.458  0.00  0.00    +0.000 NA
ATOM      8  C   UNL     1       1.238   2.726  18.501  0.00  0.00    +0.000 A 
ATOM      9  C   UNL     1       2.320   1.887  18.388  0.00  0.00    +0.000 A 
ATOM     10  C   UNL     1       3.580   2.458  18.221  0.00  0.00    +0.000 A 
ATOM     11  C   UNL     1       3.747   3.846  18.159  0.00  0.00    +0.000 A 
ENDBRANCH   1  11
BRANCH   2  12
ATOM     12  C   UNL     1       7.053   5.362  16.871  0.00  0.00    +0.000 C 
BRANCH  12  13
ATOM     13  N   UNL     1       7.952   4.208  17.091  0.00  0.00    +0.000 NA
ATOM     14  H   UNL     1       7.647   3.738  17.951  0.00  0.00    +0.000 HD
ATOM     15  H   UNL     1       8.895   4.530  17.292  0.00  0.00    +0.000 HD
ENDBRANCH  12  13
BRANCH  12  16
ATOM     16  C   UNL     1       7.130   6.406  18.026  0.00  0.00    +0.000 C 
ATOM     17  C   UNL     1       7.992   5.952  19.212  0.00  0.00    +0.000 C 
ATOM     18  C   UNL     1       7.684   7.747  17.515  0.00  0.00    +0.000 C 
ENDBRANCH  12  16
ENDBRANCH   2  12
TORSDOF 4
ENDMDL
MODEL 6
REMARK VINA RESULT:      -6.5      1.737      5.879
REMARK  Name = 
REMARK  7 active torsions:
REMARK  status: ('A' for Active; 'I' for Inactive)
REMARK    1  A    between atoms: C_1  and  C_2
REMARK    2  A    between atoms: C_7  and  N_8
REMARK    3  A    between atoms: C_9  and  C_11
REMARK    4  A    between atoms: C_11  and  N_12
REMARK    5  A    between atoms: C_11  and  C_13
REMARK    6  A    between atoms: C_13  and  C_14
REMARK    7  A    between atoms: C_13  and  C_15
REMARK                            x       y       z     vdW  Elec       q    Type
REMARK                         _______ _______ _______ _____ _____    ______ ____
ROOT
ATOM      1  N   UNL     1       4.368   3.276  18.136  0.00  0.00    +0.000 N 
ATOM      2  C   UNL     1       5.359   4.241  18.028  0.00  0.00    +0.000 C 
ATOM      3  O   UNL     1       5.593   5.126  18.850  0.00  0.00    +0.000 OA
ATOM      4  H   UNL     1       4.402   2.509  17.479  0.00  0.00    +0.000 HD
ENDROOT
BRANCH   1  11
ATOM      5  C   UNL     1       1.630   4.395  17.682  0.00  0.00    +0.000 C 
ATOM      6  C   UNL     1       2.073   3.739  18.958  0.00  0.00    +0.000 A 
ATOM      7  N   UNL     1       1.103   3.704  19.917  0.00  0.00    +0.000 NA
ATOM      8  C   UNL     1       1.403   3.137  21.103  0.00  0.00    +0.000 A 
ATOM      9  C   UNL     1       2.635   2.603  21.390  0.00  0.00    +0.000 A 
ATOM     10  C   UNL     1       3.620   2.654  20.406  0.00  0.00    +0.000 A 
ATOM     11  C   UNL     1       3.366   3.220  19.152  0.00  0.00    +0.000 A 
ENDBRANCH   1  11
BRANCH   2  12
ATOM     12  C   UNL     1       6.291   4.095  16.791  0.00  0.00    +0.000 C 
BRANCH  12  13
ATOM     13  N   UNL     1       7.509   4.872  17.105  0.00  0.00    +0.000 NA
ATOM     14  H   UNL     1       7.906   4.488  17.970  0.00  0.00    +0.000 HD
ATOM     15  H   UNL     1       7.264   5.832  17.335  0.00  0.00    +0.000 HD
ENDBRANCH  12  13
BRANCH  12  16
ATOM     16  C   UNL     1       5.568   4.611  15.510  0.00  0.00    +0.000 C 
ATOM     17  C   UNL     1       5.301   6.122  15.519  0.00  0.00    +0.000 C 
ATOM     18  C   UNL     1       6.384   4.275  14.249  0.00  0.00    +0.000 C 
ENDBRANCH  12  16
ENDBRANCH   2  12
TORSDOF 4
ENDMDL
MODEL 7
REMARK VINA RESULT:      -6.4      2.032      5.734
REMARK  Name = 
REMARK  7 active torsions:
REMARK  status: ('A' for Active; 'I' for Inactive)
REMARK    1  A    between atoms: C_1  and  C_2
REMARK    2  A    between atoms: C_7  and  N_8
REMARK    3  A    between atoms: C_9  and  C_11
REMARK    4  A    between atoms: C_11  and  N_12
REMARK    5  A    between atoms: C_11  and  C_13
REMARK    6  A    between atoms: C_13  and  C_14
REMARK    7  A    between atoms: C_13  and  C_15
REMARK                            x       y       z     vdW  Elec       q    Type
REMARK                         _______ _______ _______ _____ _____    ______ ____
ROOT
ATOM      1  N   UNL     1       4.461   4.206  17.910  0.00  0.00    +0.000 N 
ATOM      2  C   UNL     1       5.759   4.447  18.335  0.00  0.00    +0.000 C 
ATOM      3  O   UNL     1       6.166   4.356  19.493  0.00  0.00    +0.000 OA
ATOM      4  H   UNL     1       4.308   4.146  16.913  0.00  0.00    +0.000 HD
ENDROOT
BRANCH   1  11
ATOM      5  C   UNL     1       3.566   1.405  18.469  0.00  0.00    +0.000 C 
ATOM      6  C   UNL     1       2.907   2.631  19.034  0.00  0.00    +0.000 A 
ATOM      7  N   UNL     1       1.838   2.354  19.835  0.00  0.00    +0.000 NA
ATOM      8  C   UNL     1       1.175   3.388  20.389  0.00  0.00    +0.000 A 
ATOM      9  C   UNL     1       1.521   4.701  20.181  0.00  0.00    +0.000 A 
ATOM     10  C   UNL     1       2.609   4.971  19.355  0.00  0.00    +0.000 A 
ATOM     11  C   UNL     1       3.343   3.940  18.758  0.00  0.00    +0.000 A 
ENDBRANCH   1  11
BRANCH   2  12
ATOM     12  C   UNL     1       6.776   4.763  17.202  0.00  0.00    +0.000 C 
BRANCH  12  13
ATOM     13  N   UNL     1       8.053   4.141  17.615  0.00  0.00    +0.000 NA
ATOM     14  H   UNL     1       8.564   4.829  18.179  0.00  0.00    +0.000 HD
ATOM     15  H   UNL     1       8.645   3.979  16.803  0.00  0.00    +0.000 HD
ENDBRANCH  12  13
BRANCH  12  16
ATOM     16  C   UNL     1       6.901   6.305  17.005  0.00  0.00    +0.000 C 
ATOM     17  C   UNL     1       5.554   7.040  17.028  0.00  0.00    +0.000 C 
ATOM     18  C   UNL     1       7.803   6.922  18.087  0.00  0.00    +0.000 C 
ENDBRANCH  12  16
ENDBRANCH   2  12
TORSDOF 4
ENDMDL
MODEL 8
REMARK VINA RESULT:      -6.4      0.652      1.101
REMARK  Name = 
REMARK  7 active torsions:
REMARK  status: ('A' for Active; 'I' for Inactive)
REMARK    1  A    between atoms: C_1  and  C_2
REMARK    2  A    between atoms: C_7  and  N_8
REMARK    3  A    between atoms: C_9  and  C_11
REMARK    4  A    between atoms: C_11  and  N_12
REMARK    5  A    between atoms: C_11  and  C_13
REMARK    6  A    between atoms: C_13  and  C_14
REMARK    7  A    between atoms: C_13  and  C_15
REMARK                            x       y       z     vdW  Elec       q    Type
REMARK                         _______ _______ _______ _____ _____    ______ ____
ROOT
ATOM      1  N   UNL     1       5.247   3.428  17.786  0.00  0.00    +0.000 N 
ATOM      2  C   UNL     1       4.240   4.013  18.540  0.00  0.00    +0.000 C 
ATOM      3  O   UNL     1       3.643   5.051  18.261  0.00  0.00    +0.000 OA
ATOM      4  H   UNL     1       5.524   2.490  18.041  0.00  0.00    +0.000 HD
ENDROOT
BRANCH   1  11
ATOM      5  C   UNL     1       7.639   5.214  18.001  0.00  0.00    +0.000 C 
ATOM      6  C   UNL     1       6.980   4.837  16.705  0.00  0.00    +0.000 A 
ATOM      7  N   UNL     1       7.573   5.396  15.611  0.00  0.00    +0.000 NA
ATOM      8  C   UNL     1       7.053   5.121  14.398  0.00  0.00    +0.000 A 
ATOM      9  C   UNL     1       5.958   4.313  14.214  0.00  0.00    +0.000 A 
ATOM     10  C   UNL     1       5.357   3.755  15.341  0.00  0.00    +0.000 A 
ATOM     11  C   UNL     1       5.855   3.996  16.626  0.00  0.00    +0.000 A 
ENDBRANCH   1  11
BRANCH   2  12
ATOM     12  C   UNL     1       3.794   3.200  19.789  0.00  0.00    +0.000 C 
BRANCH  12  13
ATOM     13  N   UNL     1       4.841   2.178  20.005  0.00  0.00    +0.000 NA
ATOM     14  H   UNL     1       5.734   2.670  20.120  0.00  0.00    +0.000 HD
ATOM     15  H   UNL     1       4.961   1.614  19.167  0.00  0.00    +0.000 HD
ENDBRANCH  12  13
BRANCH  12  16
ATOM     16  C   UNL     1       2.388   2.570  19.547  0.00  0.00    +0.000 C 
ATOM     17  C   UNL     1       1.226   3.467  19.993  0.00  0.00    +0.000 C 
ATOM     18  C   UNL     1       2.190   2.232  18.059  0.00  0.00    +0.000 C 
ENDBRANCH  12  16
ENDBRANCH   2  12
TORSDOF 4
ENDMDL
MODEL 9
REMARK VINA RESULT:      -6.4      2.125      5.371
REMARK  Name = 
REMARK  7 active torsions:
REMARK  status: ('A' for Active; 'I' for Inactive)
REMARK    1  A    between atoms: C_1  and  C_2
REMARK    2  A    between atoms: C_7  and  N_8
REMARK    3  A    between atoms: C_9  and  C_11
REMARK    4  A    between atoms: C_11  and  N_12
REMARK    5  A    between atoms: C_11  and  C_13
REMARK    6  A    between atoms: C_13  and  C_14
REMARK    7  A    between atoms: C_13  and  C_15
REMARK                            x       y       z     vdW  Elec       q    Type
REMARK                         _______ _______ _______ _____ _____    ______ ____
ROOT
ATOM      1  N   UNL     1       4.682   3.970  17.440  0.00  0.00    +0.000 N 
ATOM      2  C   UNL     1       5.830   4.376  18.104  0.00  0.00    +0.000 C 
ATOM      3  O   UNL     1       5.998   4.367  19.323  0.00  0.00    +0.000 OA
ATOM      4  H   UNL     1       4.745   3.864  16.437  0.00  0.00    +0.000 HD
ENDROOT
BRANCH   1  11
ATOM      5  C   UNL     1       2.621   6.017  18.164  0.00  0.00    +0.000 C 
ATOM      6  C   UNL     1       2.469   4.542  18.406  0.00  0.00    +0.000 A 
ATOM      7  N   UNL     1       1.288   4.209  19.004  0.00  0.00    +0.000 NA
ATOM      8  C   UNL     1       1.056   2.908  19.267  0.00  0.00    +0.000 A 
ATOM      9  C   UNL     1       1.950   1.909  18.968  0.00  0.00    +0.000 A 
ATOM     10  C   UNL     1       3.155   2.263  18.365  0.00  0.00    +0.000 A 
ATOM     11  C   UNL     1       3.450   3.596  18.059  0.00  0.00    +0.000 A 
ENDBRANCH   1  11
BRANCH   2  12
ATOM     12  C   UNL     1       7.017   4.778  17.183  0.00  0.00    +0.000 C 
BRANCH  12  13
ATOM     13  N   UNL     1       8.217   4.135  17.761  0.00  0.00    +0.000 NA
ATOM     14  H   UNL     1       9.032   4.694  17.483  0.00  0.00    +0.000 HD
ATOM     15  H   UNL     1       8.369   3.225  17.333  0.00  0.00    +0.000 HD
ENDBRANCH  12  13
BRANCH  12  16
ATOM     16  C   UNL     1       7.145   6.331  17.120  0.00  0.00    +0.000 C 
ATOM     17  C   UNL     1       5.797   7.058  17.024  0.00  0.00    +0.000 C 
ATOM     18  C   UNL     1       7.894   6.869  18.352  0.00  0.00    +0.000 C 
ENDBRANCH  12  16
ENDBRANCH   2  12
TORSDOF 4
ENDMDL
