MODEL 1
REMARK VINA RESULT:      -7.2      0.000      0.000
REMARK  Name = 
REMARK  5 active torsions:
REMARK  status: ('A' for Active; 'I' for Inactive)
REMARK    1  A    between atoms: N_10  and  C_11
REMARK    2  A    between atoms: C_11  and  C_12
REMARK    3  A    between atoms: C_12  and  C_13
REMARK    4  A    between atoms: C_13  and  N_14
REMARK    5  A    between atoms: N_17  and  C_18
REMARK                            x       y       z     vdW  Elec       q    Type
REMARK                         _______ _______ _______ _____ _____    ______ ____
ROOT
ATOM      1  C   UNL     1       3.246   2.774  18.557  0.00  0.00    +0.000 C 
ENDROOT
BRANCH   1   2
ATOM      2  N   UNL     1       2.137   3.588  19.067  0.00  0.00    +0.000 NA
ATOM      3  C   UNL     1       2.489   4.401  20.253  0.00  0.00    +0.000 C 
ATOM      4  C   UNL     1       3.363   5.626  19.936  0.00  0.00    +0.000 C 
ATOM      5  N   UNL     1       2.677   6.516  18.992  0.00  0.00    +0.000 N 
ATOM      6  C   UNL     1       2.212   5.849  17.759  0.00  0.00    +0.000 C 
ATOM      7  C   UNL     1       1.537   4.473  18.039  0.00  0.00    +0.000 C 
BRANCH   5   8
ATOM      8  C   UNL     1       2.021   7.658  19.438  0.00  0.00    +0.000 A 
ATOM      9  C   UNL     1       1.781   8.726  18.557  0.00  0.00    +0.000 A 
ATOM     10  C   UNL     1       1.174   9.914  18.981  0.00  0.00    +0.000 A 
ATOM     11  C   UNL     1       0.783  10.062  20.307  0.00  0.00    +0.000 A 
ATOM     12  C   UNL     1       1.008   9.025  21.204  0.00  0.00    +0.000 A 
ATOM     13  C   UNL     1       1.623   7.843  20.772  0.00  0.00    +0.000 A 
ENDBRANCH   5   8
ENDBRANCH   1   2
BRANCH   1  14
ATOM     14  C   UNL     1       3.637   3.116  17.106  0.00  0.00    +0.000 C 
BRANCH  14  15
ATOM     15  C   UNL     1       5.131   2.921  16.827  0.00  0.00    +0.000 C 
BRANCH  15  25
ATOM     16  O   UNL     1       5.240   4.460  14.294  0.00  0.00    +0.000 OA
ATOM     17  C   UNL     1       5.787   4.833  15.324  0.00  0.00    +0.000 A 
ATOM     18  O   UNL     1       6.499   6.039  15.406  0.00  0.00    +0.000 OA
ATOM     19  C   UNL     1       6.894   6.041  16.727  0.00  0.00    +0.000 A 
ATOM     20  C   UNL     1       7.631   7.021  17.356  0.00  0.00    +0.000 A 
ATOM     21  C   UNL     1       7.920   6.821  18.707  0.00  0.00    +0.000 A 
ATOM     22  C   UNL     1       7.451   5.662  19.336  0.00  0.00    +0.000 A 
ATOM     23  N   UNL     1       6.719   4.697  18.724  0.00  0.00    +0.000 NA
ATOM     24  C   UNL     1       6.477   4.934  17.429  0.00  0.00    +0.000 A 
ATOM     25  N   UNL     1       5.789   4.167  16.525  0.00  0.00    +0.000 N 
ENDBRANCH  15  25
ENDBRANCH  14  15
ENDBRANCH   1  14
TORSDOF 5
ENDMDL
MODEL 2
REMARK VINA RESULT:      -7.1      1.421      2.565
REMARK  Name = 
REMARK  5 active torsions:
REMARK  status: ('A' for Active; 'I' for Inactive)
REMARK    1  A    between atoms: N_10  and  C_11
REMARK    2  A    between atoms: C_11  and  C_12
REMARK    3  A    between atoms: C_12  and  C_13
REMARK    4  A    between atoms: C_13  and  N_14
REMARK    5  A    between atoms: N_17  and  C_18
REMARK                            x       y       z     vdW  Elec       q    Type
REMARK                         _______ _______ _______ _____ _____    ______ ____
ROOT
ATOM      1  C   UNL     1       2.503   2.814  19.107  0.00  0.00    +0.000 C 
ENDROOT
BRANCH   1   2
ATOM      2  N   UNL     1       1.472   3.849  18.965  0.00  0.00    +0.000 NA
ATOM      3  C   UNL     1       1.142   4.540  20.232  0.00  0.00    +0.000 C 
ATOM      4  C   UNL     1       2.212   5.542  20.697  0.00  0.00    +0.000 C 
ATOM      5  N   UNL     1       2.419   6.580  19.681  0.00  0.00    +0.000 N 
ATOM      6  C   UNL     1       2.715   6.057  18.331  0.00  0.00    +0.000 C 
ATOM      7  C   UNL     1       1.796   4.864  17.934  0.00  0.00    +0.000 C 
BRANCH   5   8
ATOM      8  C   UNL     1       1.829   7.832  19.812  0.00  0.00    +0.000 A 
ATOM      9  C   UNL     1       1.241   8.213  21.029  0.00  0.00    +0.000 A 
ATOM     10  C   UNL     1       0.588   9.442  21.184  0.00  0.00    +0.000 A 
ATOM     11  C   UNL     1       0.513  10.330  20.117  0.00  0.00    +0.000 A 
ATOM     12  C   UNL     1       1.084   9.982  18.899  0.00  0.00    +0.000 A 
ATOM     13  C   UNL     1       1.727   8.748  18.752  0.00  0.00    +0.000 A 
ENDBRANCH   5   8
ENDBRANCH   1   2
BRANCH   1  14
ATOM     14  C   UNL     1       3.703   3.016  18.161  0.00  0.00    +0.000 C 
BRANCH  14  15
ATOM     15  C   UNL     1       5.013   3.292  18.908  0.00  0.00    +0.000 C 
BRANCH  15  25
ATOM     16  O   UNL     1       6.769   5.445  19.948  0.00  0.00    +0.000 OA
ATOM     17  C   UNL     1       6.648   5.203  18.753  0.00  0.00    +0.000 A 
ATOM     18  O   UNL     1       7.350   5.908  17.766  0.00  0.00    +0.000 OA
ATOM     19  C   UNL     1       6.924   5.279  16.615  0.00  0.00    +0.000 A 
ATOM     20  C   UNL     1       7.316   5.578  15.329  0.00  0.00    +0.000 A 
ATOM     21  C   UNL     1       6.758   4.809  14.306  0.00  0.00    +0.000 A 
ATOM     22  C   UNL     1       5.852   3.795  14.638  0.00  0.00    +0.000 A 
ATOM     23  N   UNL     1       5.467   3.491  15.903  0.00  0.00    +0.000 NA
ATOM     24  C   UNL     1       6.026   4.263  16.844  0.00  0.00    +0.000 A 
ATOM     25  N   UNL     1       5.847   4.233  18.202  0.00  0.00    +0.000 N 
ENDBRANCH  15  25
ENDBRANCH  14  15
ENDBRANCH   1  14
TORSDOF 5
ENDMDL
MODEL 3
REMARK VINA RESULT:      -7.1      1.912      2.649
REMARK  Name = 
REMARK  5 active torsions:
REMARK  status: ('A' for Active; 'I' for Inactive)
REMARK    1  A    between atoms: N_10  and  C_11
REMARK    2  A    between atoms: C_11  and  C_12
REMARK    3  A    between atoms: C_12  and  C_13
REMARK    4  A    between atoms: C_13  and  N_14
REMARK    5  A    between atoms: N_17  and  C_18
REMARK                            x       y       z     vdW  Elec       q    Type
REMARK                         _______ _______ _______ _____ _____    ______ ____
ROOT
ATOM      1  C   UNL     1       1.862   2.685  19.086  0.00  0.00    +0.000 C 
ENDROOT
BRANCH   1   2
ATOM      2  N   UNL     1       0.961   3.837  18.969  0.00  0.00    +0.000 NA
ATOM      3  C   UNL     1       0.743   4.557  20.244  0.00  0.00    +0.000 C 
ATOM      4  C   UNL     1       1.936   5.420  20.688  0.00  0.00    +0.000 C 
ATOM      5  N   UNL     1       2.246   6.431  19.671  0.00  0.00    +0.000 N 
ATOM      6  C   UNL     1       2.449   5.882  18.314  0.00  0.00    +0.000 C 
ATOM      7  C   UNL     1       1.384   4.811  17.934  0.00  0.00    +0.000 C 
BRANCH   5   8
ATOM      8  C   UNL     1       1.815   7.744  19.817  0.00  0.00    +0.000 A 
ATOM      9  C   UNL     1       1.301   8.187  21.047  0.00  0.00    +0.000 A 
ATOM     10  C   UNL     1       0.806   9.485  21.219  0.00  0.00    +0.000 A 
ATOM     11  C   UNL     1       0.817  10.381  20.156  0.00  0.00    +0.000 A 
ATOM     12  C   UNL     1       1.317   9.973  18.926  0.00  0.00    +0.000 A 
ATOM     13  C   UNL     1       1.803   8.671  18.762  0.00  0.00    +0.000 A 
ENDBRANCH   5   8
ENDBRANCH   1   2
BRANCH   1  14
ATOM     14  C   UNL     1       2.330   2.137  17.724  0.00  0.00    +0.000 C 
BRANCH  14  15
ATOM     15  C   UNL     1       3.841   1.884  17.669  0.00  0.00    +0.000 C 
BRANCH  15  25
ATOM     16  O   UNL     1       4.872   2.442  20.394  0.00  0.00    +0.000 OA
ATOM     17  C   UNL     1       5.051   3.197  19.446  0.00  0.00    +0.000 A 
ATOM     18  O   UNL     1       5.784   4.387  19.558  0.00  0.00    +0.000 OA
ATOM     19  C   UNL     1       5.741   4.865  18.265  0.00  0.00    +0.000 A 
ATOM     20  C   UNL     1       6.321   6.027  17.805  0.00  0.00    +0.000 A 
ATOM     21  C   UNL     1       6.153   6.322  16.451  0.00  0.00    +0.000 A 
ATOM     22  C   UNL     1       5.423   5.436  15.651  0.00  0.00    +0.000 A 
ATOM     23  N   UNL     1       4.855   4.286  16.096  0.00  0.00    +0.000 NA
ATOM     24  C   UNL     1       5.040   4.056  17.402  0.00  0.00    +0.000 A 
ATOM     25  N   UNL     1       4.594   3.009  18.165  0.00  0.00    +0.000 N 
ENDBRANCH  15  25
ENDBRANCH  14  15
ENDBRANCH   1  14
TORSDOF 5
ENDMDL
MODEL 4
REMARK VINA RESULT:      -7.0      0.864      1.425
REMARK  Name = 
REMARK  5 active torsions:
REMARK  status: ('A' for Active; 'I' for Inactive)
REMARK    1  A    between atoms: N_10  and  C_11
REMARK    2  A    between atoms: C_11  and  C_12
REMARK    3  A    between atoms: C_12  and  C_13
REMARK    4  A    between atoms: C_13  and  N_14
REMARK    5  A    between atoms: N_17  and  C_18
REMARK                            x       y       z     vdW  Elec       q    Type
REMARK                         _______ _______ _______ _____ _____    ______ ____
ROOT
ATOM      1  C   UNL     1       3.147   3.926  18.592  0.00  0.00    +0.000 C 
ENDROOT
BRANCH   1   2
ATOM      2  N   UNL     1       1.964   4.789  18.506  0.00  0.00    +0.000 NA
ATOM      3  C   UNL     1       1.312   5.040  19.811  0.00  0.00    +0.000 C 
ATOM      4  C   UNL     1       2.076   6.024  20.714  0.00  0.00    +0.000 C 
ATOM      5  N   UNL     1       2.224   7.323  20.049  0.00  0.00    +0.000 N 
ATOM      6  C   UNL     1       2.823   7.249  18.701  0.00  0.00    +0.000 C 
ATOM      7  C   UNL     1       2.233   6.089  17.844  0.00  0.00    +0.000 C 
BRANCH   5   8
ATOM      8  C   UNL     1       1.383   8.384  20.364  0.00  0.00    +0.000 A 
ATOM      9  C   UNL     1       0.755   8.441  21.619  0.00  0.00    +0.000 A 
ATOM     10  C   UNL     1      -0.142   9.462  21.953  0.00  0.00    +0.000 A 
ATOM     11  C   UNL     1      -0.431  10.464  21.034  0.00  0.00    +0.000 A 
ATOM     12  C   UNL     1       0.173  10.436  19.783  0.00  0.00    +0.000 A 
ATOM     13  C   UNL     1       1.063   9.406  19.455  0.00  0.00    +0.000 A 
ENDBRANCH   5   8
ENDBRANCH   1   2
BRANCH   1  14
ATOM     14  C   UNL     1       3.456   3.183  17.278  0.00  0.00    +0.000 C 
BRANCH  14  15
ATOM     15  C   UNL     1       4.956   2.953  17.058  0.00  0.00    +0.000 C 
BRANCH  15  25
ATOM     16  O   UNL     1       5.009   4.434  14.489  0.00  0.00    +0.000 OA
ATOM     17  C   UNL     1       5.610   4.811  15.487  0.00  0.00    +0.000 A 
ATOM     18  O   UNL     1       6.362   5.994  15.514  0.00  0.00    +0.000 OA
ATOM     19  C   UNL     1       6.811   6.012  16.817  0.00  0.00    +0.000 A 
ATOM     20  C   UNL     1       7.604   6.980  17.394  0.00  0.00    +0.000 A 
ATOM     21  C   UNL     1       7.942   6.799  18.737  0.00  0.00    +0.000 A 
ATOM     22  C   UNL     1       7.463   5.669  19.410  0.00  0.00    +0.000 A 
ATOM     23  N   UNL     1       6.676   4.716  18.849  0.00  0.00    +0.000 NA
ATOM     24  C   UNL     1       6.389   4.934  17.560  0.00  0.00    +0.000 A 
ATOM     25  N   UNL     1       5.640   4.171  16.702  0.00  0.00    +0.000 N 
ENDBRANCH  15  25
ENDBRANCH  14  15
ENDBRANCH   1  14
TORSDOF 5
ENDMDL
MODEL 5
REMARK VINA RESULT:      -6.8      3.118      5.679
REMARK  Name = 
REMARK  5 active torsions:
REMARK  status: ('A' for Active; 'I' for Inactive)
REMARK    1  A    between atoms: N_10  and  C_11
REMARK    2  A    between atoms: C_11  and  C_12
REMARK    3  A    between atoms: C_12  and  C_13
REMARK    4  A    between atoms: C_13  and  N_14
REMARK    5  A    between atoms: N_17  and  C_18
REMARK                            x       y       z     vdW  Elec       q    Type
REMARK                         _______ _______ _______ _____ _____    ______ ____
ROOT
ATOM      1  C   UNL     1       1.688   9.676  18.362  0.00  0.00    +0.000 C 
ENDROOT
BRANCH   1   2
ATOM      2  N   UNL     1       0.361   9.504  18.966  0.00  0.00    +0.000 NA
ATOM      3  C   UNL     1       0.361   9.603  20.443  0.00  0.00    +0.000 C 
ATOM      4  C   UNL     1       0.517  11.038  20.975  0.00  0.00    +0.000 C 
ATOM      5  N   UNL     1      -0.573  11.889  20.486  0.00  0.00    +0.000 N 
ATOM      6  C   UNL     1      -0.745  11.870  19.019  0.00  0.00    +0.000 C 
ATOM      7  C   UNL     1      -0.657  10.434  18.421  0.00  0.00    +0.000 C 
BRANCH   5   8
ATOM      8  C   UNL     1      -1.664  12.185  21.295  0.00  0.00    +0.000 A 
ATOM      9  C   UNL     1      -2.729  12.953  20.795  0.00  0.00    +0.000 A 
ATOM     10  C   UNL     1      -3.818  13.318  21.595  0.00  0.00    +0.000 A 
ATOM     11  C   UNL     1      -3.872  12.917  22.925  0.00  0.00    +0.000 A 
ATOM     12  C   UNL     1      -2.833  12.158  23.450  0.00  0.00    +0.000 A 
ATOM     13  C   UNL     1      -1.744  11.804  22.645  0.00  0.00    +0.000 A 
ENDBRANCH   5   8
ENDBRANCH   1   2
BRANCH   1  14
ATOM     14  C   UNL     1       2.217   8.399  17.682  0.00  0.00    +0.000 C 
BRANCH  14  15
ATOM     15  C   UNL     1       2.824   7.400  18.674  0.00  0.00    +0.000 C 
BRANCH  15  25
ATOM     16  O   UNL     1       5.040   6.863  16.776  0.00  0.00    +0.000 OA
ATOM     17  C   UNL     1       4.270   5.994  17.164  0.00  0.00    +0.000 A 
ATOM     18  O   UNL     1       4.380   4.655  16.763  0.00  0.00    +0.000 OA
ATOM     19  C   UNL     1       3.346   4.067  17.460  0.00  0.00    +0.000 A 
ATOM     20  C   UNL     1       3.000   2.733  17.437  0.00  0.00    +0.000 A 
ATOM     21  C   UNL     1       1.913   2.351  18.225  0.00  0.00    +0.000 A 
ATOM     22  C   UNL     1       1.250   3.324  18.982  0.00  0.00    +0.000 A 
ATOM     23  N   UNL     1       1.590   4.638  19.014  0.00  0.00    +0.000 NA
ATOM     24  C   UNL     1       2.633   4.951  18.236  0.00  0.00    +0.000 A 
ATOM     25  N   UNL     1       3.218   6.172  18.029  0.00  0.00    +0.000 N 
ENDBRANCH  15  25
ENDBRANCH  14  15
ENDBRANCH   1  14
TORSDOF 5
ENDMDL
MODEL 6
REMARK VINA RESULT:      -6.6      3.167      5.019
REMARK  Name = 
REMARK  5 active torsions:
REMARK  status: ('A' for Active; 'I' for Inactive)
REMARK    1  A    between atoms: N_10  and  C_11
REMARK    2  A    between atoms: C_11  and  C_12
REMARK    3  A    between atoms: C_12  and  C_13
REMARK    4  A    between atoms: C_13  and  N_14
REMARK    5  A    between atoms: N_17  and  C_18
REMARK                            x       y       z     vdW  Elec       q    Type
REMARK                         _______ _______ _______ _____ _____    ______ ____
ROOT
ATOM      1  C   UNL     1       1.803   8.101  20.629  0.00  0.00    +0.000 C 
ENDROOT
BRANCH   1   2
ATOM      2  N   UNL     1       0.421   8.552  20.430  0.00  0.00    +0.000 NA
ATOM      3  C   UNL     1      -0.381   8.587  21.674  0.00  0.00    +0.000 C 
ATOM      4  C   UNL     1      -0.037   9.759  22.609  0.00  0.00    +0.000 C 
ATOM      5  N   UNL     1      -0.247  11.040  21.926  0.00  0.00    +0.000 N 
ATOM      6  C   UNL     1       0.452  11.157  20.630  0.00  0.00    +0.000 C 
ATOM      7  C   UNL     1       0.324   9.871  19.759  0.00  0.00    +0.000 C 
BRANCH   5   8
ATOM      8  C   UNL     1      -1.400  11.785  22.147  0.00  0.00    +0.000 A 
ATOM      9  C   UNL     1      -2.092  11.672  23.365  0.00  0.00    +0.000 A 
ATOM     10  C   UNL     1      -3.285  12.363  23.605  0.00  0.00    +0.000 A 
ATOM     11  C   UNL     1      -3.818  13.195  22.627  0.00  0.00    +0.000 A 
ATOM     12  C   UNL     1      -3.159  13.327  21.411  0.00  0.00    +0.000 A 
ATOM     13  C   UNL     1      -1.969  12.625  21.177  0.00  0.00    +0.000 A 
ENDBRANCH   5   8
ENDBRANCH   1   2
BRANCH   1  14
ATOM     14  C   UNL     1       2.355   7.287  19.443  0.00  0.00    +0.000 C 
BRANCH  14  15
ATOM     15  C   UNL     1       2.488   5.792  19.754  0.00  0.00    +0.000 C 
BRANCH  15  25
ATOM     16  O   UNL     1       1.371   4.190  17.521  0.00  0.00    +0.000 OA
ATOM     17  C   UNL     1       2.573   4.363  17.680  0.00  0.00    +0.000 A 
ATOM     18  O   UNL     1       3.533   3.838  16.804  0.00  0.00    +0.000 OA
ATOM     19  C   UNL     1       4.705   4.308  17.359  0.00  0.00    +0.000 A 
ATOM     20  C   UNL     1       5.979   4.089  16.882  0.00  0.00    +0.000 A 
ATOM     21  C   UNL     1       7.028   4.662  17.602  0.00  0.00    +0.000 A 
ATOM     22  C   UNL     1       6.734   5.417  18.744  0.00  0.00    +0.000 A 
ATOM     23  N   UNL     1       5.481   5.643  19.214  0.00  0.00    +0.000 NA
ATOM     24  C   UNL     1       4.514   5.064  18.492  0.00  0.00    +0.000 A 
ATOM     25  N   UNL     1       3.158   5.080  18.695  0.00  0.00    +0.000 N 
ENDBRANCH  15  25
ENDBRANCH  14  15
ENDBRANCH   1  14
TORSDOF 5
ENDMDL
MODEL 7
REMARK VINA RESULT:      -6.6      3.075      5.188
REMARK  Name = 
REMARK  5 active torsions:
REMARK  status: ('A' for Active; 'I' for Inactive)
REMARK    1  A    between atoms: N_10  and  C_11
REMARK    2  A    between atoms: C_11  and  C_12
REMARK    3  A    between atoms: C_12  and  C_13
REMARK    4  A    between atoms: C_13  and  N_14
REMARK    5  A    between atoms: N_17  and  C_18
REMARK                            x       y       z     vdW  Elec       q    Type
REMARK                         _______ _______ _______ _____ _____    ______ ____
ROOT
ATOM      1  C   UNL     1       2.287   9.564  18.221  0.00  0.00    +0.000 C 
ENDROOT
BRANCH   1   2
ATOM      2  N   UNL     1       1.038  10.332  18.263  0.00  0.00    +0.000 NA
ATOM      3  C   UNL     1      -0.039   9.679  19.040  0.00  0.00    +0.000 C 
ATOM      4  C   UNL     1       0.159   9.745  20.564  0.00  0.00    +0.000 C 
ATOM      5  N   UNL     1       0.228  11.141  21.013  0.00  0.00    +0.000 N 
ATOM      6  C   UNL     1       1.231  11.957  20.299  0.00  0.00    +0.000 C 
ATOM      7  C   UNL     1       1.216  11.718  18.760  0.00  0.00    +0.000 C 
BRANCH   5   8
ATOM      8  C   UNL     1      -0.879  11.762  21.579  0.00  0.00    +0.000 A 
ATOM      9  C   UNL     1      -1.365  11.342  22.828  0.00  0.00    +0.000 A 
ATOM     10  C   UNL     1      -2.510  11.905  23.405  0.00  0.00    +0.000 A 
ATOM     11  C   UNL     1      -3.199  12.915  22.743  0.00  0.00    +0.000 A 
ATOM     12  C   UNL     1      -2.745  13.351  21.505  0.00  0.00    +0.000 A 
ATOM     13  C   UNL     1      -1.604  12.777  20.932  0.00  0.00    +0.000 A 
ENDBRANCH   5   8
ENDBRANCH   1   2
BRANCH   1  14
ATOM     14  C   UNL     1       2.092   8.109  17.755  0.00  0.00    +0.000 C 
BRANCH  14  15
ATOM     15  C   UNL     1       2.687   7.084  18.728  0.00  0.00    +0.000 C 
BRANCH  15  25
ATOM     16  O   UNL     1       1.355   4.494  18.163  0.00  0.00    +0.000 OA
ATOM     17  C   UNL     1       2.499   4.747  17.806  0.00  0.00    +0.000 A 
ATOM     18  O   UNL     1       3.278   3.839  17.074  0.00  0.00    +0.000 OA
ATOM     19  C   UNL     1       4.440   4.557  16.885  0.00  0.00    +0.000 A 
ATOM     20  C   UNL     1       5.561   4.131  16.206  0.00  0.00    +0.000 A 
ATOM     21  C   UNL     1       6.631   5.025  16.134  0.00  0.00    +0.000 A 
ATOM     22  C   UNL     1       6.506   6.281  16.739  0.00  0.00    +0.000 A 
ATOM     23  N   UNL     1       5.402   6.709  17.402  0.00  0.00    +0.000 NA
ATOM     24  C   UNL     1       4.410   5.811  17.448  0.00  0.00    +0.000 A 
ATOM     25  N   UNL     1       3.180   5.915  18.043  0.00  0.00    +0.000 N 
ENDBRANCH  15  25
ENDBRANCH  14  15
ENDBRANCH   1  14
TORSDOF 5
ENDMDL
MODEL 8
REMARK VINA RESULT:      -6.6      2.685      5.232
REMARK  Name = 
REMARK  5 active torsions:
REMARK  status: ('A' for Active; 'I' for Inactive)
REMARK    1  A    between atoms: N_10  and  C_11
REMARK    2  A    between atoms: C_11  and  C_12
REMARK    3  A    between atoms: C_12  and  C_13
REMARK    4  A    between atoms: C_13  and  N_14
REMARK    5  A    between atoms: N_17  and  C_18
REMARK                            x       y       z     vdW  Elec       q    Type
REMARK                         _______ _______ _______ _____ _____    ______ ____
ROOT
ATOM      1  C   UNL     1       2.007   7.644  18.346  0.00  0.00    +0.000 C 
ENDROOT
BRANCH   1   2
ATOM      2  N   UNL     1       2.116   8.831  19.201  0.00  0.00    +0.000 NA
ATOM      3  C   UNL     1       1.489  10.042  18.625  0.00  0.00    +0.000 C 
ATOM      4  C   UNL     1      -0.049  10.035  18.675  0.00  0.00    +0.000 C 
ATOM      5  N   UNL     1      -0.517   9.926  20.061  0.00  0.00    +0.000 N 
ATOM      6  C   UNL     1       0.055   8.786  20.806  0.00  0.00    +0.000 C 
ATOM      7  C   UNL     1       1.586   8.621  20.570  0.00  0.00    +0.000 C 
BRANCH   5   8
ATOM      8  C   UNL     1      -0.944  11.050  20.759  0.00  0.00    +0.000 A 
ATOM      9  C   UNL     1      -0.794  11.116  22.155  0.00  0.00    +0.000 A 
ATOM     10  C   UNL     1      -1.261  12.205  22.900  0.00  0.00    +0.000 A 
ATOM     11  C   UNL     1      -1.890  13.267  22.260  0.00  0.00    +0.000 A 
ATOM     12  C   UNL     1      -2.056  13.232  20.882  0.00  0.00    +0.000 A 
ATOM     13  C   UNL     1      -1.592  12.134  20.146  0.00  0.00    +0.000 A 
ENDBRANCH   5   8
ENDBRANCH   1   2
BRANCH   1  14
ATOM     14  C   UNL     1       3.365   6.981  18.047  0.00  0.00    +0.000 C 
BRANCH  14  15
ATOM     15  C   UNL     1       3.229   5.553  17.507  0.00  0.00    +0.000 C 
BRANCH  15  25
ATOM     16  O   UNL     1       5.876   4.344  18.082  0.00  0.00    +0.000 OA
ATOM     17  C   UNL     1       4.863   4.059  18.709  0.00  0.00    +0.000 A 
ATOM     18  O   UNL     1       4.868   3.149  19.776  0.00  0.00    +0.000 OA
ATOM     19  C   UNL     1       3.548   3.177  20.174  0.00  0.00    +0.000 A 
ATOM     20  C   UNL     1       2.992   2.458  21.210  0.00  0.00    +0.000 A 
ATOM     21  C   UNL     1       1.627   2.640  21.441  0.00  0.00    +0.000 A 
ATOM     22  C   UNL     1       0.915   3.526  20.626  0.00  0.00    +0.000 A 
ATOM     23  N   UNL     1       1.457   4.243  19.609  0.00  0.00    +0.000 NA
ATOM     24  C   UNL     1       2.765   4.026  19.426  0.00  0.00    +0.000 A 
ATOM     25  N   UNL     1       3.607   4.568  18.490  0.00  0.00    +0.000 N 
ENDBRANCH  15  25
ENDBRANCH  14  15
ENDBRANCH   1  14
TORSDOF 5
ENDMDL
MODEL 9
REMARK VINA RESULT:      -6.6      3.085      7.575
REMARK  Name = 
REMARK  5 active torsions:
REMARK  status: ('A' for Active; 'I' for Inactive)
REMARK    1  A    between atoms: N_10  and  C_11
REMARK    2  A    between atoms: C_11  and  C_12
REMARK    3  A    between atoms: C_12  and  C_13
REMARK    4  A    between atoms: C_13  and  N_14
REMARK    5  A    between atoms: N_17  and  C_18
REMARK                            x       y       z     vdW  Elec       q    Type
REMARK                         _______ _______ _______ _____ _____    ______ ____
ROOT
ATOM      1  C   UNL     1       1.831   5.722  20.370  0.00  0.00    +0.000 C 
ENDROOT
BRANCH   1   2
ATOM      2  N   UNL     1       2.203   6.005  18.980  0.00  0.00    +0.000 NA
ATOM      3  C   UNL     1       3.566   6.562  18.828  0.00  0.00    +0.000 C 
ATOM      4  C   UNL     1       4.690   5.528  19.012  0.00  0.00    +0.000 C 
ATOM      5  N   UNL     1       4.555   4.443  18.033  0.00  0.00    +0.000 N 
ATOM      6  C   UNL     1       3.225   3.802  18.018  0.00  0.00    +0.000 C 
ATOM      7  C   UNL     1       2.059   4.834  18.082  0.00  0.00    +0.000 C 
BRANCH   5   8
ATOM      8  C   UNL     1       5.335   4.422  16.883  0.00  0.00    +0.000 A 
ATOM      9  C   UNL     1       6.706   4.722  16.951  0.00  0.00    +0.000 A 
ATOM     10  C   UNL     1       7.513   4.766  15.808  0.00  0.00    +0.000 A 
ATOM     11  C   UNL     1       6.964   4.504  14.557  0.00  0.00    +0.000 A 
ATOM     12  C   UNL     1       5.611   4.207  14.456  0.00  0.00    +0.000 A 
ATOM     13  C   UNL     1       4.810   4.173  15.604  0.00  0.00    +0.000 A 
ENDBRANCH   5   8
ENDBRANCH   1   2
BRANCH   1  14
ATOM     14  C   UNL     1       0.918   6.798  20.988  0.00  0.00    +0.000 C 
BRANCH  14  15
ATOM     15  C   UNL     1       1.638   8.131  21.223  0.00  0.00    +0.000 C 
BRANCH  15  25
ATOM     16  O   UNL     1       1.454   9.236  18.476  0.00  0.00    +0.000 OA
ATOM     17  C   UNL     1       0.832   9.700  19.424  0.00  0.00    +0.000 A 
ATOM     18  O   UNL     1      -0.045  10.785  19.291  0.00  0.00    +0.000 OA
ATOM     19  C   UNL     1      -0.517  10.923  20.579  0.00  0.00    +0.000 A 
ATOM     20  C   UNL     1      -1.433  11.854  21.018  0.00  0.00    +0.000 A 
ATOM     21  C   UNL     1      -1.773  11.814  22.371  0.00  0.00    +0.000 A 
ATOM     22  C   UNL     1      -1.180  10.846  23.190  0.00  0.00    +0.000 A 
ATOM     23  N   UNL     1      -0.284   9.921  22.763  0.00  0.00    +0.000 NA
ATOM     24  C   UNL     1       0.013  10.009  21.461  0.00  0.00    +0.000 A 
ATOM     25  N   UNL     1       0.879   9.248  20.720  0.00  0.00    +0.000 N 
ENDBRANCH  15  25
ENDBRANCH  14  15
ENDBRANCH   1  14
TORSDOF 5
ENDMDL
