MODEL 1
REMARK VINA RESULT:      -6.0      0.000      0.000
REMARK  Name = 
REMARK  15 active torsions:
REMARK  status: ('A' for Active; 'I' for Inactive)
REMARK    1  A    between atoms: C_1  and  C_2
REMARK    2  A    between atoms: C_2  and  C_3
REMARK    3  A    between atoms: C_3  and  C_4
REMARK    4  A    between atoms: C_4  and  C_5
REMARK    5  A    between atoms: C_5  and  C_6
REMARK    6  A    between atoms: C_6  and  C_7
REMARK    7  A    between atoms: C_7  and  C_8
REMARK    8  A    between atoms: C_8  and  C_9
REMARK    9  A    between atoms: C_9  and  C_10
REMARK   10  A    between atoms: C_10  and  C_11
REMARK   11  A    between atoms: C_11  and  C_12
REMARK   12  A    between atoms: C_12  and  C_13
REMARK   13  A    between atoms: C_13  and  C_14
REMARK   14  A    between atoms: C_14  and  C_15
REMARK   15  A    between atoms: N_17  and  N_18
REMARK                            x       y       z     vdW  Elec       q    Type
REMARK                         _______ _______ _______ _____ _____    ______ ____
ROOT
ATOM      1  C   UNL     1       1.510   2.356  18.610  0.00  0.00    +0.000 C 
ENDROOT
BRANCH   1   2
ATOM      2  C   UNL     1       1.400   3.866  18.755  0.00  0.00    +0.000 C 
BRANCH   2   3
ATOM      3  C   UNL     1       1.195   4.217  20.226  0.00  0.00    +0.000 C 
BRANCH   3   4
ATOM      4  C   UNL     1       1.897   5.519  20.579  0.00  0.00    +0.000 C 
BRANCH   4   5
ATOM      5  C   UNL     1       2.379   6.221  19.317  0.00  0.00    +0.000 C 
BRANCH   5   6
ATOM      6  C   UNL     1       2.063   7.708  19.389  0.00  0.00    +0.000 C 
BRANCH   6   7
ATOM      7  C   UNL     1       2.584   8.427  18.153  0.00  0.00    +0.000 C 
BRANCH   7   8
ATOM      8  C   UNL     1       1.710   9.633  17.836  0.00  0.00    +0.000 C 
BRANCH   8   9
ATOM      9  C   UNL     1       0.258   9.350  18.199  0.00  0.00    +0.000 C 
BRANCH   9  10
ATOM     10  C   UNL     1      -0.371  10.563  18.875  0.00  0.00    +0.000 C 
BRANCH  10  11
ATOM     11  C   UNL     1      -1.390  11.222  17.952  0.00  0.00    +0.000 C 
BRANCH  11  13
ATOM     12  C   UNL     1      -3.490   9.890  17.637  0.00  0.00    +0.000 C 
ATOM     13  C   UNL     1      -2.104  10.184  17.093  0.00  0.00    +0.000 C 
ENDBRANCH  11  13
ENDBRANCH  10  11
ENDBRANCH   9  10
ENDBRANCH   8   9
ENDBRANCH   7   8
ENDBRANCH   6   7
ENDBRANCH   5   6
ENDBRANCH   4   5
ENDBRANCH   3   4
ENDBRANCH   2   3
ENDBRANCH   1   2
BRANCH   1  14
ATOM     14  C   UNL     1       2.700   1.934  17.760  0.00  0.00    +0.000 C 
BRANCH  14  15
ATOM     15  C   UNL     1       3.944   2.688  18.200  0.00  0.00    +0.000 C 
ATOM     16  O   UNL     1       4.389   2.621  19.341  0.00  0.00    +0.000 OA
ATOM     17  N   UNL     1       4.492   3.421  17.152  0.00  0.00    +0.000 N 
ATOM     18  H   UNL     1       4.052   3.391  16.239  0.00  0.00    +0.000 HD
BRANCH  17  19
ATOM     19  N   UNL     1       5.690   4.153  17.331  0.00  0.00    +0.000 NA
ATOM     20  C   UNL     1       6.539   4.109  16.118  0.00  0.00    +0.000 C 
ATOM     21  C   UNL     1       5.961   4.919  14.944  0.00  0.00    +0.000 C 
ATOM     22  N   UNL     1       5.682   6.312  15.306  0.00  0.00    +0.000 NA
ATOM     23  C   UNL     1       4.873   6.405  16.526  0.00  0.00    +0.000 C 
ATOM     24  C   UNL     1       5.434   5.564  17.691  0.00  0.00    +0.000 C 
ATOM     25  H   UNL     1       5.205   6.779  14.535  0.00  0.00    +0.000 HD
ENDBRANCH  17  19
ENDBRANCH  14  15
ENDBRANCH   1  14
TORSDOF 14
ENDMDL
MODEL 2
REMARK VINA RESULT:      -5.8      3.558      7.291
REMARK  Name = 
REMARK  15 active torsions:
REMARK  status: ('A' for Active; 'I' for Inactive)
REMARK    1  A    between atoms: C_1  and  C_2
REMARK    2  A    between atoms: C_2  and  C_3
REMARK    3  A    between atoms: C_3  and  C_4
REMARK    4  A    between atoms: C_4  and  C_5
REMARK    5  A    between atoms: C_5  and  C_6
REMARK    6  A    between atoms: C_6  and  C_7
REMARK    7  A    between atoms: C_7  and  C_8
REMARK    8  A    between atoms: C_8  and  C_9
REMARK    9  A    between atoms: C_9  and  C_10
REMARK   10  A    between atoms: C_10  and  C_11
REMARK   11  A    between atoms: C_11  and  C_12
REMARK   12  A    between atoms: C_12  and  C_13
REMARK   13  A    between atoms: C_13  and  C_14
REMARK   14  A    between atoms: C_14  and  C_15
REMARK   15  A    between atoms: N_17  and  N_18
REMARK                            x       y       z     vdW  Elec       q    Type
REMARK                         _______ _______ _______ _____ _____    ______ ____
ROOT
ATOM      1  C   UNL     1       2.029   5.998  19.020  0.00  0.00    +0.000 C 
ENDROOT
BRANCH   1   2
ATOM      2  C   UNL     1       2.048   5.280  20.361  0.00  0.00    +0.000 C 
BRANCH   2   3
ATOM      3  C   UNL     1       0.972   4.198  20.370  0.00  0.00    +0.000 C 
BRANCH   3   4
ATOM      4  C   UNL     1       1.572   2.829  20.094  0.00  0.00    +0.000 C 
BRANCH   4   5
ATOM      5  C   UNL     1       3.050   2.814  20.461  0.00  0.00    +0.000 C 
BRANCH   5   6
ATOM      6  C   UNL     1       3.891   2.459  19.244  0.00  0.00    +0.000 C 
BRANCH   6   7
ATOM      7  C   UNL     1       3.006   2.241  18.025  0.00  0.00    +0.000 C 
BRANCH   7   8
ATOM      8  C   UNL     1       3.239   3.342  16.999  0.00  0.00    +0.000 C 
BRANCH   8   9
ATOM      9  C   UNL     1       4.603   3.987  17.209  0.00  0.00    +0.000 C 
BRANCH   9  10
ATOM     10  C   UNL     1       5.198   4.427  15.876  0.00  0.00    +0.000 C 
BRANCH  10  11
ATOM     11  C   UNL     1       5.538   5.913  15.906  0.00  0.00    +0.000 C 
BRANCH  11  13
ATOM     12  C   UNL     1       7.318   6.907  17.365  0.00  0.00    +0.000 C 
ATOM     13  C   UNL     1       5.901   6.364  17.317  0.00  0.00    +0.000 C 
ENDBRANCH  11  13
ENDBRANCH  10  11
ENDBRANCH   9  10
ENDBRANCH   8   9
ENDBRANCH   7   8
ENDBRANCH   6   7
ENDBRANCH   5   6
ENDBRANCH   4   5
ENDBRANCH   3   4
ENDBRANCH   2   3
ENDBRANCH   1   2
BRANCH   1  14
ATOM     14  C   UNL     1       2.852   7.278  19.029  0.00  0.00    +0.000 C 
BRANCH  14  15
ATOM     15  C   UNL     1       2.032   8.426  18.464  0.00  0.00    +0.000 C 
ATOM     16  O   UNL     1       2.012   8.700  17.269  0.00  0.00    +0.000 OA
ATOM     17  N   UNL     1       1.321   9.082  19.464  0.00  0.00    +0.000 N 
ATOM     18  H   UNL     1       1.396   8.761  20.423  0.00  0.00    +0.000 HD
BRANCH  17  19
ATOM     19  N   UNL     1       0.447  10.150  19.147  0.00  0.00    +0.000 NA
ATOM     20  C   UNL     1      -0.697  10.211  20.085  0.00  0.00    +0.000 C 
ATOM     21  C   UNL     1      -0.297  10.669  21.499  0.00  0.00    +0.000 C 
ATOM     22  N   UNL     1       0.413  11.951  21.496  0.00  0.00    +0.000 NA
ATOM     23  C   UNL     1       1.534  11.949  20.550  0.00  0.00    +0.000 C 
ATOM     24  C   UNL     1       1.140  11.456  19.143  0.00  0.00    +0.000 C 
ATOM     25  H   UNL     1       0.749  12.162  22.434  0.00  0.00    +0.000 HD
ENDBRANCH  17  19
ENDBRANCH  14  15
ENDBRANCH   1  14
TORSDOF 14
ENDMDL
MODEL 3
REMARK VINA RESULT:      -5.8      5.493      8.168
REMARK  Name = 
REMARK  15 active torsions:
REMARK  status: ('A' for Active; 'I' for Inactive)
REMARK    1  A    between atoms: C_1  and  C_2
REMARK    2  A    between atoms: C_2  and  C_3
REMARK    3  A    between atoms: C_3  and  C_4
REMARK    4  A    between atoms: C_4  and  C_5
REMARK    5  A    between atoms: C_5  and  C_6
REMARK    6  A    between atoms: C_6  and  C_7
REMARK    7  A    between atoms: C_7  and  C_8
REMARK    8  A    between atoms: C_8  and  C_9
REMARK    9  A    between atoms: C_9  and  C_10
REMARK   10  A    between atoms: C_10  and  C_11
REMARK   11  A    between atoms: C_11  and  C_12
REMARK   12  A    between atoms: C_12  and  C_13
REMARK   13  A    between atoms: C_13  and  C_14
REMARK   14  A    between atoms: C_14  and  C_15
REMARK   15  A    between atoms: N_17  and  N_18
REMARK                            x       y       z     vdW  Elec       q    Type
REMARK                         _______ _______ _______ _____ _____    ______ ____
ROOT
ATOM      1  C   UNL     1       8.091   7.925  17.468  0.00  0.00    +0.000 C 
ENDROOT
BRANCH   1   2
ATOM      2  C   UNL     1       6.986   7.023  17.999  0.00  0.00    +0.000 C 
BRANCH   2   3
ATOM      3  C   UNL     1       7.544   5.620  18.220  0.00  0.00    +0.000 C 
BRANCH   3   4
ATOM      4  C   UNL     1       6.874   4.616  17.295  0.00  0.00    +0.000 C 
BRANCH   4   5
ATOM      5  C   UNL     1       5.732   5.275  16.533  0.00  0.00    +0.000 C 
BRANCH   5   6
ATOM      6  C   UNL     1       4.453   4.470  16.701  0.00  0.00    +0.000 C 
BRANCH   6   7
ATOM      7  C   UNL     1       4.411   3.809  18.072  0.00  0.00    +0.000 C 
BRANCH   7   8
ATOM      8  C   UNL     1       3.831   2.405  17.964  0.00  0.00    +0.000 C 
BRANCH   8   9
ATOM      9  C   UNL     1       2.314   2.462  17.843  0.00  0.00    +0.000 C 
BRANCH   9  10
ATOM     10  C   UNL     1       1.656   2.040  19.151  0.00  0.00    +0.000 C 
BRANCH  10  11
ATOM     11  C   UNL     1       0.711   3.127  19.650  0.00  0.00    +0.000 C 
BRANCH  11  13
ATOM     12  C   UNL     1       2.283   3.391  21.585  0.00  0.00    +0.000 C 
ATOM     13  C   UNL     1       1.443   4.117  20.550  0.00  0.00    +0.000 C 
ENDBRANCH  11  13
ENDBRANCH  10  11
ENDBRANCH   9  10
ENDBRANCH   8   9
ENDBRANCH   7   8
ENDBRANCH   6   7
ENDBRANCH   5   6
ENDBRANCH   4   5
ENDBRANCH   3   4
ENDBRANCH   2   3
ENDBRANCH   1   2
BRANCH   1  14
ATOM     14  C   UNL     1       7.813   9.400  17.715  0.00  0.00    +0.000 C 
BRANCH  14  15
ATOM     15  C   UNL     1       8.886   9.987  18.617  0.00  0.00    +0.000 C 
ATOM     16  O   UNL     1       9.232   9.454  19.666  0.00  0.00    +0.000 OA
ATOM     17  N   UNL     1       9.409  11.162  18.087  0.00  0.00    +0.000 N 
ATOM     18  H   UNL     1       9.062  11.506  17.198  0.00  0.00    +0.000 HD
BRANCH  17  19
ATOM     19  N   UNL     1      10.463  11.843  18.741  0.00  0.00    +0.000 NA
ATOM     20  C   UNL     1      11.584  12.127  17.815  0.00  0.00    +0.000 C 
ATOM     21  C   UNL     1      11.246  13.202  16.766  0.00  0.00    +0.000 C 
ATOM     22  N   UNL     1      10.774  14.450  17.373  0.00  0.00    +0.000 NA
ATOM     23  C   UNL     1       9.687  14.213  18.329  0.00  0.00    +0.000 C 
ATOM     24  C   UNL     1      10.013  13.110  19.356  0.00  0.00    +0.000 C 
ATOM     25  H   UNL     1      10.463  15.092  16.645  0.00  0.00    +0.000 HD
ENDBRANCH  17  19
ENDBRANCH  14  15
ENDBRANCH   1  14
TORSDOF 14
ENDMDL
MODEL 4
REMARK VINA RESULT:      -5.8      5.646      8.164
REMARK  Name = 
REMARK  15 active torsions:
REMARK  status: ('A' for Active; 'I' for Inactive)
REMARK    1  A    between atoms: C_1  and  C_2
REMARK    2  A    between atoms: C_2  and  C_3
REMARK    3  A    between atoms: C_3  and  C_4
REMARK    4  A    between atoms: C_4  and  C_5
REMARK    5  A    between atoms: C_5  and  C_6
REMARK    6  A    between atoms: C_6  and  C_7
REMARK    7  A    between atoms: C_7  and  C_8
REMARK    8  A    between atoms: C_8  and  C_9
REMARK    9  A    between atoms: C_9  and  C_10
REMARK   10  A    between atoms: C_10  and  C_11
REMARK   11  A    between atoms: C_11  and  C_12
REMARK   12  A    between atoms: C_12  and  C_13
REMARK   13  A    between atoms: C_13  and  C_14
REMARK   14  A    between atoms: C_14  and  C_15
REMARK   15  A    between atoms: N_17  and  N_18
REMARK                            x       y       z     vdW  Elec       q    Type
REMARK                         _______ _______ _______ _____ _____    ______ ____
ROOT
ATOM      1  C   UNL     1       7.499   8.660  17.928  0.00  0.00    +0.000 C 
ENDROOT
BRANCH   1   2
ATOM      2  C   UNL     1       7.607   7.253  17.360  0.00  0.00    +0.000 C 
BRANCH   2   3
ATOM      3  C   UNL     1       7.717   6.253  18.507  0.00  0.00    +0.000 C 
BRANCH   3   4
ATOM      4  C   UNL     1       7.526   4.829  18.010  0.00  0.00    +0.000 C 
BRANCH   4   5
ATOM      5  C   UNL     1       7.177   4.826  16.528  0.00  0.00    +0.000 C 
BRANCH   5   6
ATOM      6  C   UNL     1       5.854   4.111  16.300  0.00  0.00    +0.000 C 
BRANCH   6   7
ATOM      7  C   UNL     1       4.688   5.078  16.448  0.00  0.00    +0.000 C 
BRANCH   7   8
ATOM      8  C   UNL     1       3.854   4.718  17.670  0.00  0.00    +0.000 C 
BRANCH   8   9
ATOM      9  C   UNL     1       3.901   5.840  18.698  0.00  0.00    +0.000 C 
BRANCH   9  10
ATOM     10  C   UNL     1       2.562   5.966  19.416  0.00  0.00    +0.000 C 
BRANCH  10  11
ATOM     11  C   UNL     1       2.463   4.946  20.546  0.00  0.00    +0.000 C 
BRANCH  11  13
ATOM     12  C   UNL     1       1.259   2.837  21.166  0.00  0.00    +0.000 C 
ATOM     13  C   UNL     1       1.141   4.188  20.484  0.00  0.00    +0.000 C 
ENDBRANCH  11  13
ENDBRANCH  10  11
ENDBRANCH   9  10
ENDBRANCH   8   9
ENDBRANCH   7   8
ENDBRANCH   6   7
ENDBRANCH   5   6
ENDBRANCH   4   5
ENDBRANCH   3   4
ENDBRANCH   2   3
ENDBRANCH   1   2
BRANCH   1  14
ATOM     14  C   UNL     1       8.653   9.555  17.501  0.00  0.00    +0.000 C 
BRANCH  14  15
ATOM     15  C   UNL     1       9.039  10.483  18.641  0.00  0.00    +0.000 C 
ATOM     16  O   UNL     1       9.311  10.074  19.763  0.00  0.00    +0.000 OA
ATOM     17  N   UNL     1       9.054  11.812  18.230  0.00  0.00    +0.000 N 
ATOM     18  H   UNL     1       8.829  12.040  17.268  0.00  0.00    +0.000 HD
BRANCH  17  19
ATOM     19  N   UNL     1       9.443  12.840  19.122  0.00  0.00    +0.000 NA
ATOM     20  C   UNL     1      10.737  13.442  18.727  0.00  0.00    +0.000 C 
ATOM     21  C   UNL     1      10.643  14.290  17.445  0.00  0.00    +0.000 C 
ATOM     22  N   UNL     1       9.616  15.331  17.534  0.00  0.00    +0.000 NA
ATOM     23  C   UNL     1       8.324  14.785  17.962  0.00  0.00    +0.000 C 
ATOM     24  C   UNL     1       8.425  13.906  19.225  0.00  0.00    +0.000 C 
ATOM     25  H   UNL     1       9.517  15.796  16.632  0.00  0.00    +0.000 HD
ENDBRANCH  17  19
ENDBRANCH  14  15
ENDBRANCH   1  14
TORSDOF 14
ENDMDL
MODEL 5
REMARK VINA RESULT:      -5.8      5.502      8.084
REMARK  Name = 
REMARK  15 active torsions:
REMARK  status: ('A' for Active; 'I' for Inactive)
REMARK    1  A    between atoms: C_1  and  C_2
REMARK    2  A    between atoms: C_2  and  C_3
REMARK    3  A    between atoms: C_3  and  C_4
REMARK    4  A    between atoms: C_4  and  C_5
REMARK    5  A    between atoms: C_5  and  C_6
REMARK    6  A    between atoms: C_6  and  C_7
REMARK    7  A    between atoms: C_7  and  C_8
REMARK    8  A    between atoms: C_8  and  C_9
REMARK    9  A    between atoms: C_9  and  C_10
REMARK   10  A    between atoms: C_10  and  C_11
REMARK   11  A    between atoms: C_11  and  C_12
REMARK   12  A    between atoms: C_12  and  C_13
REMARK   13  A    between atoms: C_13  and  C_14
REMARK   14  A    between atoms: C_14  and  C_15
REMARK   15  A    between atoms: N_17  and  N_18
REMARK                            x       y       z     vdW  Elec       q    Type
REMARK                         _______ _______ _______ _____ _____    ______ ____
ROOT
ATOM      1  C   UNL     1       7.956   7.844  18.196  0.00  0.00    +0.000 C 
ENDROOT
BRANCH   1   2
ATOM      2  C   UNL     1       7.281   6.915  17.199  0.00  0.00    +0.000 C 
BRANCH   2   3
ATOM      3  C   UNL     1       6.211   6.097  17.917  0.00  0.00    +0.000 C 
BRANCH   3   4
ATOM      4  C   UNL     1       5.083   5.722  16.969  0.00  0.00    +0.000 C 
BRANCH   4   5
ATOM      5  C   UNL     1       3.836   5.337  17.754  0.00  0.00    +0.000 C 
BRANCH   5   6
ATOM      6  C   UNL     1       3.803   6.075  19.084  0.00  0.00    +0.000 C 
BRANCH   6   7
ATOM      7  C   UNL     1       2.369   6.386  19.490  0.00  0.00    +0.000 C 
BRANCH   7   8
ATOM      8  C   UNL     1       1.951   5.513  20.665  0.00  0.00    +0.000 C 
BRANCH   8   9
ATOM      9  C   UNL     1       1.084   4.355  20.188  0.00  0.00    +0.000 C 
BRANCH   9  10
ATOM     10  C   UNL     1       1.170   3.186  21.161  0.00  0.00    +0.000 C 
BRANCH  10  11
ATOM     11  C   UNL     1       2.588   2.625  21.202  0.00  0.00    +0.000 C 
BRANCH  11  13
ATOM     12  C   UNL     1       4.595   1.994  19.839  0.00  0.00    +0.000 C 
ATOM     13  C   UNL     1       3.151   2.460  19.794  0.00  0.00    +0.000 C 
ENDBRANCH  11  13
ENDBRANCH  10  11
ENDBRANCH   9  10
ENDBRANCH   8   9
ENDBRANCH   7   8
ENDBRANCH   6   7
ENDBRANCH   5   6
ENDBRANCH   4   5
ENDBRANCH   3   4
ENDBRANCH   2   3
ENDBRANCH   1   2
BRANCH   1  14
ATOM     14  C   UNL     1       8.078   9.270  17.678  0.00  0.00    +0.000 C 
BRANCH  14  15
ATOM     15  C   UNL     1       8.953  10.089  18.613  0.00  0.00    +0.000 C 
ATOM     16  O   UNL     1       9.237   9.718  19.746  0.00  0.00    +0.000 OA
ATOM     17  N   UNL     1       9.381  11.266  18.007  0.00  0.00    +0.000 N 
ATOM     18  H   UNL     1       9.100  11.467  17.054  0.00  0.00    +0.000 HD
BRANCH  17  19
ATOM     19  N   UNL     1      10.253  12.151  18.684  0.00  0.00    +0.000 NA
ATOM     20  C   UNL     1      11.480  12.413  17.897  0.00  0.00    +0.000 C 
ATOM     21  C   UNL     1      11.224  13.273  16.646  0.00  0.00    +0.000 C 
ATOM     22  N   UNL     1      10.555  14.539  16.961  0.00  0.00    +0.000 NA
ATOM     23  C   UNL     1       9.353  14.330  17.775  0.00  0.00    +0.000 C 
ATOM     24  C   UNL     1       9.603  13.438  19.009  0.00  0.00    +0.000 C 
ATOM     25  H   UNL     1      10.312  15.024  16.099  0.00  0.00    +0.000 HD
ENDBRANCH  17  19
ENDBRANCH  14  15
ENDBRANCH   1  14
TORSDOF 14
ENDMDL
MODEL 6
REMARK VINA RESULT:      -5.7      5.394      7.956
REMARK  Name = 
REMARK  15 active torsions:
REMARK  status: ('A' for Active; 'I' for Inactive)
REMARK    1  A    between atoms: C_1  and  C_2
REMARK    2  A    between atoms: C_2  and  C_3
REMARK    3  A    between atoms: C_3  and  C_4
REMARK    4  A    between atoms: C_4  and  C_5
REMARK    5  A    between atoms: C_5  and  C_6
REMARK    6  A    between atoms: C_6  and  C_7
REMARK    7  A    between atoms: C_7  and  C_8
REMARK    8  A    between atoms: C_8  and  C_9
REMARK    9  A    between atoms: C_9  and  C_10
REMARK   10  A    between atoms: C_10  and  C_11
REMARK   11  A    between atoms: C_11  and  C_12
REMARK   12  A    between atoms: C_12  and  C_13
REMARK   13  A    between atoms: C_13  and  C_14
REMARK   14  A    between atoms: C_14  and  C_15
REMARK   15  A    between atoms: N_17  and  N_18
REMARK                            x       y       z     vdW  Elec       q    Type
REMARK                         _______ _______ _______ _____ _____    ______ ____
ROOT
ATOM      1  C   UNL     1       6.305   4.520  16.428  0.00  0.00    +0.000 C 
ENDROOT
BRANCH   1   2
ATOM      2  C   UNL     1       6.069   5.928  15.904  0.00  0.00    +0.000 C 
BRANCH   2   3
ATOM      3  C   UNL     1       5.942   6.890  17.082  0.00  0.00    +0.000 C 
BRANCH   3   4
ATOM      4  C   UNL     1       7.288   7.111  17.753  0.00  0.00    +0.000 C 
BRANCH   4   5
ATOM      5  C   UNL     1       7.785   8.527  17.493  0.00  0.00    +0.000 C 
BRANCH   5   6
ATOM      6  C   UNL     1       8.714   8.972  18.613  0.00  0.00    +0.000 C 
BRANCH   6   7
ATOM      7  C   UNL     1       9.126  10.425  18.423  0.00  0.00    +0.000 C 
BRANCH   7   8
ATOM      8  C   UNL     1       9.817  10.946  19.676  0.00  0.00    +0.000 C 
BRANCH   8   9
ATOM      9  C   UNL     1      11.134  11.623  19.316  0.00  0.00    +0.000 C 
BRANCH   9  10
ATOM     10  C   UNL     1      11.057  12.238  17.923  0.00  0.00    +0.000 C 
BRANCH  10  11
ATOM     11  C   UNL     1      10.727  13.724  18.011  0.00  0.00    +0.000 C 
BRANCH  11  13
ATOM     12  C   UNL     1      10.995  15.922  16.836  0.00  0.00    +0.000 C 
ATOM     13  C   UNL     1      11.570  14.531  17.029  0.00  0.00    +0.000 C 
ENDBRANCH  11  13
ENDBRANCH  10  11
ENDBRANCH   9  10
ENDBRANCH   8   9
ENDBRANCH   7   8
ENDBRANCH   6   7
ENDBRANCH   5   6
ENDBRANCH   4   5
ENDBRANCH   3   4
ENDBRANCH   2   3
ENDBRANCH   1   2
BRANCH   1  14
ATOM     14  C   UNL     1       5.015   3.822  16.833  0.00  0.00    +0.000 C 
BRANCH  14  15
ATOM     15  C   UNL     1       4.914   3.757  18.349  0.00  0.00    +0.000 C 
ATOM     16  O   UNL     1       5.853   4.033  19.087  0.00  0.00    +0.000 OA
ATOM     17  N   UNL     1       3.641   3.372  18.757  0.00  0.00    +0.000 N 
ATOM     18  H   UNL     1       2.928   3.184  18.059  0.00  0.00    +0.000 HD
BRANCH  17  19
ATOM     19  N   UNL     1       3.313   3.302  20.132  0.00  0.00    +0.000 NA
ATOM     20  C   UNL     1       2.840   4.609  20.644  0.00  0.00    +0.000 C 
ATOM     21  C   UNL     1       1.451   5.002  20.108  0.00  0.00    +0.000 C 
ATOM     22  N   UNL     1       0.439   3.973  20.360  0.00  0.00    +0.000 NA
ATOM     23  C   UNL     1       0.882   2.651  19.903  0.00  0.00    +0.000 C 
ATOM     24  C   UNL     1       2.288   2.273  20.411  0.00  0.00    +0.000 C 
ATOM     25  H   UNL     1      -0.433   4.227  19.899  0.00  0.00    +0.000 HD
ENDBRANCH  17  19
ENDBRANCH  14  15
ENDBRANCH   1  14
TORSDOF 14
ENDMDL
MODEL 7
REMARK VINA RESULT:      -5.7      3.499      7.240
REMARK  Name = 
REMARK  15 active torsions:
REMARK  status: ('A' for Active; 'I' for Inactive)
REMARK    1  A    between atoms: C_1  and  C_2
REMARK    2  A    between atoms: C_2  and  C_3
REMARK    3  A    between atoms: C_3  and  C_4
REMARK    4  A    between atoms: C_4  and  C_5
REMARK    5  A    between atoms: C_5  and  C_6
REMARK    6  A    between atoms: C_6  and  C_7
REMARK    7  A    between atoms: C_7  and  C_8
REMARK    8  A    between atoms: C_8  and  C_9
REMARK    9  A    between atoms: C_9  and  C_10
REMARK   10  A    between atoms: C_10  and  C_11
REMARK   11  A    between atoms: C_11  and  C_12
REMARK   12  A    between atoms: C_12  and  C_13
REMARK   13  A    between atoms: C_13  and  C_14
REMARK   14  A    between atoms: C_14  and  C_15
REMARK   15  A    between atoms: N_17  and  N_18
REMARK                            x       y       z     vdW  Elec       q    Type
REMARK                         _______ _______ _______ _____ _____    ______ ____
ROOT
ATOM      1  C   UNL     1       2.652   6.105  20.119  0.00  0.00    +0.000 C 
ENDROOT
BRANCH   1   2
ATOM      2  C   UNL     1       1.573   5.033  20.164  0.00  0.00    +0.000 C 
BRANCH   2   3
ATOM      3  C   UNL     1       1.967   3.963  21.178  0.00  0.00    +0.000 C 
BRANCH   3   4
ATOM      4  C   UNL     1       2.099   2.602  20.512  0.00  0.00    +0.000 C 
BRANCH   4   5
ATOM      5  C   UNL     1       3.518   2.399  19.997  0.00  0.00    +0.000 C 
BRANCH   5   6
ATOM      6  C   UNL     1       3.489   1.750  18.621  0.00  0.00    +0.000 C 
BRANCH   6   7
ATOM      7  C   UNL     1       2.443   2.412  17.736  0.00  0.00    +0.000 C 
BRANCH   7   8
ATOM      8  C   UNL     1       2.994   3.701  17.141  0.00  0.00    +0.000 C 
BRANCH   8   9
ATOM      9  C   UNL     1       4.498   3.590  16.927  0.00  0.00    +0.000 C 
BRANCH   9  10
ATOM     10  C   UNL     1       5.225   4.723  17.641  0.00  0.00    +0.000 C 
BRANCH  10  11
ATOM     11  C   UNL     1       4.853   6.069  17.026  0.00  0.00    +0.000 C 
BRANCH  11  13
ATOM     12  C   UNL     1       7.253   6.376  17.684  0.00  0.00    +0.000 C 
ATOM     13  C   UNL     1       6.023   7.045  17.098  0.00  0.00    +0.000 C 
ENDBRANCH  11  13
ENDBRANCH  10  11
ENDBRANCH   9  10
ENDBRANCH   8   9
ENDBRANCH   7   8
ENDBRANCH   6   7
ENDBRANCH   5   6
ENDBRANCH   4   5
ENDBRANCH   3   4
ENDBRANCH   2   3
ENDBRANCH   1   2
BRANCH   1  14
ATOM     14  C   UNL     1       2.225   7.332  19.328  0.00  0.00    +0.000 C 
BRANCH  14  15
ATOM     15  C   UNL     1       1.520   8.320  20.242  0.00  0.00    +0.000 C 
ATOM     16  O   UNL     1       1.331   8.101  21.433  0.00  0.00    +0.000 OA
ATOM     17  N   UNL     1       1.151   9.473  19.556  0.00  0.00    +0.000 N 
ATOM     18  H   UNL     1       1.373   9.560  18.570  0.00  0.00    +0.000 HD
BRANCH  17  19
ATOM     19  N   UNL     1       0.530  10.549  20.234  0.00  0.00    +0.000 NA
ATOM     20  C   UNL     1       1.271  11.816  20.036  0.00  0.00    +0.000 C 
ATOM     21  C   UNL     1       1.159  12.366  18.603  0.00  0.00    +0.000 C 
ATOM     22  N   UNL     1      -0.231  12.532  18.172  0.00  0.00    +0.000 NA
ATOM     23  C   UNL     1      -1.016  11.311  18.385  0.00  0.00    +0.000 C 
ATOM     24  C   UNL     1      -0.874  10.740  19.811  0.00  0.00    +0.000 C 
ATOM     25  H   UNL     1      -0.258  12.796  17.188  0.00  0.00    +0.000 HD
ENDBRANCH  17  19
ENDBRANCH  14  15
ENDBRANCH   1  14
TORSDOF 14
ENDMDL
MODEL 8
REMARK VINA RESULT:      -5.7      6.673      8.746
REMARK  Name = 
REMARK  15 active torsions:
REMARK  status: ('A' for Active; 'I' for Inactive)
REMARK    1  A    between atoms: C_1  and  C_2
REMARK    2  A    between atoms: C_2  and  C_3
REMARK    3  A    between atoms: C_3  and  C_4
REMARK    4  A    between atoms: C_4  and  C_5
REMARK    5  A    between atoms: C_5  and  C_6
REMARK    6  A    between atoms: C_6  and  C_7
REMARK    7  A    between atoms: C_7  and  C_8
REMARK    8  A    between atoms: C_8  and  C_9
REMARK    9  A    between atoms: C_9  and  C_10
REMARK   10  A    between atoms: C_10  and  C_11
REMARK   11  A    between atoms: C_11  and  C_12
REMARK   12  A    between atoms: C_12  and  C_13
REMARK   13  A    between atoms: C_13  and  C_14
REMARK   14  A    between atoms: C_14  and  C_15
REMARK   15  A    between atoms: N_17  and  N_18
REMARK                            x       y       z     vdW  Elec       q    Type
REMARK                         _______ _______ _______ _____ _____    ______ ____
ROOT
ATOM      1  C   UNL     1       7.910   8.723  17.811  0.00  0.00    +0.000 C 
ENDROOT
BRANCH   1   2
ATOM      2  C   UNL     1       8.833   9.518  18.722  0.00  0.00    +0.000 C 
BRANCH   2   3
ATOM      3  C   UNL     1       9.070  10.899  18.118  0.00  0.00    +0.000 C 
BRANCH   3   4
ATOM      4  C   UNL     1      10.484  11.383  18.400  0.00  0.00    +0.000 C 
BRANCH   4   5
ATOM      5  C   UNL     1      10.864  12.501  17.439  0.00  0.00    +0.000 C 
BRANCH   5   6
ATOM      6  C   UNL     1      11.668  13.569  18.166  0.00  0.00    +0.000 C 
BRANCH   6   7
ATOM      7  C   UNL     1      10.871  14.862  18.271  0.00  0.00    +0.000 C 
BRANCH   7   8
ATOM      8  C   UNL     1      10.960  15.424  19.683  0.00  0.00    +0.000 C 
BRANCH   8   9
ATOM      9  C   UNL     1      10.857  14.304  20.711  0.00  0.00    +0.000 C 
BRANCH   9  10
ATOM     10  C   UNL     1       9.560  14.422  21.503  0.00  0.00    +0.000 C 
BRANCH  10  11
ATOM     11  C   UNL     1       8.577  13.333  21.084  0.00  0.00    +0.000 C 
BRANCH  11  13
ATOM     12  C   UNL     1       8.158  11.796  23.020  0.00  0.00    +0.000 C 
ATOM     13  C   UNL     1       8.932  11.998  21.730  0.00  0.00    +0.000 C 
ENDBRANCH  11  13
ENDBRANCH  10  11
ENDBRANCH   9  10
ENDBRANCH   8   9
ENDBRANCH   7   8
ENDBRANCH   6   7
ENDBRANCH   5   6
ENDBRANCH   4   5
ENDBRANCH   3   4
ENDBRANCH   2   3
ENDBRANCH   1   2
BRANCH   1  14
ATOM     14  C   UNL     1       7.954   7.228  18.093  0.00  0.00    +0.000 C 
BRANCH  14  15
ATOM     15  C   UNL     1       6.884   6.515  17.281  0.00  0.00    +0.000 C 
ATOM     16  O   UNL     1       7.023   6.250  16.093  0.00  0.00    +0.000 OA
ATOM     17  N   UNL     1       5.776   6.206  18.063  0.00  0.00    +0.000 N 
ATOM     18  H   UNL     1       5.772   6.457  19.046  0.00  0.00    +0.000 HD
BRANCH  17  19
ATOM     19  N   UNL     1       4.684   5.489  17.517  0.00  0.00    +0.000 NA
ATOM     20  C   UNL     1       4.825   4.032  17.740  0.00  0.00    +0.000 C 
ATOM     21  C   UNL     1       4.640   3.624  19.213  0.00  0.00    +0.000 C 
ATOM     22  N   UNL     1       3.368   4.091  19.769  0.00  0.00    +0.000 NA
ATOM     23  C   UNL     1       3.167   5.526  19.538  0.00  0.00    +0.000 C 
ATOM     24  C   UNL     1       3.388   5.939  18.068  0.00  0.00    +0.000 C 
ATOM     25  H   UNL     1       3.334   3.892  20.768  0.00  0.00    +0.000 HD
ENDBRANCH  17  19
ENDBRANCH  14  15
ENDBRANCH   1  14
TORSDOF 14
ENDMDL
MODEL 9
REMARK VINA RESULT:      -5.7      5.506      7.760
REMARK  Name = 
REMARK  15 active torsions:
REMARK  status: ('A' for Active; 'I' for Inactive)
REMARK    1  A    between atoms: C_1  and  C_2
REMARK    2  A    between atoms: C_2  and  C_3
REMARK    3  A    between atoms: C_3  and  C_4
REMARK    4  A    between atoms: C_4  and  C_5
REMARK    5  A    between atoms: C_5  and  C_6
REMARK    6  A    between atoms: C_6  and  C_7
REMARK    7  A    between atoms: C_7  and  C_8
REMARK    8  A    between atoms: C_8  and  C_9
REMARK    9  A    between atoms: C_9  and  C_10
REMARK   10  A    between atoms: C_10  and  C_11
REMARK   11  A    between atoms: C_11  and  C_12
REMARK   12  A    between atoms: C_12  and  C_13
REMARK   13  A    between atoms: C_13  and  C_14
REMARK   14  A    between atoms: C_14  and  C_15
REMARK   15  A    between atoms: N_17  and  N_18
REMARK                            x       y       z     vdW  Elec       q    Type
REMARK                         _______ _______ _______ _____ _____    ______ ____
ROOT
ATOM      1  C   UNL     1       6.890   6.096  18.193  0.00  0.00    +0.000 C 
ENDROOT
BRANCH   1   2
ATOM      2  C   UNL     1       8.082   6.986  18.512  0.00  0.00    +0.000 C 
BRANCH   2   3
ATOM      3  C   UNL     1       7.883   8.350  17.856  0.00  0.00    +0.000 C 
BRANCH   3   4
ATOM      4  C   UNL     1       8.674   9.425  18.583  0.00  0.00    +0.000 C 
BRANCH   4   5
ATOM      5  C   UNL     1       8.728  10.699  17.750  0.00  0.00    +0.000 C 
BRANCH   5   6
ATOM      6  C   UNL     1       9.608  11.736  18.432  0.00  0.00    +0.000 C 
BRANCH   6   7
ATOM      7  C   UNL     1      10.650  11.061  19.311  0.00  0.00    +0.000 C 
BRANCH   7   8
ATOM      8  C   UNL     1      11.161  12.033  20.366  0.00  0.00    +0.000 C 
BRANCH   8   9
ATOM      9  C   UNL     1      10.117  13.102  20.658  0.00  0.00    +0.000 C 
BRANCH   9  10
ATOM     10  C   UNL     1       9.499  12.886  22.034  0.00  0.00    +0.000 C 
BRANCH  10  11
ATOM     11  C   UNL     1       8.326  11.915  21.949  0.00  0.00    +0.000 C 
BRANCH  11  13
ATOM     12  C   UNL     1       8.247  11.817  24.452  0.00  0.00    +0.000 C 
ATOM     13  C   UNL     1       7.438  12.019  23.184  0.00  0.00    +0.000 C 
ENDBRANCH  11  13
ENDBRANCH  10  11
ENDBRANCH   9  10
ENDBRANCH   8   9
ENDBRANCH   7   8
ENDBRANCH   6   7
ENDBRANCH   5   6
ENDBRANCH   4   5
ENDBRANCH   3   4
ENDBRANCH   2   3
ENDBRANCH   1   2
BRANCH   1  14
ATOM     14  C   UNL     1       7.293   4.806  17.494  0.00  0.00    +0.000 C 
BRANCH  14  15
ATOM     15  C   UNL     1       6.069   4.139  16.888  0.00  0.00    +0.000 C 
ATOM     16  O   UNL     1       5.950   3.946  15.683  0.00  0.00    +0.000 OA
ATOM     17  N   UNL     1       5.149   3.780  17.867  0.00  0.00    +0.000 N 
ATOM     18  H   UNL     1       5.356   3.972  18.841  0.00  0.00    +0.000 HD
BRANCH  17  19
ATOM     19  N   UNL     1       3.959   3.094  17.524  0.00  0.00    +0.000 NA
ATOM     20  C   UNL     1       3.668   2.000  18.479  0.00  0.00    +0.000 C 
ATOM     21  C   UNL     1       3.235   2.508  19.866  0.00  0.00    +0.000 C 
ATOM     22  N   UNL     1       2.094   3.425  19.798  0.00  0.00    +0.000 NA
ATOM     23  C   UNL     1       2.323   4.506  18.833  0.00  0.00    +0.000 C 
ATOM     24  C   UNL     1       2.792   3.999  17.454  0.00  0.00    +0.000 C 
ATOM     25  H   UNL     1       1.910   3.816  20.721  0.00  0.00    +0.000 HD
ENDBRANCH  17  19
ENDBRANCH  14  15
ENDBRANCH   1  14
TORSDOF 14
ENDMDL
