MODEL 1
REMARK VINA RESULT:      -7.6      0.000      0.000
REMARK  Name = 
REMARK  7 active torsions:
REMARK  status: ('A' for Active; 'I' for Inactive)
REMARK    1  A    between atoms: C_1  and  N_2
REMARK    2  A    between atoms: N_5  and  C_6
REMARK    3  A    between atoms: C_6  and  C_7
REMARK    4  A    between atoms: C_16  and  C_17
REMARK    5  A    between atoms: C_16  and  C_18
REMARK    6  A    between atoms: C_26  and  C_27
REMARK    7  A    between atoms: C_26  and  C_28
REMARK                            x       y       z     vdW  Elec       q    Type
REMARK                         _______ _______ _______ _____ _____    ______ ____
ROOT
ATOM      1  C   UNL     1       1.971   7.370  20.113  0.00  0.00    +0.000 C 
ATOM      2  O   UNL     1       1.600   6.621  21.018  0.00  0.00    +0.000 OA
ATOM      3  N   UNL     1       1.552   8.745  19.957  0.00  0.00    +0.000 N 
ATOM      4  C   UNL     1       0.798   9.399  21.057  0.00  0.00    +0.000 A 
ATOM      5  C   UNL     1       0.697   8.822  22.342  0.00  0.00    +0.000 A 
ATOM      6  C   UNL     1      -0.098   9.357  23.370  0.00  0.00    +0.000 A 
ATOM      7  C   UNL     1      -0.794  10.531  23.172  0.00  0.00    +0.000 A 
ATOM      8  C   UNL     1      -0.665  11.171  21.954  0.00  0.00    +0.000 A 
ATOM      9  C   UNL     1       0.132  10.640  20.896  0.00  0.00    +0.000 A 
ATOM     10  C   UNL     1       0.207  11.483  19.627  0.00  0.00    +0.000 C 
ATOM     11  C   UNL     1       0.792  12.882  20.038  0.00  0.00    +0.000 C 
ATOM     12  C   UNL     1       1.243  10.897  18.678  0.00  0.00    +0.000 C 
ATOM     13  C   UNL     1       1.344   9.365  18.573  0.00  0.00    +0.000 C 
ATOM     14  C   UNL     1       0.117   8.688  17.938  0.00  0.00    +0.000 C 
ATOM     15  C   UNL     1       2.517   9.237  17.540  0.00  0.00    +0.000 C 
ENDROOT
BRANCH  10  16
ATOM     16  C   UNL     1      -1.168  11.682  18.934  0.00  0.00    +0.000 A 
ATOM     17  C   UNL     1      -2.304  12.086  19.663  0.00  0.00    +0.000 A 
ATOM     18  C   UNL     1      -3.577  12.089  19.083  0.00  0.00    +0.000 A 
ATOM     19  C   UNL     1      -3.732  11.740  17.747  0.00  0.00    +0.000 A 
ATOM     20 CL   UNL     1      -5.304  11.663  17.056  0.00  0.00    +0.000 Cl
ATOM     21  C   UNL     1      -2.620  11.426  16.977  0.00  0.00    +0.000 A 
ATOM     22  C   UNL     1      -1.354  11.389  17.569  0.00  0.00    +0.000 A 
ENDBRANCH  10  16
BRANCH   1  23
ATOM     23  C   UNL     1       2.960   6.858  19.062  0.00  0.00    +0.000 C 
BRANCH  23  28
ATOM     24  C   UNL     1       7.157   5.100  17.246  0.00  0.00    +0.000 C 
ATOM     25  N   UNL     1       5.821   4.786  17.740  0.00  0.00    +0.000 NA
ATOM     26  C   UNL     1       4.771   5.417  16.930  0.00  0.00    +0.000 C 
ATOM     27  C   UNL     1       3.355   5.087  17.471  0.00  0.00    +0.000 C 
ATOM     28  N   UNL     1       3.137   5.398  18.912  0.00  0.00    +0.000 NA
ATOM     29  C   UNL     1       4.253   4.831  19.686  0.00  0.00    +0.000 C 
ATOM     30  C   UNL     1       5.668   5.169  19.154  0.00  0.00    +0.000 C 
ENDBRANCH  23  28
ENDBRANCH   1  23
TORSDOF 3
ENDMDL
MODEL 2
REMARK VINA RESULT:      -7.4      0.923      1.350
REMARK  Name = 
REMARK  7 active torsions:
REMARK  status: ('A' for Active; 'I' for Inactive)
REMARK    1  A    between atoms: C_1  and  N_2
REMARK    2  A    between atoms: N_5  and  C_6
REMARK    3  A    between atoms: C_6  and  C_7
REMARK    4  A    between atoms: C_16  and  C_17
REMARK    5  A    between atoms: C_16  and  C_18
REMARK    6  A    between atoms: C_26  and  C_27
REMARK    7  A    between atoms: C_26  and  C_28
REMARK                            x       y       z     vdW  Elec       q    Type
REMARK                         _______ _______ _______ _____ _____    ______ ____
ROOT
ATOM      1  C   UNL     1       1.893   7.478  20.169  0.00  0.00    +0.000 C 
ATOM      2  O   UNL     1       1.541   6.735  21.087  0.00  0.00    +0.000 OA
ATOM      3  N   UNL     1       1.447   8.843  19.997  0.00  0.00    +0.000 N 
ATOM      4  C   UNL     1       0.688   9.498  21.093  0.00  0.00    +0.000 A 
ATOM      5  C   UNL     1       0.606   8.937  22.386  0.00  0.00    +0.000 A 
ATOM      6  C   UNL     1      -0.192   9.472  23.411  0.00  0.00    +0.000 A 
ATOM      7  C   UNL     1      -0.912  10.630  23.202  0.00  0.00    +0.000 A 
ATOM      8  C   UNL     1      -0.802  11.255  21.974  0.00  0.00    +0.000 A 
ATOM      9  C   UNL     1      -0.002  10.724  20.918  0.00  0.00    +0.000 A 
ATOM     10  C   UNL     1       0.049  11.550  19.637  0.00  0.00    +0.000 C 
ATOM     11  C   UNL     1       0.610  12.966  20.025  0.00  0.00    +0.000 C 
ATOM     12  C   UNL     1       1.089  10.970  18.689  0.00  0.00    +0.000 C 
ATOM     13  C   UNL     1       1.218   9.439  18.605  0.00  0.00    +0.000 C 
ATOM     14  C   UNL     1      -0.000   8.730  17.988  0.00  0.00    +0.000 C 
ATOM     15  C   UNL     1       2.387   9.319  17.566  0.00  0.00    +0.000 C 
ENDROOT
BRANCH  10  16
ATOM     16  C   UNL     1      -1.334  11.714  18.951  0.00  0.00    +0.000 A 
ATOM     17  C   UNL     1      -2.472  12.112  19.681  0.00  0.00    +0.000 A 
ATOM     18  C   UNL     1      -3.748  12.083  19.110  0.00  0.00    +0.000 A 
ATOM     19  C   UNL     1      -3.907  11.708  17.781  0.00  0.00    +0.000 A 
ATOM     20 CL   UNL     1      -5.482  11.592  17.103  0.00  0.00    +0.000 Cl
ATOM     21  C   UNL     1      -2.795  11.398  17.009  0.00  0.00    +0.000 A 
ATOM     22  C   UNL     1      -1.525  11.394  17.592  0.00  0.00    +0.000 A 
ENDBRANCH  10  16
BRANCH   1  23
ATOM     23  C   UNL     1       2.884   6.970  19.119  0.00  0.00    +0.000 C 
BRANCH  23  28
ATOM     24  C   UNL     1       4.455   2.392  19.877  0.00  0.00    +0.000 C 
ATOM     25  N   UNL     1       3.676   3.283  19.026  0.00  0.00    +0.000 NA
ATOM     26  C   UNL     1       4.499   4.354  18.449  0.00  0.00    +0.000 C 
ATOM     27  C   UNL     1       3.659   5.303  17.555  0.00  0.00    +0.000 C 
ATOM     28  N   UNL     1       2.454   5.889  18.207  0.00  0.00    +0.000 NA
ATOM     29  C   UNL     1       1.699   4.803  18.853  0.00  0.00    +0.000 C 
ATOM     30  C   UNL     1       2.535   3.861  19.755  0.00  0.00    +0.000 C 
ENDBRANCH  23  28
ENDBRANCH   1  23
TORSDOF 3
ENDMDL
MODEL 3
REMARK VINA RESULT:      -7.2      4.510      9.075
REMARK  Name = 
REMARK  7 active torsions:
REMARK  status: ('A' for Active; 'I' for Inactive)
REMARK    1  A    between atoms: C_1  and  N_2
REMARK    2  A    between atoms: N_5  and  C_6
REMARK    3  A    between atoms: C_6  and  C_7
REMARK    4  A    between atoms: C_16  and  C_17
REMARK    5  A    between atoms: C_16  and  C_18
REMARK    6  A    between atoms: C_26  and  C_27
REMARK    7  A    between atoms: C_26  and  C_28
REMARK                            x       y       z     vdW  Elec       q    Type
REMARK                         _______ _______ _______ _____ _____    ______ ____
ROOT
ATOM      1  C   UNL     1      -3.148  12.987  21.172  0.00  0.00    +0.000 C 
ATOM      2  O   UNL     1      -4.297  12.641  20.893  0.00  0.00    +0.000 OA
ATOM      3  N   UNL     1      -1.957  12.494  20.519  0.00  0.00    +0.000 N 
ATOM      4  C   UNL     1      -2.095  11.682  19.283  0.00  0.00    +0.000 A 
ATOM      5  C   UNL     1      -3.318  11.588  18.582  0.00  0.00    +0.000 A 
ATOM      6  C   UNL     1      -3.511  10.744  17.476  0.00  0.00    +0.000 A 
ATOM      7  C   UNL     1      -2.468   9.986  16.987  0.00  0.00    +0.000 A 
ATOM      8  C   UNL     1      -1.232  10.102  17.596  0.00  0.00    +0.000 A 
ATOM      9  C   UNL     1      -1.018  10.950  18.724  0.00  0.00    +0.000 A 
ATOM     10  C   UNL     1       0.410  11.002  19.259  0.00  0.00    +0.000 C 
ATOM     11  C   UNL     1       1.324  11.498  18.081  0.00  0.00    +0.000 C 
ATOM     12  C   UNL     1       0.525  12.088  20.319  0.00  0.00    +0.000 C 
ATOM     13  C   UNL     1      -0.653  12.278  21.291  0.00  0.00    +0.000 C 
ATOM     14  C   UNL     1      -0.873  11.104  22.262  0.00  0.00    +0.000 C 
ATOM     15  C   UNL     1      -0.112  13.477  22.146  0.00  0.00    +0.000 C 
ENDROOT
BRANCH  10  16
ATOM     16  C   UNL     1       0.928   9.632  19.773  0.00  0.00    +0.000 A 
ATOM     17  C   UNL     1       1.846   8.868  19.026  0.00  0.00    +0.000 A 
ATOM     18  C   UNL     1       2.174   7.559  19.395  0.00  0.00    +0.000 A 
ATOM     19  C   UNL     1       1.631   7.007  20.549  0.00  0.00    +0.000 A 
ATOM     20 CL   UNL     1       1.966   5.371  20.958  0.00  0.00    +0.000 Cl
ATOM     21  C   UNL     1       0.794   7.766  21.356  0.00  0.00    +0.000 A 
ATOM     22  C   UNL     1       0.442   9.061  20.966  0.00  0.00    +0.000 A 
ENDBRANCH  10  16
BRANCH   1  23
ATOM     23  C   UNL     1      -2.915  14.025  22.275  0.00  0.00    +0.000 C 
BRANCH  23  28
ATOM     24  C   UNL     1      -4.646  17.694  25.021  0.00  0.00    +0.000 C 
ATOM     25  N   UNL     1      -4.347  16.269  24.947  0.00  0.00    +0.000 NA
ATOM     26  C   UNL     1      -2.921  16.015  24.712  0.00  0.00    +0.000 C 
ATOM     27  C   UNL     1      -2.616  14.496  24.622  0.00  0.00    +0.000 C 
ATOM     28  N   UNL     1      -3.432  13.742  23.630  0.00  0.00    +0.000 NA
ATOM     29  C   UNL     1      -4.849  14.088  23.833  0.00  0.00    +0.000 C 
ATOM     30  C   UNL     1      -5.156  15.604  23.911  0.00  0.00    +0.000 C 
ENDBRANCH  23  28
ENDBRANCH   1  23
TORSDOF 3
ENDMDL
MODEL 4
REMARK VINA RESULT:      -7.1      4.651      9.120
REMARK  Name = 
REMARK  7 active torsions:
REMARK  status: ('A' for Active; 'I' for Inactive)
REMARK    1  A    between atoms: C_1  and  N_2
REMARK    2  A    between atoms: N_5  and  C_6
REMARK    3  A    between atoms: C_6  and  C_7
REMARK    4  A    between atoms: C_16  and  C_17
REMARK    5  A    between atoms: C_16  and  C_18
REMARK    6  A    between atoms: C_26  and  C_27
REMARK    7  A    between atoms: C_26  and  C_28
REMARK                            x       y       z     vdW  Elec       q    Type
REMARK                         _______ _______ _______ _____ _____    ______ ____
ROOT
ATOM      1  C   UNL     1      -3.930  13.083  22.411  0.00  0.00    +0.000 C 
ATOM      2  O   UNL     1      -5.031  12.553  22.254  0.00  0.00    +0.000 OA
ATOM      3  N   UNL     1      -2.841  13.017  21.463  0.00  0.00    +0.000 N 
ATOM      4  C   UNL     1      -3.097  12.471  20.106  0.00  0.00    +0.000 A 
ATOM      5  C   UNL     1      -4.406  12.252  19.622  0.00  0.00    +0.000 A 
ATOM      6  C   UNL     1      -4.681  11.635  18.390  0.00  0.00    +0.000 A 
ATOM      7  C   UNL     1      -3.650  11.250  17.558  0.00  0.00    +0.000 A 
ATOM      8  C   UNL     1      -2.353  11.512  17.958  0.00  0.00    +0.000 A 
ATOM      9  C   UNL     1      -2.054  12.132  19.208  0.00  0.00    +0.000 A 
ATOM     10  C   UNL     1      -0.577  12.392  19.488  0.00  0.00    +0.000 C 
ATOM     11  C   UNL     1      -0.045  13.315  18.333  0.00  0.00    +0.000 C 
ATOM     12  C   UNL     1      -0.431  13.232  20.750  0.00  0.00    +0.000 C 
ATOM     13  C   UNL     1      -1.383  12.945  21.924  0.00  0.00    +0.000 C 
ATOM     14  C   UNL     1      -1.173  11.576  22.595  0.00  0.00    +0.000 C 
ATOM     15  C   UNL     1      -0.893  14.030  22.945  0.00  0.00    +0.000 C 
ENDROOT
BRANCH  10  16
ATOM     16  C   UNL     1       0.278  11.098  19.550  0.00  0.00    +0.000 A 
ATOM     17  C   UNL     1       1.193  10.775  18.530  0.00  0.00    +0.000 A 
ATOM     18  C   UNL     1       1.828   9.529  18.489  0.00  0.00    +0.000 A 
ATOM     19  C   UNL     1       1.601   8.601  19.499  0.00  0.00    +0.000 A 
ATOM     20 CL   UNL     1       2.314   7.040  19.407  0.00  0.00    +0.000 Cl
ATOM     21  C   UNL     1       0.775   8.924  20.567  0.00  0.00    +0.000 A 
ATOM     22  C   UNL     1       0.115  10.156  20.586  0.00  0.00    +0.000 A 
ENDBRANCH  10  16
BRANCH   1  23
ATOM     23  C   UNL     1      -3.653  13.894  23.681  0.00  0.00    +0.000 C 
BRANCH  23  28
ATOM     24  C   UNL     1      -1.568  18.270  22.975  0.00  0.00    +0.000 C 
ATOM     25  N   UNL     1      -2.761  17.548  23.398  0.00  0.00    +0.000 NA
ATOM     26  C   UNL     1      -2.503  16.688  24.559  0.00  0.00    +0.000 C 
ATOM     27  C   UNL     1      -3.777  15.915  24.994  0.00  0.00    +0.000 C 
ATOM     28  N   UNL     1      -4.437  15.124  23.917  0.00  0.00    +0.000 NA
ATOM     29  C   UNL     1      -4.599  15.988  22.736  0.00  0.00    +0.000 C 
ATOM     30  C   UNL     1      -3.326  16.752  22.295  0.00  0.00    +0.000 C 
ENDBRANCH  23  28
ENDBRANCH   1  23
TORSDOF 3
ENDMDL
MODEL 5
REMARK VINA RESULT:      -7.0      0.923      1.508
REMARK  Name = 
REMARK  7 active torsions:
REMARK  status: ('A' for Active; 'I' for Inactive)
REMARK    1  A    between atoms: C_1  and  N_2
REMARK    2  A    between atoms: N_5  and  C_6
REMARK    3  A    between atoms: C_6  and  C_7
REMARK    4  A    between atoms: C_16  and  C_17
REMARK    5  A    between atoms: C_16  and  C_18
REMARK    6  A    between atoms: C_26  and  C_27
REMARK    7  A    between atoms: C_26  and  C_28
REMARK                            x       y       z     vdW  Elec       q    Type
REMARK                         _______ _______ _______ _____ _____    ______ ____
ROOT
ATOM      1  C   UNL     1       1.773   7.584  20.120  0.00  0.00    +0.000 C 
ATOM      2  O   UNL     1       1.442   6.830  21.037  0.00  0.00    +0.000 OA
ATOM      3  N   UNL     1       1.320   8.949  19.971  0.00  0.00    +0.000 N 
ATOM      4  C   UNL     1       0.581   9.591  21.088  0.00  0.00    +0.000 A 
ATOM      5  C   UNL     1       0.527   9.016  22.377  0.00  0.00    +0.000 A 
ATOM      6  C   UNL     1      -0.252   9.538  23.424  0.00  0.00    +0.000 A 
ATOM      7  C   UNL     1      -0.978  10.696  23.241  0.00  0.00    +0.000 A 
ATOM      8  C   UNL     1      -0.896  11.335  22.017  0.00  0.00    +0.000 A 
ATOM      9  C   UNL     1      -0.115  10.816  20.940  0.00  0.00    +0.000 A 
ATOM     10  C   UNL     1      -0.092  11.656  19.667  0.00  0.00    +0.000 C 
ATOM     11  C   UNL     1       0.473  13.069  20.058  0.00  0.00    +0.000 C 
ATOM     12  C   UNL     1       0.930  11.089  18.692  0.00  0.00    +0.000 C 
ATOM     13  C   UNL     1       1.062   9.558  18.590  0.00  0.00    +0.000 C 
ATOM     14  C   UNL     1      -0.167   8.853  17.991  0.00  0.00    +0.000 C 
ATOM     15  C   UNL     1       2.209   9.452  17.526  0.00  0.00    +0.000 C 
ENDROOT
BRANCH  10  16
ATOM     16  C   UNL     1      -1.489  11.822  19.011  0.00  0.00    +0.000 A 
ATOM     17  C   UNL     1      -2.607  12.237  19.761  0.00  0.00    +0.000 A 
ATOM     18  C   UNL     1      -3.897  12.212  19.220  0.00  0.00    +0.000 A 
ATOM     19  C   UNL     1      -4.088  11.823  17.899  0.00  0.00    +0.000 A 
ATOM     20 CL   UNL     1      -5.679  11.712  17.258  0.00  0.00    +0.000 Cl
ATOM     21  C   UNL     1      -2.996  11.497  17.106  0.00  0.00    +0.000 A 
ATOM     22  C   UNL     1      -1.713  11.489  17.660  0.00  0.00    +0.000 A 
ENDBRANCH  10  16
BRANCH   1  23
ATOM     23  C   UNL     1       2.744   7.089  19.045  0.00  0.00    +0.000 C 
BRANCH  23  28
ATOM     24  C   UNL     1       2.647   2.520  17.280  0.00  0.00    +0.000 C 
ATOM     25  N   UNL     1       3.324   3.470  18.154  0.00  0.00    +0.000 NA
ATOM     26  C   UNL     1       2.443   3.962  19.221  0.00  0.00    +0.000 C 
ATOM     27  C   UNL     1       3.169   4.981  20.139  0.00  0.00    +0.000 C 
ATOM     28  N   UNL     1       3.801   6.132  19.435  0.00  0.00    +0.000 NA
ATOM     29  C   UNL     1       4.603   5.611  18.316  0.00  0.00    +0.000 C 
ATOM     30  C   UNL     1       3.876   4.602  17.392  0.00  0.00    +0.000 C 
ENDBRANCH  23  28
ENDBRANCH   1  23
TORSDOF 3
ENDMDL
MODEL 6
REMARK VINA RESULT:      -6.9      7.920     10.997
REMARK  Name = 
REMARK  7 active torsions:
REMARK  status: ('A' for Active; 'I' for Inactive)
REMARK    1  A    between atoms: C_1  and  N_2
REMARK    2  A    between atoms: N_5  and  C_6
REMARK    3  A    between atoms: C_6  and  C_7
REMARK    4  A    between atoms: C_16  and  C_17
REMARK    5  A    between atoms: C_16  and  C_18
REMARK    6  A    between atoms: C_26  and  C_27
REMARK    7  A    between atoms: C_26  and  C_28
REMARK                            x       y       z     vdW  Elec       q    Type
REMARK                         _______ _______ _______ _____ _____    ______ ____
ROOT
ATOM      1  C   UNL     1       6.404  14.788  18.455  0.00  0.00    +0.000 C 
ATOM      2  O   UNL     1       6.505  13.905  17.602  0.00  0.00    +0.000 OA
ATOM      3  N   UNL     1       7.267  14.925  19.607  0.00  0.00    +0.000 N 
ATOM      4  C   UNL     1       8.500  14.100  19.687  0.00  0.00    +0.000 A 
ATOM      5  C   UNL     1       8.993  13.381  18.575  0.00  0.00    +0.000 A 
ATOM      6  C   UNL     1      10.090  12.506  18.646  0.00  0.00    +0.000 A 
ATOM      7  C   UNL     1      10.779  12.346  19.830  0.00  0.00    +0.000 A 
ATOM      8  C   UNL     1      10.377  13.088  20.926  0.00  0.00    +0.000 A 
ATOM      9  C   UNL     1       9.262  13.977  20.875  0.00  0.00    +0.000 A 
ATOM     10  C   UNL     1       8.969  14.754  22.154  0.00  0.00    +0.000 C 
ATOM     11  C   UNL     1      10.257  15.589  22.491  0.00  0.00    +0.000 C 
ATOM     12  C   UNL     1       7.893  15.799  21.889  0.00  0.00    +0.000 C 
ATOM     13  C   UNL     1       6.732  15.419  20.953  0.00  0.00    +0.000 C 
ATOM     14  C   UNL     1       5.794  14.334  21.510  0.00  0.00    +0.000 C 
ATOM     15  C   UNL     1       5.924  16.764  20.960  0.00  0.00    +0.000 C 
ENDROOT
BRANCH  10  16
ATOM     16  C   UNL     1       8.611  13.847  23.362  0.00  0.00    +0.000 A 
ATOM     17  C   UNL     1       8.292  12.486  23.186  0.00  0.00    +0.000 A 
ATOM     18  C   UNL     1       7.794  11.713  24.241  0.00  0.00    +0.000 A 
ATOM     19  C   UNL     1       7.657  12.272  25.506  0.00  0.00    +0.000 A 
ATOM     20 CL   UNL     1       6.968  11.350  26.782  0.00  0.00    +0.000 Cl
ATOM     21  C   UNL     1       8.049  13.585  25.733  0.00  0.00    +0.000 A 
ATOM     22  C   UNL     1       8.513  14.364  24.668  0.00  0.00    +0.000 A 
ENDBRANCH  10  16
BRANCH   1  23
ATOM     23  C   UNL     1       5.308  15.850  18.321  0.00  0.00    +0.000 C 
BRANCH  23  28
ATOM     24  C   UNL     1       1.041  16.529  20.629  0.00  0.00    +0.000 C 
ATOM     25  N   UNL     1       1.708  16.033  19.431  0.00  0.00    +0.000 NA
ATOM     26  C   UNL     1       2.646  14.945  19.733  0.00  0.00    +0.000 C 
ATOM     27  C   UNL     1       3.360  14.433  18.454  0.00  0.00    +0.000 C 
ATOM     28  N   UNL     1       4.046  15.480  17.647  0.00  0.00    +0.000 NA
ATOM     29  C   UNL     1       3.109  16.597  17.440  0.00  0.00    +0.000 C 
ATOM     30  C   UNL     1       2.404  17.117  18.717  0.00  0.00    +0.000 C 
ENDBRANCH  23  28
ENDBRANCH   1  23
TORSDOF 3
ENDMDL
MODEL 7
REMARK VINA RESULT:      -6.9      4.226      8.682
REMARK  Name = 
REMARK  7 active torsions:
REMARK  status: ('A' for Active; 'I' for Inactive)
REMARK    1  A    between atoms: C_1  and  N_2
REMARK    2  A    between atoms: N_5  and  C_6
REMARK    3  A    between atoms: C_6  and  C_7
REMARK    4  A    between atoms: C_16  and  C_17
REMARK    5  A    between atoms: C_16  and  C_18
REMARK    6  A    between atoms: C_26  and  C_27
REMARK    7  A    between atoms: C_26  and  C_28
REMARK                            x       y       z     vdW  Elec       q    Type
REMARK                         _______ _______ _______ _____ _____    ______ ____
ROOT
ATOM      1  C   UNL     1      -3.339  12.833  21.152  0.00  0.00    +0.000 C 
ATOM      2  O   UNL     1      -4.462  12.460  20.807  0.00  0.00    +0.000 OA
ATOM      3  N   UNL     1      -2.103  12.407  20.533  0.00  0.00    +0.000 N 
ATOM      4  C   UNL     1      -2.159  11.643  19.260  0.00  0.00    +0.000 A 
ATOM      5  C   UNL     1      -3.346  11.538  18.501  0.00  0.00    +0.000 A 
ATOM      6  C   UNL     1      -3.461  10.735  17.355  0.00  0.00    +0.000 A 
ATOM      7  C   UNL     1      -2.371  10.033  16.883  0.00  0.00    +0.000 A 
ATOM      8  C   UNL     1      -1.168  10.166  17.551  0.00  0.00    +0.000 A 
ATOM      9  C   UNL     1      -1.033  10.972  18.721  0.00  0.00    +0.000 A 
ATOM     10  C   UNL     1       0.367  11.049  19.321  0.00  0.00    +0.000 C 
ATOM     11  C   UNL     1       1.314  11.624  18.207  0.00  0.00    +0.000 C 
ATOM     12  C   UNL     1       0.398  12.093  20.429  0.00  0.00    +0.000 C 
ATOM     13  C   UNL     1      -0.828  12.203  21.354  0.00  0.00    +0.000 C 
ATOM     14  C   UNL     1      -1.048  10.983  22.265  0.00  0.00    +0.000 C 
ATOM     15  C   UNL     1      -0.367  13.383  22.280  0.00  0.00    +0.000 C 
ENDROOT
BRANCH  10  16
ATOM     16  C   UNL     1       0.910   9.677  19.803  0.00  0.00    +0.000 A 
ATOM     17  C   UNL     1       1.806   8.926  19.016  0.00  0.00    +0.000 A 
ATOM     18  C   UNL     1       2.153   7.615  19.359  0.00  0.00    +0.000 A 
ATOM     19  C   UNL     1       1.654   7.048  20.526  0.00  0.00    +0.000 A 
ATOM     20 CL   UNL     1       2.012   5.410  20.906  0.00  0.00    +0.000 Cl
ATOM     21  C   UNL     1       0.842   7.794  21.370  0.00  0.00    +0.000 A 
ATOM     22  C   UNL     1       0.469   9.091  21.006  0.00  0.00    +0.000 A 
ENDBRANCH  10  16
BRANCH   1  23
ATOM     23  C   UNL     1      -3.191  13.830  22.304  0.00  0.00    +0.000 C 
BRANCH  23  28
ATOM     24  C   UNL     1      -0.359  17.814  21.973  0.00  0.00    +0.000 C 
ATOM     25  N   UNL     1      -1.719  17.293  22.036  0.00  0.00    +0.000 NA
ATOM     26  C   UNL     1      -1.973  16.561  23.283  0.00  0.00    +0.000 C 
ATOM     27  C   UNL     1      -3.418  16.000  23.334  0.00  0.00    +0.000 C 
ATOM     28  N   UNL     1      -3.817  15.163  22.168  0.00  0.00    +0.000 NA
ATOM     29  C   UNL     1      -3.466  15.884  20.934  0.00  0.00    +0.000 C 
ATOM     30  C   UNL     1      -2.019  16.435  20.877  0.00  0.00    +0.000 C 
ENDBRANCH  23  28
ENDBRANCH   1  23
TORSDOF 3
ENDMDL
MODEL 8
REMARK VINA RESULT:      -6.8      4.484      9.070
REMARK  Name = 
REMARK  7 active torsions:
REMARK  status: ('A' for Active; 'I' for Inactive)
REMARK    1  A    between atoms: C_1  and  N_2
REMARK    2  A    between atoms: N_5  and  C_6
REMARK    3  A    between atoms: C_6  and  C_7
REMARK    4  A    between atoms: C_16  and  C_17
REMARK    5  A    between atoms: C_16  and  C_18
REMARK    6  A    between atoms: C_26  and  C_27
REMARK    7  A    between atoms: C_26  and  C_28
REMARK                            x       y       z     vdW  Elec       q    Type
REMARK                         _______ _______ _______ _____ _____    ______ ____
ROOT
ATOM      1  C   UNL     1      -2.951  12.964  21.008  0.00  0.00    +0.000 C 
ATOM      2  O   UNL     1      -4.106  12.639  20.730  0.00  0.00    +0.000 OA
ATOM      3  N   UNL     1      -1.768  12.430  20.371  0.00  0.00    +0.000 N 
ATOM      4  C   UNL     1      -1.920  11.596  19.150  0.00  0.00    +0.000 A 
ATOM      5  C   UNL     1      -3.141  11.517  18.445  0.00  0.00    +0.000 A 
ATOM      6  C   UNL     1      -3.349  10.655  17.355  0.00  0.00    +0.000 A 
ATOM      7  C   UNL     1      -2.321   9.863  16.887  0.00  0.00    +0.000 A 
ATOM      8  C   UNL     1      -1.086   9.963  17.500  0.00  0.00    +0.000 A 
ATOM      9  C   UNL     1      -0.858  10.828  18.612  0.00  0.00    +0.000 A 
ATOM     10  C   UNL     1       0.569  10.857  19.153  0.00  0.00    +0.000 C 
ATOM     11  C   UNL     1       1.500  11.308  17.971  0.00  0.00    +0.000 C 
ATOM     12  C   UNL     1       0.704  11.962  20.192  0.00  0.00    +0.000 C 
ATOM     13  C   UNL     1      -0.473  12.199  21.154  0.00  0.00    +0.000 C 
ATOM     14  C   UNL     1      -0.726  11.051  22.147  0.00  0.00    +0.000 C 
ATOM     15  C   UNL     1       0.092  13.402  21.987  0.00  0.00    +0.000 C 
ENDROOT
BRANCH  10  16
ATOM     16  C   UNL     1       1.052   9.486  19.698  0.00  0.00    +0.000 A 
ATOM     17  C   UNL     1       1.949   8.683  18.967  0.00  0.00    +0.000 A 
ATOM     18  C   UNL     1       2.242   7.374  19.364  0.00  0.00    +0.000 A 
ATOM     19  C   UNL     1       1.688   6.862  20.531  0.00  0.00    +0.000 A 
ATOM     20 CL   UNL     1       1.981   5.228  20.977  0.00  0.00    +0.000 Cl
ATOM     21  C   UNL     1       0.873   7.660  21.323  0.00  0.00    +0.000 A 
ATOM     22  C   UNL     1       0.553   8.955  20.903  0.00  0.00    +0.000 A 
ENDBRANCH  10  16
BRANCH   1  23
ATOM     23  C   UNL     1      -2.699  14.018  22.090  0.00  0.00    +0.000 C 
BRANCH  23  28
ATOM     24  C   UNL     1      -4.860  17.251  25.069  0.00  0.00    +0.000 C 
ATOM     25  N   UNL     1      -4.182  17.037  23.797  0.00  0.00    +0.000 NA
ATOM     26  C   UNL     1      -4.907  16.094  22.937  0.00  0.00    +0.000 C 
ATOM     27  C   UNL     1      -4.170  15.864  21.591  0.00  0.00    +0.000 C 
ATOM     28  N   UNL     1      -2.746  15.446  21.709  0.00  0.00    +0.000 NA
ATOM     29  C   UNL     1      -2.069  16.355  22.648  0.00  0.00    +0.000 C 
ATOM     30  C   UNL     1      -2.797  16.577  23.997  0.00  0.00    +0.000 C 
ENDBRANCH  23  28
ENDBRANCH   1  23
TORSDOF 3
ENDMDL
MODEL 9
REMARK VINA RESULT:      -6.7      5.120      9.144
REMARK  Name = 
REMARK  7 active torsions:
REMARK  status: ('A' for Active; 'I' for Inactive)
REMARK    1  A    between atoms: C_1  and  N_2
REMARK    2  A    between atoms: N_5  and  C_6
REMARK    3  A    between atoms: C_6  and  C_7
REMARK    4  A    between atoms: C_16  and  C_17
REMARK    5  A    between atoms: C_16  and  C_18
REMARK    6  A    between atoms: C_26  and  C_27
REMARK    7  A    between atoms: C_26  and  C_28
REMARK                            x       y       z     vdW  Elec       q    Type
REMARK                         _______ _______ _______ _____ _____    ______ ____
ROOT
ATOM      1  C   UNL     1      -3.198  12.404  23.034  0.00  0.00    +0.000 C 
ATOM      2  O   UNL     1      -2.965  12.022  24.182  0.00  0.00    +0.000 OA
ATOM      3  N   UNL     1      -2.349  12.148  21.892  0.00  0.00    +0.000 N 
ATOM      4  C   UNL     1      -1.227  11.184  22.028  0.00  0.00    +0.000 A 
ATOM      5  C   UNL     1      -1.112  10.322  23.141  0.00  0.00    +0.000 A 
ATOM      6  C   UNL     1      -0.008   9.479  23.354  0.00  0.00    +0.000 A 
ATOM      7  C   UNL     1       1.016   9.425  22.431  0.00  0.00    +0.000 A 
ATOM      8  C   UNL     1       0.910  10.197  21.290  0.00  0.00    +0.000 A 
ATOM      9  C   UNL     1      -0.201  11.064  21.059  0.00  0.00    +0.000 A 
ATOM     10  C   UNL     1      -0.193  11.820  19.734  0.00  0.00    +0.000 C 
ATOM     11  C   UNL     1      -0.154  10.743  18.590  0.00  0.00    +0.000 C 
ATOM     12  C   UNL     1      -1.522  12.537  19.541  0.00  0.00    +0.000 C 
ATOM     13  C   UNL     1      -2.183  13.180  20.773  0.00  0.00    +0.000 C 
ATOM     14  C   UNL     1      -1.414  14.380  21.355  0.00  0.00    +0.000 C 
ATOM     15  C   UNL     1      -3.488  13.752  20.118  0.00  0.00    +0.000 C 
ENDROOT
BRANCH  10  16
ATOM     16  C   UNL     1       1.014  12.783  19.578  0.00  0.00    +0.000 A 
ATOM     17  C   UNL     1       1.470  13.188  18.308  0.00  0.00    +0.000 A 
ATOM     18  C   UNL     1       2.662  13.904  18.157  0.00  0.00    +0.000 A 
ATOM     19  C   UNL     1       3.394  14.277  19.278  0.00  0.00    +0.000 A 
ATOM     20 CL   UNL     1       4.901  15.084  19.090  0.00  0.00    +0.000 Cl
ATOM     21  C   UNL     1       2.924  13.974  20.549  0.00  0.00    +0.000 A 
ATOM     22  C   UNL     1       1.751  13.227  20.694  0.00  0.00    +0.000 A 
ENDBRANCH  10  16
BRANCH   1  23
ATOM     23  C   UNL     1      -4.476  13.196  22.743  0.00  0.00    +0.000 C 
BRANCH  23  28
ATOM     24  C   UNL     1      -6.062  17.648  21.452  0.00  0.00    +0.000 C 
ATOM     25  N   UNL     1      -5.808  16.720  22.547  0.00  0.00    +0.000 NA
ATOM     26  C   UNL     1      -4.392  16.340  22.630  0.00  0.00    +0.000 C 
ATOM     27  C   UNL     1      -4.134  15.343  23.791  0.00  0.00    +0.000 C 
ATOM     28  N   UNL     1      -4.985  14.120  23.779  0.00  0.00    +0.000 NA
ATOM     29  C   UNL     1      -6.388  14.529  23.602  0.00  0.00    +0.000 C 
ATOM     30  C   UNL     1      -6.648  15.516  22.436  0.00  0.00    +0.000 C 
ENDBRANCH  23  28
ENDBRANCH   1  23
TORSDOF 3
ENDMDL
