MODEL 1
REMARK VINA RESULT:      -7.1      0.000      0.000
REMARK  Name = 
REMARK  8 active torsions:
REMARK  status: ('A' for Active; 'I' for Inactive)
REMARK    1  A    between atoms: C_1  and  C_2
REMARK    2  A    between atoms: C_2  and  C_3
REMARK    3  A    between atoms: C_3  and  O_4
REMARK    4  A    between atoms: O_4  and  C_5
REMARK    5  A    between atoms: C_8  and  N_9
REMARK    6  A    between atoms: C_13  and  C_14
REMARK    7  A    between atoms: C_14  and  C_15
REMARK    8  A    between atoms: C_14  and  C_16
REMARK                            x       y       z     vdW  Elec       q    Type
REMARK                         _______ _______ _______ _____ _____    ______ ____
ROOT
ATOM      1  N   UNL     1       0.046  11.024  18.890  0.00  0.00    +0.000 N 
ATOM      2  C   UNL     1      -1.320  10.917  18.844  0.00  0.00    +0.000 C 
ATOM      3  O   UNL     1      -2.027   9.974  18.518  0.00  0.00    +0.000 OA
ATOM      4  C   UNL     1      -1.907  12.227  19.292  0.00  0.00    +0.000 C 
ATOM      5  C   UNL     1      -2.522  12.032  20.667  0.00  0.00    +0.000 C 
ATOM      6  N   UNL     1      -1.329  12.139  21.589  0.00  0.00    +0.000 NA
ATOM      7  C   UNL     1      -0.553  13.286  21.060  0.00  0.00    +0.000 C 
ATOM      8  C   UNL     1      -0.912  14.518  21.976  0.00  0.00    +0.000 C 
ATOM      9  O   UNL     1      -1.969  14.864  22.470  0.00  0.00    +0.000 OA
ATOM     10  C   UNL     1       0.289  15.299  22.226  0.00  0.00    +0.000 A 
ATOM     11  C   UNL     1       0.425  16.475  22.933  0.00  0.00    +0.000 A 
ATOM     12  C   UNL     1       1.509  17.278  22.592  0.00  0.00    +0.000 A 
ATOM     13  C   UNL     1       2.351  16.903  21.528  0.00  0.00    +0.000 A 
ATOM     14  C   UNL     1       2.278  15.615  20.973  0.00  0.00    +0.000 A 
ATOM     15  C   UNL     1       1.296  14.778  21.456  0.00  0.00    +0.000 A 
ATOM     16  C   UNL     1       0.955  13.366  21.253  0.00  0.00    +0.000 C 
ATOM     17  O   UNL     1       1.778  12.450  21.242  0.00  0.00    +0.000 OA
ATOM     18  C   UNL     1      -0.740  13.174  19.523  0.00  0.00    +0.000 C 
ATOM     19  C   UNL     1       0.381  12.361  18.850  0.00  0.00    +0.000 C 
ATOM     20  O   UNL     1       1.374  12.889  18.368  0.00  0.00    +0.000 OA
ATOM     21  H   UNL     1      -0.759  11.290  21.524  0.00  0.00    +0.000 HD
ENDROOT
BRANCH   1  25
ATOM     22  C   UNL     1       2.428   7.460  19.046  0.00  0.00    +0.000 A 
ATOM     23  C   UNL     1       2.357   8.233  17.893  0.00  0.00    +0.000 A 
ATOM     24  C   UNL     1       1.630   9.430  17.872  0.00  0.00    +0.000 A 
ATOM     25  C   UNL     1       0.943   9.912  18.997  0.00  0.00    +0.000 A 
ATOM     26  C   UNL     1       1.050   9.142  20.165  0.00  0.00    +0.000 A 
ATOM     27  C   UNL     1       1.776   7.927  20.187  0.00  0.00    +0.000 A 
BRANCH  22  28
ATOM     28  O   UNL     1       3.084   6.253  19.145  0.00  0.00    +0.000 OA
BRANCH  28  29
ATOM     29  C   UNL     1       2.526   5.345  20.104  0.00  0.00    +0.000 C 
BRANCH  29  31
ATOM     30  C   UNL     1       1.023   3.387  20.491  0.00  0.00    +0.000 C 
ATOM     31  C   UNL     1       1.666   4.278  19.435  0.00  0.00    +0.000 C 
ENDBRANCH  29  31
ENDBRANCH  28  29
ENDBRANCH  22  28
ENDBRANCH   1  25
BRANCH   5  32
ATOM     32  C   UNL     1      -3.653  13.082  20.904  0.00  0.00    +0.000 C 
ATOM     33  C   UNL     1      -4.688  13.161  19.773  0.00  0.00    +0.000 C 
ATOM     34  C   UNL     1      -4.388  12.825  22.220  0.00  0.00    +0.000 C 
ENDBRANCH   5  32
TORSDOF 5
ENDMDL
MODEL 2
REMARK VINA RESULT:      -6.8      0.980      1.421
REMARK  Name = 
REMARK  8 active torsions:
REMARK  status: ('A' for Active; 'I' for Inactive)
REMARK    1  A    between atoms: C_1  and  C_2
REMARK    2  A    between atoms: C_2  and  C_3
REMARK    3  A    between atoms: C_3  and  O_4
REMARK    4  A    between atoms: O_4  and  C_5
REMARK    5  A    between atoms: C_8  and  N_9
REMARK    6  A    between atoms: C_13  and  C_14
REMARK    7  A    between atoms: C_14  and  C_15
REMARK    8  A    between atoms: C_14  and  C_16
REMARK                            x       y       z     vdW  Elec       q    Type
REMARK                         _______ _______ _______ _____ _____    ______ ____
ROOT
ATOM      1  N   UNL     1      -0.027  11.098  18.957  0.00  0.00    +0.000 N 
ATOM      2  C   UNL     1      -1.394  10.993  18.941  0.00  0.00    +0.000 C 
ATOM      3  O   UNL     1      -2.109  10.054  18.623  0.00  0.00    +0.000 OA
ATOM      4  C   UNL     1      -1.969  12.299  19.416  0.00  0.00    +0.000 C 
ATOM      5  C   UNL     1      -2.553  12.091  20.802  0.00  0.00    +0.000 C 
ATOM      6  N   UNL     1      -1.339  12.188  21.697  0.00  0.00    +0.000 NA
ATOM      7  C   UNL     1      -0.573  13.340  21.162  0.00  0.00    +0.000 C 
ATOM      8  C   UNL     1      -0.909  14.562  22.098  0.00  0.00    +0.000 C 
ATOM      9  O   UNL     1      -1.955  14.906  22.619  0.00  0.00    +0.000 OA
ATOM     10  C   UNL     1       0.297  15.340  22.328  0.00  0.00    +0.000 A 
ATOM     11  C   UNL     1       0.451  16.509  23.042  0.00  0.00    +0.000 A 
ATOM     12  C   UNL     1       1.528  17.315  22.684  0.00  0.00    +0.000 A 
ATOM     13  C   UNL     1       2.345  16.949  21.598  0.00  0.00    +0.000 A 
ATOM     14  C   UNL     1       2.257  15.667  21.032  0.00  0.00    +0.000 A 
ATOM     15  C   UNL     1       1.286  14.826  21.529  0.00  0.00    +0.000 A 
ATOM     16  C   UNL     1       0.938  13.416  21.321  0.00  0.00    +0.000 C 
ATOM     17  O   UNL     1       1.760  12.499  21.282  0.00  0.00    +0.000 OA
ATOM     18  C   UNL     1      -0.795  13.242  19.629  0.00  0.00    +0.000 C 
ATOM     19  C   UNL     1       0.308  12.434  18.923  0.00  0.00    +0.000 C 
ATOM     20  O   UNL     1       1.291  12.966  18.423  0.00  0.00    +0.000 OA
ATOM     21  H   UNL     1      -0.771  11.339  21.611  0.00  0.00    +0.000 HD
ENDROOT
BRANCH   1  25
ATOM     22  C   UNL     1       2.351   7.527  19.034  0.00  0.00    +0.000 A 
ATOM     23  C   UNL     1       2.232   8.294  17.881  0.00  0.00    +0.000 A 
ATOM     24  C   UNL     1       1.508   9.493  17.883  0.00  0.00    +0.000 A 
ATOM     25  C   UNL     1       0.871   9.984  19.033  0.00  0.00    +0.000 A 
ATOM     26  C   UNL     1       1.025   9.220  20.200  0.00  0.00    +0.000 A 
ATOM     27  C   UNL     1       1.748   8.004  20.199  0.00  0.00    +0.000 A 
BRANCH  22  28
ATOM     28  O   UNL     1       3.006   6.320  19.112  0.00  0.00    +0.000 OA
BRANCH  28  29
ATOM     29  C   UNL     1       3.339   5.736  17.846  0.00  0.00    +0.000 C 
BRANCH  29  31
ATOM     30  C   UNL     1       5.116   6.552  16.290  0.00  0.00    +0.000 C 
ATOM     31  C   UNL     1       4.840   5.788  17.580  0.00  0.00    +0.000 C 
ENDBRANCH  29  31
ENDBRANCH  28  29
ENDBRANCH  22  28
ENDBRANCH   1  25
BRANCH   5  32
ATOM     32  C   UNL     1      -3.676  13.140  21.075  0.00  0.00    +0.000 C 
ATOM     33  C   UNL     1      -4.705  13.272  19.942  0.00  0.00    +0.000 C 
ATOM     34  C   UNL     1      -4.420  12.837  22.376  0.00  0.00    +0.000 C 
ENDBRANCH   5  32
TORSDOF 5
ENDMDL
MODEL 3
REMARK VINA RESULT:      -6.8      1.984      2.700
REMARK  Name = 
REMARK  8 active torsions:
REMARK  status: ('A' for Active; 'I' for Inactive)
REMARK    1  A    between atoms: C_1  and  C_2
REMARK    2  A    between atoms: C_2  and  C_3
REMARK    3  A    between atoms: C_3  and  O_4
REMARK    4  A    between atoms: O_4  and  C_5
REMARK    5  A    between atoms: C_8  and  N_9
REMARK    6  A    between atoms: C_13  and  C_14
REMARK    7  A    between atoms: C_14  and  C_15
REMARK    8  A    between atoms: C_14  and  C_16
REMARK                            x       y       z     vdW  Elec       q    Type
REMARK                         _______ _______ _______ _____ _____    ______ ____
ROOT
ATOM      1  N   UNL     1      -1.291  12.178  20.029  0.00  0.00    +0.000 N 
ATOM      2  C   UNL     1      -2.554  12.070  19.507  0.00  0.00    +0.000 C 
ATOM      3  O   UNL     1      -3.003  11.288  18.682  0.00  0.00    +0.000 OA
ATOM      4  C   UNL     1      -3.413  13.131  20.139  0.00  0.00    +0.000 C 
ATOM      5  C   UNL     1      -4.382  12.458  21.096  0.00  0.00    +0.000 C 
ATOM      6  N   UNL     1      -3.545  12.258  22.338  0.00  0.00    +0.000 NA
ATOM      7  C   UNL     1      -2.801  13.531  22.494  0.00  0.00    +0.000 C 
ATOM      8  C   UNL     1      -3.574  14.359  23.590  0.00  0.00    +0.000 C 
ATOM      9  O   UNL     1      -4.766  14.493  23.796  0.00  0.00    +0.000 OA
ATOM     10  C   UNL     1      -2.615  15.025  24.456  0.00  0.00    +0.000 A 
ATOM     11  C   UNL     1      -2.850  15.883  25.510  0.00  0.00    +0.000 A 
ATOM     12  C   UNL     1      -1.828  16.774  25.821  0.00  0.00    +0.000 A 
ATOM     13  C   UNL     1      -0.663  16.807  25.030  0.00  0.00    +0.000 A 
ATOM     14  C   UNL     1      -0.400  15.793  24.095  0.00  0.00    +0.000 A 
ATOM     15  C   UNL     1      -1.364  14.824  23.932  0.00  0.00    +0.000 A 
ATOM     16  C   UNL     1      -1.444  13.564  23.183  0.00  0.00    +0.000 C 
ATOM     17  O   UNL     1      -0.544  12.725  23.144  0.00  0.00    +0.000 OA
ATOM     18  C   UNL     1      -2.502  13.958  21.032  0.00  0.00    +0.000 C 
ATOM     19  C   UNL     1      -1.136  13.450  20.536  0.00  0.00    +0.000 C 
ATOM     20  O   UNL     1      -0.121  14.131  20.603  0.00  0.00    +0.000 OA
ATOM     21  H   UNL     1      -2.877  11.495  22.191  0.00  0.00    +0.000 HD
ENDROOT
BRANCH   1  25
ATOM     22  C   UNL     1       1.311   8.770  19.883  0.00  0.00    +0.000 A 
ATOM     23  C   UNL     1       1.288   9.709  18.858  0.00  0.00    +0.000 A 
ATOM     24  C   UNL     1       0.484  10.853  18.944  0.00  0.00    +0.000 A 
ATOM     25  C   UNL     1      -0.332  11.114  20.055  0.00  0.00    +0.000 A 
ATOM     26  C   UNL     1      -0.276  10.179  21.100  0.00  0.00    +0.000 A 
ATOM     27  C   UNL     1       0.529   9.018  21.011  0.00  0.00    +0.000 A 
BRANCH  22  28
ATOM     28  O   UNL     1       2.038   7.602  19.863  0.00  0.00    +0.000 OA
BRANCH  28  29
ATOM     29  C   UNL     1       1.543   6.574  20.731  0.00  0.00    +0.000 C 
BRANCH  29  31
ATOM     30  C   UNL     1       1.064   4.138  20.442  0.00  0.00    +0.000 C 
ATOM     31  C   UNL     1       2.143   5.214  20.392  0.00  0.00    +0.000 C 
ENDBRANCH  29  31
ENDBRANCH  28  29
ENDBRANCH  22  28
ENDBRANCH   1  25
BRANCH   5  32
ATOM     32  C   UNL     1      -5.657  13.339  21.278  0.00  0.00    +0.000 C 
ATOM     33  C   UNL     1      -6.044  14.154  20.035  0.00  0.00    +0.000 C 
ATOM     34  C   UNL     1      -6.862  12.499  21.705  0.00  0.00    +0.000 C 
ENDBRANCH   5  32
TORSDOF 5
ENDMDL
MODEL 4
REMARK VINA RESULT:      -6.7      3.336      7.032
REMARK  Name = 
REMARK  8 active torsions:
REMARK  status: ('A' for Active; 'I' for Inactive)
REMARK    1  A    between atoms: C_1  and  C_2
REMARK    2  A    between atoms: C_2  and  C_3
REMARK    3  A    between atoms: C_3  and  O_4
REMARK    4  A    between atoms: O_4  and  C_5
REMARK    5  A    between atoms: C_8  and  N_9
REMARK    6  A    between atoms: C_13  and  C_14
REMARK    7  A    between atoms: C_14  and  C_15
REMARK    8  A    between atoms: C_14  and  C_16
REMARK                            x       y       z     vdW  Elec       q    Type
REMARK                         _______ _______ _______ _____ _____    ______ ____
ROOT
ATOM      1  N   UNL     1       0.459  14.088  21.687  0.00  0.00    +0.000 N 
ATOM      2  C   UNL     1      -0.385  14.326  22.741  0.00  0.00    +0.000 C 
ATOM      3  O   UNL     1      -0.287  15.119  23.667  0.00  0.00    +0.000 OA
ATOM      4  C   UNL     1      -1.568  13.407  22.609  0.00  0.00    +0.000 C 
ATOM      5  C   UNL     1      -2.777  14.236  22.212  0.00  0.00    +0.000 C 
ATOM      6  N   UNL     1      -2.605  14.388  20.718  0.00  0.00    +0.000 NA
ATOM      7  C   UNL     1      -2.193  13.042  20.252  0.00  0.00    +0.000 C 
ATOM      8  C   UNL     1      -3.490  12.365  19.667  0.00  0.00    +0.000 C 
ATOM      9  O   UNL     1      -4.645  12.386  20.051  0.00  0.00    +0.000 OA
ATOM     10  C   UNL     1      -3.147  11.627  18.462  0.00  0.00    +0.000 A 
ATOM     11  C   UNL     1      -3.958  10.851  17.660  0.00  0.00    +0.000 A 
ATOM     12  C   UNL     1      -3.326   9.858  16.919  0.00  0.00    +0.000 A 
ATOM     13  C   UNL     1      -1.942   9.647  17.067  0.00  0.00    +0.000 A 
ATOM     14  C   UNL     1      -1.142  10.578  17.748  0.00  0.00    +0.000 A 
ATOM     15  C   UNL     1      -1.782  11.650  18.330  0.00  0.00    +0.000 A 
ATOM     16  C   UNL     1      -1.337  12.875  19.005  0.00  0.00    +0.000 C 
ATOM     17  O   UNL     1      -0.426  13.596  18.599  0.00  0.00    +0.000 OA
ATOM     18  C   UNL     1      -1.299  12.516  21.407  0.00  0.00    +0.000 C 
ATOM     19  C   UNL     1       0.192  12.831  21.190  0.00  0.00    +0.000 C 
ATOM     20  O   UNL     1       0.959  12.035  20.663  0.00  0.00    +0.000 OA
ATOM     21  H   UNL     1      -1.855  15.057  20.518  0.00  0.00    +0.000 HD
ENDROOT
BRANCH   1  25
ATOM     22  C   UNL     1       3.342  16.679  19.848  0.00  0.00    +0.000 A 
ATOM     23  C   UNL     1       1.978  16.853  19.644  0.00  0.00    +0.000 A 
ATOM     24  C   UNL     1       1.041  16.044  20.301  0.00  0.00    +0.000 A 
ATOM     25  C   UNL     1       1.421  15.028  21.191  0.00  0.00    +0.000 A 
ATOM     26  C   UNL     1       2.798  14.883  21.417  0.00  0.00    +0.000 A 
ATOM     27  C   UNL     1       3.746  15.693  20.748  0.00  0.00    +0.000 A 
BRANCH  22  28
ATOM     28  O   UNL     1       4.330  17.400  19.216  0.00  0.00    +0.000 OA
BRANCH  28  29
ATOM     29  C   UNL     1       5.614  17.340  19.850  0.00  0.00    +0.000 C 
BRANCH  29  31
ATOM     30  C   UNL     1       6.687  15.620  18.388  0.00  0.00    +0.000 C 
ATOM     31  C   UNL     1       6.727  17.075  18.842  0.00  0.00    +0.000 C 
ENDBRANCH  29  31
ENDBRANCH  28  29
ENDBRANCH  22  28
ENDBRANCH   1  25
BRANCH   5  32
ATOM     32  C   UNL     1      -4.089  13.525  22.670  0.00  0.00    +0.000 C 
ATOM     33  C   UNL     1      -3.935  12.669  23.935  0.00  0.00    +0.000 C 
ATOM     34  C   UNL     1      -5.220  14.530  22.896  0.00  0.00    +0.000 C 
ENDBRANCH   5  32
TORSDOF 5
ENDMDL
MODEL 5
REMARK VINA RESULT:      -6.7      2.069      3.001
REMARK  Name = 
REMARK  8 active torsions:
REMARK  status: ('A' for Active; 'I' for Inactive)
REMARK    1  A    between atoms: C_1  and  C_2
REMARK    2  A    between atoms: C_2  and  C_3
REMARK    3  A    between atoms: C_3  and  O_4
REMARK    4  A    between atoms: O_4  and  C_5
REMARK    5  A    between atoms: C_8  and  N_9
REMARK    6  A    between atoms: C_13  and  C_14
REMARK    7  A    between atoms: C_14  and  C_15
REMARK    8  A    between atoms: C_14  and  C_16
REMARK                            x       y       z     vdW  Elec       q    Type
REMARK                         _______ _______ _______ _____ _____    ______ ____
ROOT
ATOM      1  N   UNL     1      -1.645  12.031  19.982  0.00  0.00    +0.000 N 
ATOM      2  C   UNL     1      -2.900  12.071  19.433  0.00  0.00    +0.000 C 
ATOM      3  O   UNL     1      -3.412  11.360  18.579  0.00  0.00    +0.000 OA
ATOM      4  C   UNL     1      -3.655  13.203  20.075  0.00  0.00    +0.000 C 
ATOM      5  C   UNL     1      -4.711  12.616  20.995  0.00  0.00    +0.000 C 
ATOM      6  N   UNL     1      -3.928  12.298  22.248  0.00  0.00    +0.000 NA
ATOM      7  C   UNL     1      -3.055  13.480  22.450  0.00  0.00    +0.000 C 
ATOM      8  C   UNL     1      -3.759  14.361  23.551  0.00  0.00    +0.000 C 
ATOM      9  O   UNL     1      -4.935  14.618  23.737  0.00  0.00    +0.000 OA
ATOM     10  C   UNL     1      -2.755  14.900  24.453  0.00  0.00    +0.000 A 
ATOM     11  C   UNL     1      -2.920  15.754  25.523  0.00  0.00    +0.000 A 
ATOM     12  C   UNL     1      -1.815  16.523  25.877  0.00  0.00    +0.000 A 
ATOM     13  C   UNL     1      -0.637  16.449  25.109  0.00  0.00    +0.000 A 
ATOM     14  C   UNL     1      -0.463  15.434  24.154  0.00  0.00    +0.000 A 
ATOM     15  C   UNL     1      -1.521  14.578  23.949  0.00  0.00    +0.000 A 
ATOM     16  C   UNL     1      -1.719  13.352  23.166  0.00  0.00    +0.000 C 
ATOM     17  O   UNL     1      -0.913  12.422  23.124  0.00  0.00    +0.000 OA
ATOM     18  C   UNL     1      -2.680  13.907  21.006  0.00  0.00    +0.000 C 
ATOM     19  C   UNL     1      -1.366  13.266  20.524  0.00  0.00    +0.000 C 
ATOM     20  O   UNL     1      -0.285  13.833  20.628  0.00  0.00    +0.000 OA
ATOM     21  H   UNL     1      -3.342  11.472  22.094  0.00  0.00    +0.000 HD
ENDROOT
BRANCH   1  25
ATOM     22  C   UNL     1       1.147   8.783  20.246  0.00  0.00    +0.000 A 
ATOM     23  C   UNL     1       0.255   9.057  21.276  0.00  0.00    +0.000 A 
ATOM     24  C   UNL     1      -0.698  10.077  21.154  0.00  0.00    +0.000 A 
ATOM     25  C   UNL     1      -0.805  10.869  20.000  0.00  0.00    +0.000 A 
ATOM     26  C   UNL     1       0.077  10.562  18.953  0.00  0.00    +0.000 A 
ATOM     27  C   UNL     1       1.046   9.539  19.078  0.00  0.00    +0.000 A 
BRANCH  22  28
ATOM     28  O   UNL     1       2.138   7.830  20.297  0.00  0.00    +0.000 OA
BRANCH  28  29
ATOM     29  C   UNL     1       2.401   7.172  19.051  0.00  0.00    +0.000 C 
BRANCH  29  31
ATOM     30  C   UNL     1       1.821   5.250  20.539  0.00  0.00    +0.000 C 
ATOM     31  C   UNL     1       2.458   5.657  19.215  0.00  0.00    +0.000 C 
ENDBRANCH  29  31
ENDBRANCH  28  29
ENDBRANCH  22  28
ENDBRANCH   1  25
BRANCH   5  32
ATOM     32  C   UNL     1      -5.888  13.625  21.174  0.00  0.00    +0.000 C 
ATOM     33  C   UNL     1      -6.167  14.495  19.940  0.00  0.00    +0.000 C 
ATOM     34  C   UNL     1      -7.182  12.911  21.570  0.00  0.00    +0.000 C 
ENDBRANCH   5  32
TORSDOF 5
ENDMDL
MODEL 6
REMARK VINA RESULT:      -6.7      2.199      3.072
REMARK  Name = 
REMARK  8 active torsions:
REMARK  status: ('A' for Active; 'I' for Inactive)
REMARK    1  A    between atoms: C_1  and  C_2
REMARK    2  A    between atoms: C_2  and  C_3
REMARK    3  A    between atoms: C_3  and  O_4
REMARK    4  A    between atoms: O_4  and  C_5
REMARK    5  A    between atoms: C_8  and  N_9
REMARK    6  A    between atoms: C_13  and  C_14
REMARK    7  A    between atoms: C_14  and  C_15
REMARK    8  A    between atoms: C_14  and  C_16
REMARK                            x       y       z     vdW  Elec       q    Type
REMARK                         _______ _______ _______ _____ _____    ______ ____
ROOT
ATOM      1  N   UNL     1      -1.494  12.439  20.051  0.00  0.00    +0.000 N 
ATOM      2  C   UNL     1      -2.801  12.297  19.661  0.00  0.00    +0.000 C 
ATOM      3  O   UNL     1      -3.306  11.519  18.864  0.00  0.00    +0.000 OA
ATOM      4  C   UNL     1      -3.625  13.309  20.407  0.00  0.00    +0.000 C 
ATOM      5  C   UNL     1      -4.465  12.577  21.440  0.00  0.00    +0.000 C 
ATOM      6  N   UNL     1      -3.497  12.378  22.583  0.00  0.00    +0.000 NA
ATOM      7  C   UNL     1      -2.785  13.673  22.697  0.00  0.00    +0.000 C 
ATOM      8  C   UNL     1      -3.467  14.445  23.889  0.00  0.00    +0.000 C 
ATOM      9  O   UNL     1      -4.635  14.530  24.221  0.00  0.00    +0.000 OA
ATOM     10  C   UNL     1      -2.447  15.124  24.671  0.00  0.00    +0.000 A 
ATOM     11  C   UNL     1      -2.600  15.947  25.767  0.00  0.00    +0.000 A 
ATOM     12  C   UNL     1      -1.582  16.867  25.996  0.00  0.00    +0.000 A 
ATOM     13  C   UNL     1      -0.509  16.964  25.090  0.00  0.00    +0.000 A 
ATOM     14  C   UNL     1      -0.309  15.983  24.105  0.00  0.00    +0.000 A 
ATOM     15  C   UNL     1      -1.251  14.983  24.015  0.00  0.00    +0.000 A 
ATOM     16  C   UNL     1      -1.365  13.740  23.243  0.00  0.00    +0.000 C 
ATOM     17  O   UNL     1      -0.446  12.936  23.088  0.00  0.00    +0.000 OA
ATOM     18  C   UNL     1      -2.654  14.147  21.224  0.00  0.00    +0.000 C 
ATOM     19  C   UNL     1      -1.331  13.703  20.576  0.00  0.00    +0.000 C 
ATOM     20  O   UNL     1      -0.338  14.419  20.557  0.00  0.00    +0.000 OA
ATOM     21  H   UNL     1      -2.822  11.644  22.346  0.00  0.00    +0.000 HD
ENDROOT
BRANCH   1  25
ATOM     22  C   UNL     1       1.207   9.150  19.509  0.00  0.00    +0.000 A 
ATOM     23  C   UNL     1       1.117  10.175  18.574  0.00  0.00    +0.000 A 
ATOM     24  C   UNL     1       0.281  11.278  18.791  0.00  0.00    +0.000 A 
ATOM     25  C   UNL     1      -0.501  11.411  19.949  0.00  0.00    +0.000 A 
ATOM     26  C   UNL     1      -0.377  10.388  20.902  0.00  0.00    +0.000 A 
ATOM     27  C   UNL     1       0.460   9.269  20.680  0.00  0.00    +0.000 A 
BRANCH  22  28
ATOM     28  O   UNL     1       1.969   8.014  19.359  0.00  0.00    +0.000 OA
BRANCH  28  29
ATOM     29  C   UNL     1       2.655   7.914  18.104  0.00  0.00    +0.000 C 
BRANCH  29  31
ATOM     30  C   UNL     1       4.608   6.737  17.082  0.00  0.00    +0.000 C 
ATOM     31  C   UNL     1       3.372   6.576  17.959  0.00  0.00    +0.000 C 
ENDBRANCH  29  31
ENDBRANCH  28  29
ENDBRANCH  22  28
ENDBRANCH   1  25
BRANCH   5  32
ATOM     32  C   UNL     1      -5.744  13.406  21.777  0.00  0.00    +0.000 C 
ATOM     33  C   UNL     1      -6.294  14.225  20.601  0.00  0.00    +0.000 C 
ATOM     34  C   UNL     1      -6.863  12.513  22.315  0.00  0.00    +0.000 C 
ENDBRANCH   5  32
TORSDOF 5
ENDMDL
MODEL 7
REMARK VINA RESULT:      -6.6      0.823      1.205
REMARK  Name = 
REMARK  8 active torsions:
REMARK  status: ('A' for Active; 'I' for Inactive)
REMARK    1  A    between atoms: C_1  and  C_2
REMARK    2  A    between atoms: C_2  and  C_3
REMARK    3  A    between atoms: C_3  and  O_4
REMARK    4  A    between atoms: O_4  and  C_5
REMARK    5  A    between atoms: C_8  and  N_9
REMARK    6  A    between atoms: C_13  and  C_14
REMARK    7  A    between atoms: C_14  and  C_15
REMARK    8  A    between atoms: C_14  and  C_16
REMARK                            x       y       z     vdW  Elec       q    Type
REMARK                         _______ _______ _______ _____ _____    ______ ____
ROOT
ATOM      1  N   UNL     1      -0.414  11.147  18.912  0.00  0.00    +0.000 N 
ATOM      2  C   UNL     1      -1.784  11.174  18.913  0.00  0.00    +0.000 C 
ATOM      3  O   UNL     1      -2.591  10.318  18.579  0.00  0.00    +0.000 OA
ATOM      4  C   UNL     1      -2.225  12.514  19.433  0.00  0.00    +0.000 C 
ATOM      5  C   UNL     1      -2.810  12.323  20.822  0.00  0.00    +0.000 C 
ATOM      6  N   UNL     1      -1.582  12.276  21.701  0.00  0.00    +0.000 NA
ATOM      7  C   UNL     1      -0.715  13.364  21.188  0.00  0.00    +0.000 C 
ATOM      8  C   UNL     1      -0.921  14.585  22.163  0.00  0.00    +0.000 C 
ATOM      9  O   UNL     1      -1.922  15.012  22.709  0.00  0.00    +0.000 OA
ATOM     10  C   UNL     1       0.358  15.236  22.397  0.00  0.00    +0.000 A 
ATOM     11  C   UNL     1       0.632  16.364  23.141  0.00  0.00    +0.000 A 
ATOM     12  C   UNL     1       1.777  17.073  22.791  0.00  0.00    +0.000 A 
ATOM     13  C   UNL     1       2.542  16.662  21.683  0.00  0.00    +0.000 A 
ATOM     14  C   UNL     1       2.325  15.412  21.082  0.00  0.00    +0.000 A 
ATOM     15  C   UNL     1       1.283  14.654  21.570  0.00  0.00    +0.000 A 
ATOM     16  C   UNL     1       0.799  13.290  21.327  0.00  0.00    +0.000 C 
ATOM     17  O   UNL     1       1.528  12.301  21.250  0.00  0.00    +0.000 OA
ATOM     18  C   UNL     1      -0.964  13.334  19.656  0.00  0.00    +0.000 C 
ATOM     19  C   UNL     1       0.048  12.445  18.911  0.00  0.00    +0.000 C 
ATOM     20  O   UNL     1       1.072  12.896  18.412  0.00  0.00    +0.000 OA
ATOM     21  H   UNL     1      -1.100  11.379  21.583  0.00  0.00    +0.000 HD
ENDROOT
BRANCH   1  25
ATOM     22  C   UNL     1       2.258   7.798  19.146  0.00  0.00    +0.000 A 
ATOM     23  C   UNL     1       1.535   8.226  20.253  0.00  0.00    +0.000 A 
ATOM     24  C   UNL     1       0.615   9.278  20.151  0.00  0.00    +0.000 A 
ATOM     25  C   UNL     1       0.374   9.950  18.943  0.00  0.00    +0.000 A 
ATOM     26  C   UNL     1       1.083   9.487  17.824  0.00  0.00    +0.000 A 
ATOM     27  C   UNL     1       2.019   8.431  17.926  0.00  0.00    +0.000 A 
BRANCH  22  28
ATOM     28  O   UNL     1       3.208   6.802  19.164  0.00  0.00    +0.000 OA
BRANCH  28  29
ATOM     29  C   UNL     1       3.461   6.193  17.892  0.00  0.00    +0.000 C 
BRANCH  29  31
ATOM     30  C   UNL     1       1.711   4.412  17.774  0.00  0.00    +0.000 C 
ATOM     31  C   UNL     1       3.202   4.690  17.926  0.00  0.00    +0.000 C 
ENDBRANCH  29  31
ENDBRANCH  28  29
ENDBRANCH  22  28
ENDBRANCH   1  25
BRANCH   5  32
ATOM     32  C   UNL     1      -3.824  13.465  21.141  0.00  0.00    +0.000 C 
ATOM     33  C   UNL     1      -4.812  13.767  20.005  0.00  0.00    +0.000 C 
ATOM     34  C   UNL     1      -4.619  13.169  22.413  0.00  0.00    +0.000 C 
ENDBRANCH   5  32
TORSDOF 5
ENDMDL
MODEL 8
REMARK VINA RESULT:      -6.5      3.385      6.870
REMARK  Name = 
REMARK  8 active torsions:
REMARK  status: ('A' for Active; 'I' for Inactive)
REMARK    1  A    between atoms: C_1  and  C_2
REMARK    2  A    between atoms: C_2  and  C_3
REMARK    3  A    between atoms: C_3  and  O_4
REMARK    4  A    between atoms: O_4  and  C_5
REMARK    5  A    between atoms: C_8  and  N_9
REMARK    6  A    between atoms: C_13  and  C_14
REMARK    7  A    between atoms: C_14  and  C_15
REMARK    8  A    between atoms: C_14  and  C_16
REMARK                            x       y       z     vdW  Elec       q    Type
REMARK                         _______ _______ _______ _____ _____    ______ ____
ROOT
ATOM      1  N   UNL     1       0.131  13.528  21.747  0.00  0.00    +0.000 N 
ATOM      2  C   UNL     1      -0.739  13.753  22.781  0.00  0.00    +0.000 C 
ATOM      3  O   UNL     1      -0.628  14.474  23.763  0.00  0.00    +0.000 OA
ATOM      4  C   UNL     1      -1.975  12.932  22.540  0.00  0.00    +0.000 C 
ATOM      5  C   UNL     1      -3.107  13.869  22.155  0.00  0.00    +0.000 C 
ATOM      6  N   UNL     1      -2.861  14.109  20.683  0.00  0.00    +0.000 NA
ATOM      7  C   UNL     1      -2.521  12.771  20.140  0.00  0.00    +0.000 C 
ATOM      8  C   UNL     1      -3.834  12.228  19.459  0.00  0.00    +0.000 C 
ATOM      9  O   UNL     1      -5.001  12.306  19.799  0.00  0.00    +0.000 OA
ATOM     10  C   UNL     1      -3.490  11.551  18.220  0.00  0.00    +0.000 A 
ATOM     11  C   UNL     1      -4.317  10.891  17.335  0.00  0.00    +0.000 A 
ATOM     12  C   UNL     1      -3.723   9.907  16.551  0.00  0.00    +0.000 A 
ATOM     13  C   UNL     1      -2.364   9.588  16.738  0.00  0.00    +0.000 A 
ATOM     14  C   UNL     1      -1.533  10.413  17.513  0.00  0.00    +0.000 A 
ATOM     15  C   UNL     1      -2.123  11.486  18.142  0.00  0.00    +0.000 A 
ATOM     16  C   UNL     1      -1.625  12.628  18.918  0.00  0.00    +0.000 C 
ATOM     17  O   UNL     1      -0.650  13.308  18.599  0.00  0.00    +0.000 OA
ATOM     18  C   UNL     1      -1.716  12.107  21.289  0.00  0.00    +0.000 C 
ATOM     19  C   UNL     1      -0.199  12.329  21.152  0.00  0.00    +0.000 C 
ATOM     20  O   UNL     1       0.534  11.518  20.601  0.00  0.00    +0.000 OA
ATOM     21  H   UNL     1      -2.058  14.734  20.560  0.00  0.00    +0.000 HD
ENDROOT
BRANCH   1  25
ATOM     22  C   UNL     1       3.159  16.133  20.179  0.00  0.00    +0.000 A 
ATOM     23  C   UNL     1       1.846  16.561  20.338  0.00  0.00    +0.000 A 
ATOM     24  C   UNL     1       0.879  15.726  20.912  0.00  0.00    +0.000 A 
ATOM     25  C   UNL     1       1.176  14.427  21.355  0.00  0.00    +0.000 A 
ATOM     26  C   UNL     1       2.511  14.017  21.221  0.00  0.00    +0.000 A 
ATOM     27  C   UNL     1       3.487  14.855  20.634  0.00  0.00    +0.000 A 
BRANCH  22  28
ATOM     28  O   UNL     1       4.161  16.870  19.590  0.00  0.00    +0.000 OA
BRANCH  28  29
ATOM     29  C   UNL     1       4.691  16.304  18.385  0.00  0.00    +0.000 C 
BRANCH  29  31
ATOM     30  C   UNL     1       2.935  17.090  16.790  0.00  0.00    +0.000 C 
ATOM     31  C   UNL     1       3.583  15.868  17.432  0.00  0.00    +0.000 C 
ENDBRANCH  29  31
ENDBRANCH  28  29
ENDBRANCH  22  28
ENDBRANCH   1  25
BRANCH   5  32
ATOM     32  C   UNL     1      -4.483  13.225  22.511  0.00  0.00    +0.000 C 
ATOM     33  C   UNL     1      -4.554  12.626  23.923  0.00  0.00    +0.000 C 
ATOM     34  C   UNL     1      -5.629  14.225  22.348  0.00  0.00    +0.000 C 
ENDBRANCH   5  32
TORSDOF 5
ENDMDL
MODEL 9
REMARK VINA RESULT:      -6.4      3.460      5.928
REMARK  Name = 
REMARK  8 active torsions:
REMARK  status: ('A' for Active; 'I' for Inactive)
REMARK    1  A    between atoms: C_1  and  C_2
REMARK    2  A    between atoms: C_2  and  C_3
REMARK    3  A    between atoms: C_3  and  O_4
REMARK    4  A    between atoms: O_4  and  C_5
REMARK    5  A    between atoms: C_8  and  N_9
REMARK    6  A    between atoms: C_13  and  C_14
REMARK    7  A    between atoms: C_14  and  C_15
REMARK    8  A    between atoms: C_14  and  C_16
REMARK                            x       y       z     vdW  Elec       q    Type
REMARK                         _______ _______ _______ _____ _____    ______ ____
ROOT
ATOM      1  N   UNL     1       2.278  14.054  19.011  0.00  0.00    +0.000 N 
ATOM      2  C   UNL     1       1.993  12.781  18.590  0.00  0.00    +0.000 C 
ATOM      3  O   UNL     1       2.641  12.018  17.888  0.00  0.00    +0.000 OA
ATOM      4  C   UNL     1       0.655  12.390  19.155  0.00  0.00    +0.000 C 
ATOM      5  C   UNL     1       0.877  11.353  20.243  0.00  0.00    +0.000 C 
ATOM      6  N   UNL     1       1.246  12.196  21.441  0.00  0.00    +0.000 NA
ATOM      7  C   UNL     1       0.294  13.332  21.405  0.00  0.00    +0.000 C 
ATOM      8  C   UNL     1      -0.836  12.991  22.450  0.00  0.00    +0.000 C 
ATOM      9  O   UNL     1      -1.384  11.938  22.718  0.00  0.00    +0.000 OA
ATOM     10  C   UNL     1      -1.205  14.197  23.172  0.00  0.00    +0.000 A 
ATOM     11  C   UNL     1      -2.177  14.367  24.136  0.00  0.00    +0.000 A 
ATOM     12  C   UNL     1      -2.689  15.652  24.277  0.00  0.00    +0.000 A 
ATOM     13  C   UNL     1      -2.260  16.677  23.412  0.00  0.00    +0.000 A 
ATOM     14  C   UNL     1      -1.143  16.494  22.581  0.00  0.00    +0.000 A 
ATOM     15  C   UNL     1      -0.548  15.252  22.592  0.00  0.00    +0.000 A 
ATOM     16  C   UNL     1       0.666  14.685  21.994  0.00  0.00    +0.000 C 
ATOM     17  O   UNL     1       1.762  15.247  21.990  0.00  0.00    +0.000 OA
ATOM     18  C   UNL     1       0.116  13.608  19.888  0.00  0.00    +0.000 C 
ATOM     19  C   UNL     1       1.097  14.672  19.362  0.00  0.00    +0.000 C 
ATOM     20  O   UNL     1       0.798  15.857  19.286  0.00  0.00    +0.000 OA
ATOM     21  H   UNL     1       2.200  12.556  21.336  0.00  0.00    +0.000 HD
ENDROOT
BRANCH   1  25
ATOM     22  C   UNL     1       6.373  15.324  19.148  0.00  0.00    +0.000 A 
ATOM     23  C   UNL     1       5.656  15.318  17.957  0.00  0.00    +0.000 A 
ATOM     24  C   UNL     1       4.301  14.966  17.933  0.00  0.00    +0.000 A 
ATOM     25  C   UNL     1       3.598  14.604  19.093  0.00  0.00    +0.000 A 
ATOM     26  C   UNL     1       4.322  14.645  20.295  0.00  0.00    +0.000 A 
ATOM     27  C   UNL     1       5.694  14.993  20.320  0.00  0.00    +0.000 A 
BRANCH  22  28
ATOM     28  O   UNL     1       7.714  15.617  19.257  0.00  0.00    +0.000 OA
BRANCH  28  29
ATOM     29  C   UNL     1       8.475  15.397  18.063  0.00  0.00    +0.000 C 
BRANCH  29  31
ATOM     30  C   UNL     1       8.761  12.939  17.711  0.00  0.00    +0.000 C 
ATOM     31  C   UNL     1       9.428  14.215  18.212  0.00  0.00    +0.000 C 
ENDBRANCH  29  31
ENDBRANCH  28  29
ENDBRANCH  22  28
ENDBRANCH   1  25
BRANCH   5  32
ATOM     32  C   UNL     1      -0.397  10.467  20.409  0.00  0.00    +0.000 C 
ATOM     33  C   UNL     1      -1.163  10.212  19.103  0.00  0.00    +0.000 C 
ATOM     34  C   UNL     1      -0.062   9.119  21.050  0.00  0.00    +0.000 C 
ENDBRANCH   5  32
TORSDOF 5
ENDMDL
