MODEL 1
REMARK VINA RESULT:      -6.6      0.000      0.000
REMARK  Name = 
REMARK  5 active torsions:
REMARK  status: ('A' for Active; 'I' for Inactive)
REMARK    1  A    between atoms: C_1  and  C_2
REMARK    2  A    between atoms: N_5  and  C_6
REMARK    3  A    between atoms: C_6  and  C_8
REMARK    4  A    between atoms: N_12  and  C_13
REMARK    5  A    between atoms: C_18  and  C_19
REMARK                            x       y       z     vdW  Elec       q    Type
REMARK                         _______ _______ _______ _____ _____    ______ ____
ROOT
ATOM      1  C   UNL     1       3.584   5.745  18.569  0.00  0.00    +0.000 C 
ATOM      2  O   UNL     1       2.949   4.994  19.307  0.00  0.00    +0.000 OA
ENDROOT
BRANCH   1   7
ATOM      3  C   UNL     1       0.834   8.790  21.957  0.00  0.00    +0.000 C 
ATOM      4  C   UNL     1       1.284   8.718  20.535  0.00  0.00    +0.000 A 
ATOM      5  N   UNL     1       2.045   7.661  20.081  0.00  0.00    +0.000 N 
ATOM      6  C   UNL     1       2.422   7.687  18.764  0.00  0.00    +0.000 A 
ATOM      7  N   UNL     1       3.100   6.901  18.012  0.00  0.00    +0.000 NA
ATOM      8  S   UNL     1       1.760   9.182  18.046  0.00  0.00    +0.000 S 
ATOM      9  C   UNL     1       1.020   9.635  19.580  0.00  0.00    +0.000 A 
ATOM     10  C   UNL     1       0.223  10.885  19.709  0.00  0.00    +0.000 C 
ATOM     11  H   UNL     1       2.306   6.881  20.677  0.00  0.00    +0.000 HD
ENDBRANCH   1   7
BRANCH   1  12
ATOM     12  C   UNL     1       4.974   5.485  18.156  0.00  0.00    +0.000 A 
ATOM     13  C   UNL     1       6.053   5.381  19.018  0.00  0.00    +0.000 A 
ATOM     14  S   UNL     1       7.500   5.135  18.145  0.00  0.00    +0.000 S 
ATOM     15  C   UNL     1       6.614   5.177  16.665  0.00  0.00    +0.000 A 
ATOM     16  N   UNL     1       7.285   5.058  15.498  0.00  0.00    +0.000 N 
ATOM     17  N   UNL     1       5.318   5.330  16.809  0.00  0.00    +0.000 NA
ATOM     18  H   UNL     1       8.296   5.011  15.513  0.00  0.00    +0.000 HD
BRANCH  16  19
ATOM     19  C   UNL     1       6.545   5.000  14.248  0.00  0.00    +0.000 C 
ATOM     20  C   UNL     1       7.176   4.531  12.967  0.00  0.00    +0.000 C 
ATOM     21  C   UNL     1       6.180   3.658  13.670  0.00  0.00    +0.000 C 
ENDBRANCH  16  19
ENDBRANCH   1  12
TORSDOF 3
ENDMDL
MODEL 2
REMARK VINA RESULT:      -6.5      2.041      2.350
REMARK  Name = 
REMARK  5 active torsions:
REMARK  status: ('A' for Active; 'I' for Inactive)
REMARK    1  A    between atoms: C_1  and  C_2
REMARK    2  A    between atoms: N_5  and  C_6
REMARK    3  A    between atoms: C_6  and  C_8
REMARK    4  A    between atoms: N_12  and  C_13
REMARK    5  A    between atoms: C_18  and  C_19
REMARK                            x       y       z     vdW  Elec       q    Type
REMARK                         _______ _______ _______ _____ _____    ______ ____
ROOT
ATOM      1  C   UNL     1       2.493   5.320  20.069  0.00  0.00    +0.000 C 
ATOM      2  O   UNL     1       2.200   5.192  21.256  0.00  0.00    +0.000 OA
ENDROOT
BRANCH   1   7
ATOM      3  C   UNL     1       0.359   9.361  22.796  0.00  0.00    +0.000 C 
ATOM      4  C   UNL     1       0.891   8.999  21.449  0.00  0.00    +0.000 A 
ATOM      5  N   UNL     1       1.386   7.735  21.194  0.00  0.00    +0.000 N 
ATOM      6  C   UNL     1       1.865   7.499  19.933  0.00  0.00    +0.000 A 
ATOM      7  N   UNL     1       2.374   6.480  19.346  0.00  0.00    +0.000 NA
ATOM      8  S   UNL     1       1.677   9.008  18.995  0.00  0.00    +0.000 S 
ATOM      9  C   UNL     1       0.956   9.823  20.382  0.00  0.00    +0.000 A 
ATOM     10  C   UNL     1       0.504  11.237  20.292  0.00  0.00    +0.000 C 
ATOM     11  H   UNL     1       1.384   6.998  21.892  0.00  0.00    +0.000 HD
ENDBRANCH   1   7
BRANCH   1  12
ATOM     12  C   UNL     1       3.001   4.214  19.239  0.00  0.00    +0.000 A 
ATOM     13  C   UNL     1       2.741   2.871  19.459  0.00  0.00    +0.000 A 
ATOM     14  S   UNL     1       3.560   1.904  18.314  0.00  0.00    +0.000 S 
ATOM     15  C   UNL     1       4.214   3.323  17.583  0.00  0.00    +0.000 A 
ATOM     16  N   UNL     1       5.056   3.190  16.535  0.00  0.00    +0.000 N 
ATOM     17  N   UNL     1       3.824   4.450  18.133  0.00  0.00    +0.000 NA
ATOM     18  H   UNL     1       5.335   2.262  16.242  0.00  0.00    +0.000 HD
BRANCH  16  19
ATOM     19  C   UNL     1       5.544   4.376  15.851  0.00  0.00    +0.000 C 
ATOM     20  C   UNL     1       7.010   4.626  15.633  0.00  0.00    +0.000 C 
ATOM     21  C   UNL     1       6.141   4.239  14.475  0.00  0.00    +0.000 C 
ENDBRANCH  16  19
ENDBRANCH   1  12
TORSDOF 3
ENDMDL
MODEL 3
REMARK VINA RESULT:      -6.4      1.959      2.631
REMARK  Name = 
REMARK  5 active torsions:
REMARK  status: ('A' for Active; 'I' for Inactive)
REMARK    1  A    between atoms: C_1  and  C_2
REMARK    2  A    between atoms: N_5  and  C_6
REMARK    3  A    between atoms: C_6  and  C_8
REMARK    4  A    between atoms: N_12  and  C_13
REMARK    5  A    between atoms: C_18  and  C_19
REMARK                            x       y       z     vdW  Elec       q    Type
REMARK                         _______ _______ _______ _____ _____    ______ ____
ROOT
ATOM      1  C   UNL     1       2.449   7.330  18.783  0.00  0.00    +0.000 C 
ATOM      2  O   UNL     1       2.203   8.060  17.826  0.00  0.00    +0.000 OA
ENDROOT
BRANCH   1   7
ATOM      3  C   UNL     1      -0.793  11.508  19.376  0.00  0.00    +0.000 C 
ATOM      4  C   UNL     1      -0.056  10.469  20.154  0.00  0.00    +0.000 A 
ATOM      5  N   UNL     1       0.709   9.512  19.517  0.00  0.00    +0.000 N 
ATOM      6  C   UNL     1       1.340   8.591  20.312  0.00  0.00    +0.000 A 
ATOM      7  N   UNL     1       2.115   7.597  20.087  0.00  0.00    +0.000 NA
ATOM      8  S   UNL     1       0.920   8.969  22.007  0.00  0.00    +0.000 S 
ATOM      9  C   UNL     1      -0.058  10.344  21.497  0.00  0.00    +0.000 A 
ATOM     10  C   UNL     1      -0.756  11.200  22.493  0.00  0.00    +0.000 C 
ATOM     11  H   UNL     1       0.826   9.490  18.509  0.00  0.00    +0.000 HD
ENDBRANCH   1   7
BRANCH   1  12
ATOM     12  C   UNL     1       3.173   6.053  18.659  0.00  0.00    +0.000 A 
ATOM     13  C   UNL     1       3.201   5.058  19.623  0.00  0.00    +0.000 A 
ATOM     14  S   UNL     1       4.198   3.764  19.124  0.00  0.00    +0.000 S 
ATOM     15  C   UNL     1       4.537   4.594  17.650  0.00  0.00    +0.000 A 
ATOM     16  N   UNL     1       5.383   4.028  16.761  0.00  0.00    +0.000 N 
ATOM     17  N   UNL     1       3.923   5.747  17.519  0.00  0.00    +0.000 NA
ATOM     18  H   UNL     1       5.848   3.164  17.006  0.00  0.00    +0.000 HD
BRANCH  16  19
ATOM     19  C   UNL     1       5.610   4.671  15.477  0.00  0.00    +0.000 C 
ATOM     20  C   UNL     1       6.990   4.869  14.916  0.00  0.00    +0.000 C 
ATOM     21  C   UNL     1       6.082   3.840  14.312  0.00  0.00    +0.000 C 
ENDBRANCH  16  19
ENDBRANCH   1  12
TORSDOF 3
ENDMDL
MODEL 4
REMARK VINA RESULT:      -6.4      3.382      4.996
REMARK  Name = 
REMARK  5 active torsions:
REMARK  status: ('A' for Active; 'I' for Inactive)
REMARK    1  A    between atoms: C_1  and  C_2
REMARK    2  A    between atoms: N_5  and  C_6
REMARK    3  A    between atoms: C_6  and  C_8
REMARK    4  A    between atoms: N_12  and  C_13
REMARK    5  A    between atoms: C_18  and  C_19
REMARK                            x       y       z     vdW  Elec       q    Type
REMARK                         _______ _______ _______ _____ _____    ______ ____
ROOT
ATOM      1  C   UNL     1       2.227   8.484  18.176  0.00  0.00    +0.000 C 
ATOM      2  O   UNL     1       2.090   9.070  17.105  0.00  0.00    +0.000 OA
ENDROOT
BRANCH   1   7
ATOM      3  C   UNL     1      -1.801  11.932  17.732  0.00  0.00    +0.000 C 
ATOM      4  C   UNL     1      -0.960  11.226  18.743  0.00  0.00    +0.000 A 
ATOM      5  N   UNL     1       0.035  10.351  18.356  0.00  0.00    +0.000 N 
ATOM      6  C   UNL     1       0.747   9.740  19.355  0.00  0.00    +0.000 A 
ATOM      7  N   UNL     1       1.718   8.905  19.378  0.00  0.00    +0.000 NA
ATOM      8  S   UNL     1       0.093  10.320  20.913  0.00  0.00    +0.000 S 
ATOM      9  C   UNL     1      -1.074  11.347  20.082  0.00  0.00    +0.000 A 
ATOM     10  C   UNL     1      -2.022  12.204  20.845  0.00  0.00    +0.000 C 
ATOM     11  H   UNL     1       0.256  10.173  17.382  0.00  0.00    +0.000 HD
ENDBRANCH   1   7
BRANCH   1  12
ATOM     12  C   UNL     1       2.994   7.234  18.320  0.00  0.00    +0.000 A 
ATOM     13  C   UNL     1       4.093   6.883  17.553  0.00  0.00    +0.000 A 
ATOM     14  S   UNL     1       4.661   5.332  17.989  0.00  0.00    +0.000 S 
ATOM     15  C   UNL     1       3.416   5.210  19.177  0.00  0.00    +0.000 A 
ATOM     16  N   UNL     1       3.317   4.077  19.906  0.00  0.00    +0.000 N 
ATOM     17  N   UNL     1       2.645   6.269  19.271  0.00  0.00    +0.000 NA
ATOM     18  H   UNL     1       3.931   3.301  19.695  0.00  0.00    +0.000 HD
BRANCH  16  19
ATOM     19  C   UNL     1       2.332   3.993  20.972  0.00  0.00    +0.000 C 
ATOM     20  C   UNL     1       1.015   3.294  20.789  0.00  0.00    +0.000 C 
ATOM     21  C   UNL     1       2.079   2.665  21.637  0.00  0.00    +0.000 C 
ENDBRANCH  16  19
ENDBRANCH   1  12
TORSDOF 3
ENDMDL
MODEL 5
REMARK VINA RESULT:      -6.4      2.820      3.695
REMARK  Name = 
REMARK  5 active torsions:
REMARK  status: ('A' for Active; 'I' for Inactive)
REMARK    1  A    between atoms: C_1  and  C_2
REMARK    2  A    between atoms: N_5  and  C_6
REMARK    3  A    between atoms: C_6  and  C_8
REMARK    4  A    between atoms: N_12  and  C_13
REMARK    5  A    between atoms: C_18  and  C_19
REMARK                            x       y       z     vdW  Elec       q    Type
REMARK                         _______ _______ _______ _____ _____    ______ ____
ROOT
ATOM      1  C   UNL     1       2.128   7.469  19.615  0.00  0.00    +0.000 C 
ATOM      2  O   UNL     1       2.014   8.171  18.613  0.00  0.00    +0.000 OA
ENDROOT
BRANCH   1   7
ATOM      3  C   UNL     1      -1.210  11.611  19.751  0.00  0.00    +0.000 C 
ATOM      4  C   UNL     1      -0.488  10.650  20.636  0.00  0.00    +0.000 A 
ATOM      5  N   UNL     1       0.320   9.663  20.107  0.00  0.00    +0.000 N 
ATOM      6  C   UNL     1       0.932   8.819  20.996  0.00  0.00    +0.000 A 
ATOM      7  N   UNL     1       1.734   7.827  20.880  0.00  0.00    +0.000 NA
ATOM      8  S   UNL     1       0.435   9.316  22.638  0.00  0.00    +0.000 S 
ATOM      9  C   UNL     1      -0.545  10.628  21.984  0.00  0.00    +0.000 A 
ATOM     10  C   UNL     1      -1.300  11.543  22.882  0.00  0.00    +0.000 C 
ATOM     11  H   UNL     1       0.480   9.567  19.109  0.00  0.00    +0.000 HD
ENDBRANCH   1   7
BRANCH   1  12
ATOM     12  C   UNL     1       2.736   6.127  19.597  0.00  0.00    +0.000 A 
ATOM     13  C   UNL     1       2.189   4.998  20.183  0.00  0.00    +0.000 A 
ATOM     14  S   UNL     1       3.228   3.656  19.991  0.00  0.00    +0.000 S 
ATOM     15  C   UNL     1       4.350   4.647  19.134  0.00  0.00    +0.000 A 
ATOM     16  N   UNL     1       5.510   4.102  18.707  0.00  0.00    +0.000 N 
ATOM     17  N   UNL     1       3.965   5.892  18.970  0.00  0.00    +0.000 NA
ATOM     18  H   UNL     1       5.724   3.144  18.953  0.00  0.00    +0.000 HD
BRANCH  16  19
ATOM     19  C   UNL     1       6.425   4.899  17.906  0.00  0.00    +0.000 C 
ATOM     20  C   UNL     1       7.527   5.712  18.525  0.00  0.00    +0.000 C 
ATOM     21  C   UNL     1       7.860   4.459  17.772  0.00  0.00    +0.000 C 
ENDBRANCH  16  19
ENDBRANCH   1  12
TORSDOF 3
ENDMDL
MODEL 6
REMARK VINA RESULT:      -6.3      3.871      7.700
REMARK  Name = 
REMARK  5 active torsions:
REMARK  status: ('A' for Active; 'I' for Inactive)
REMARK    1  A    between atoms: C_1  and  C_2
REMARK    2  A    between atoms: N_5  and  C_6
REMARK    3  A    between atoms: C_6  and  C_8
REMARK    4  A    between atoms: N_12  and  C_13
REMARK    5  A    between atoms: C_18  and  C_19
REMARK                            x       y       z     vdW  Elec       q    Type
REMARK                         _______ _______ _______ _____ _____    ______ ____
ROOT
ATOM      1  C   UNL     1       1.171   8.863  20.219  0.00  0.00    +0.000 C 
ATOM      2  O   UNL     1       0.881   8.483  21.351  0.00  0.00    +0.000 OA
ENDROOT
BRANCH   1   7
ATOM      3  C   UNL     1       2.110   3.789  21.519  0.00  0.00    +0.000 C 
ATOM      4  C   UNL     1       2.472   4.835  20.517  0.00  0.00    +0.000 A 
ATOM      5  N   UNL     1       1.927   6.102  20.582  0.00  0.00    +0.000 N 
ATOM      6  C   UNL     1       2.308   6.992  19.613  0.00  0.00    +0.000 A 
ATOM      7  N   UNL     1       2.029   8.217  19.364  0.00  0.00    +0.000 NA
ATOM      8  S   UNL     1       3.447   6.147  18.526  0.00  0.00    +0.000 S 
ATOM      9  C   UNL     1       3.321   4.672  19.481  0.00  0.00    +0.000 A 
ATOM     10  C   UNL     1       4.093   3.453  19.116  0.00  0.00    +0.000 C 
ATOM     11  H   UNL     1       1.288   6.383  21.319  0.00  0.00    +0.000 HD
ENDBRANCH   1   7
BRANCH   1  12
ATOM     12  C   UNL     1       0.642  10.102  19.623  0.00  0.00    +0.000 A 
ATOM     13  C   UNL     1       1.090  11.380  19.917  0.00  0.00    +0.000 A 
ATOM     14  S   UNL     1       0.182  12.547  19.063  0.00  0.00    +0.000 S 
ATOM     15  C   UNL     1      -0.757  11.292  18.344  0.00  0.00    +0.000 A 
ATOM     16  N   UNL     1      -1.763  11.626  17.507  0.00  0.00    +0.000 N 
ATOM     17  N   UNL     1      -0.399  10.076  18.689  0.00  0.00    +0.000 NA
ATOM     18  H   UNL     1      -1.986  12.603  17.371  0.00  0.00    +0.000 HD
BRANCH  16  19
ATOM     19  C   UNL     1      -2.506  10.579  16.823  0.00  0.00    +0.000 C 
ATOM     20  C   UNL     1      -3.928  10.770  16.378  0.00  0.00    +0.000 C 
ATOM     21  C   UNL     1      -2.827  10.740  15.361  0.00  0.00    +0.000 C 
ENDBRANCH  16  19
ENDBRANCH   1  12
TORSDOF 3
ENDMDL
MODEL 7
REMARK VINA RESULT:      -6.3      1.850      2.148
REMARK  Name = 
REMARK  5 active torsions:
REMARK  status: ('A' for Active; 'I' for Inactive)
REMARK    1  A    between atoms: C_1  and  C_2
REMARK    2  A    between atoms: N_5  and  C_6
REMARK    3  A    between atoms: C_6  and  C_8
REMARK    4  A    between atoms: N_12  and  C_13
REMARK    5  A    between atoms: C_18  and  C_19
REMARK                            x       y       z     vdW  Elec       q    Type
REMARK                         _______ _______ _______ _____ _____    ______ ____
ROOT
ATOM      1  C   UNL     1       2.320   6.124  19.752  0.00  0.00    +0.000 C 
ATOM      2  O   UNL     1       1.698   6.147  20.811  0.00  0.00    +0.000 OA
ENDROOT
BRANCH   1   7
ATOM      3  C   UNL     1       0.066  10.633  21.458  0.00  0.00    +0.000 C 
ATOM      4  C   UNL     1       0.764  10.036  20.281  0.00  0.00    +0.000 A 
ATOM      5  N   UNL     1       1.213   8.730  20.305  0.00  0.00    +0.000 N 
ATOM      6  C   UNL     1       1.854   8.273  19.183  0.00  0.00    +0.000 A 
ATOM      7  N   UNL     1       2.379   7.154  18.847  0.00  0.00    +0.000 NA
ATOM      8  S   UNL     1       1.896   9.615  18.004  0.00  0.00    +0.000 S 
ATOM      9  C   UNL     1       1.033  10.672  19.121  0.00  0.00    +0.000 A 
ATOM     10  C   UNL     1       0.687  12.069  18.743  0.00  0.00    +0.000 C 
ATOM     11  H   UNL     1       1.064   8.118  21.101  0.00  0.00    +0.000 HD
ENDBRANCH   1   7
BRANCH   1  12
ATOM     12  C   UNL     1       3.085   4.953  19.290  0.00  0.00    +0.000 A 
ATOM     13  C   UNL     1       3.122   3.725  19.930  0.00  0.00    +0.000 A 
ATOM     14  S   UNL     1       4.169   2.651  19.112  0.00  0.00    +0.000 S 
ATOM     15  C   UNL     1       4.516   3.876  17.947  0.00  0.00    +0.000 A 
ATOM     16  N   UNL     1       5.397   3.608  16.960  0.00  0.00    +0.000 N 
ATOM     17  N   UNL     1       3.869   5.004  18.132  0.00  0.00    +0.000 NA
ATOM     18  H   UNL     1       5.884   2.720  16.961  0.00  0.00    +0.000 HD
BRANCH  16  19
ATOM     19  C   UNL     1       5.632   4.596  15.919  0.00  0.00    +0.000 C 
ATOM     20  C   UNL     1       6.953   4.712  15.212  0.00  0.00    +0.000 C 
ATOM     21  C   UNL     1       5.770   4.140  14.490  0.00  0.00    +0.000 C 
ENDBRANCH  16  19
ENDBRANCH   1  12
TORSDOF 3
ENDMDL
MODEL 8
REMARK VINA RESULT:      -6.3      2.784      3.925
REMARK  Name = 
REMARK  5 active torsions:
REMARK  status: ('A' for Active; 'I' for Inactive)
REMARK    1  A    between atoms: C_1  and  C_2
REMARK    2  A    between atoms: N_5  and  C_6
REMARK    3  A    between atoms: C_6  and  C_8
REMARK    4  A    between atoms: N_12  and  C_13
REMARK    5  A    between atoms: C_18  and  C_19
REMARK                            x       y       z     vdW  Elec       q    Type
REMARK                         _______ _______ _______ _____ _____    ______ ____
ROOT
ATOM      1  C   UNL     1       2.101   8.539  18.290  0.00  0.00    +0.000 C 
ATOM      2  O   UNL     1       2.232   8.956  17.141  0.00  0.00    +0.000 OA
ENDROOT
BRANCH   1   7
ATOM      3  C   UNL     1      -2.304  11.122  16.791  0.00  0.00    +0.000 C 
ATOM      4  C   UNL     1      -1.437  10.860  17.978  0.00  0.00    +0.000 A 
ATOM      5  N   UNL     1      -0.318  10.057  17.881  0.00  0.00    +0.000 N 
ATOM      6  C   UNL     1       0.408   9.863  19.026  0.00  0.00    +0.000 A 
ATOM      7  N   UNL     1       1.475   9.213  19.308  0.00  0.00    +0.000 NA
ATOM      8  S   UNL     1      -0.401  10.770  20.335  0.00  0.00    +0.000 S 
ATOM      9  C   UNL     1      -1.641  11.343  19.222  0.00  0.00    +0.000 A 
ATOM     10  C   UNL     1      -2.731  12.244  19.685  0.00  0.00    +0.000 C 
ATOM     11  H   UNL     1      -0.022   9.639  17.004  0.00  0.00    +0.000 HD
ENDBRANCH   1   7
BRANCH   1  12
ATOM     12  C   UNL     1       2.629   7.241  18.743  0.00  0.00    +0.000 A 
ATOM     13  C   UNL     1       2.059   6.450  19.727  0.00  0.00    +0.000 A 
ATOM     14  S   UNL     1       3.005   5.055  20.002  0.00  0.00    +0.000 S 
ATOM     15  C   UNL     1       4.122   5.574  18.794  0.00  0.00    +0.000 A 
ATOM     16  N   UNL     1       5.218   4.822  18.551  0.00  0.00    +0.000 N 
ATOM     17  N   UNL     1       3.798   6.698  18.198  0.00  0.00    +0.000 NA
ATOM     18  H   UNL     1       5.393   4.007  19.125  0.00  0.00    +0.000 HD
BRANCH  16  19
ATOM     19  C   UNL     1       6.121   5.198  17.476  0.00  0.00    +0.000 C 
ATOM     20  C   UNL     1       7.310   6.088  17.706  0.00  0.00    +0.000 C 
ATOM     21  C   UNL     1       7.515   4.625  17.452  0.00  0.00    +0.000 C 
ENDBRANCH  16  19
ENDBRANCH   1  12
TORSDOF 3
ENDMDL
MODEL 9
REMARK VINA RESULT:      -6.3      2.897      4.032
REMARK  Name = 
REMARK  5 active torsions:
REMARK  status: ('A' for Active; 'I' for Inactive)
REMARK    1  A    between atoms: C_1  and  C_2
REMARK    2  A    between atoms: N_5  and  C_6
REMARK    3  A    between atoms: C_6  and  C_8
REMARK    4  A    between atoms: N_12  and  C_13
REMARK    5  A    between atoms: C_18  and  C_19
REMARK                            x       y       z     vdW  Elec       q    Type
REMARK                         _______ _______ _______ _____ _____    ______ ____
ROOT
ATOM      1  C   UNL     1       6.539   4.943  18.707  0.00  0.00    +0.000 C 
ATOM      2  O   UNL     1       7.465   5.427  19.354  0.00  0.00    +0.000 OA
ENDROOT
BRANCH   1   7
ATOM      3  C   UNL     1       1.713   5.908  20.732  0.00  0.00    +0.000 C 
ATOM      4  C   UNL     1       2.649   4.795  20.397  0.00  0.00    +0.000 A 
ATOM      5  N   UNL     1       3.885   5.047  19.834  0.00  0.00    +0.000 N 
ATOM      6  C   UNL     1       4.671   3.962  19.549  0.00  0.00    +0.000 A 
ATOM      7  N   UNL     1       5.841   3.812  19.050  0.00  0.00    +0.000 NA
ATOM      8  S   UNL     1       3.762   2.500  20.029  0.00  0.00    +0.000 S 
ATOM      9  C   UNL     1       2.407   3.480  20.585  0.00  0.00    +0.000 A 
ATOM     10  C   UNL     1       1.195   2.850  21.175  0.00  0.00    +0.000 C 
ATOM     11  H   UNL     1       4.219   5.989  19.653  0.00  0.00    +0.000 HD
ENDBRANCH   1   7
BRANCH   1  12
ATOM     12  C   UNL     1       6.058   5.512  17.436  0.00  0.00    +0.000 A 
ATOM     13  C   UNL     1       5.431   6.740  17.302  0.00  0.00    +0.000 A 
ATOM     14  S   UNL     1       4.975   7.009  15.678  0.00  0.00    +0.000 S 
ATOM     15  C   UNL     1       5.638   5.478  15.238  0.00  0.00    +0.000 A 
ATOM     16  N   UNL     1       5.543   5.069  13.954  0.00  0.00    +0.000 N 
ATOM     17  N   UNL     1       6.195   4.819  16.228  0.00  0.00    +0.000 NA
ATOM     18  H   UNL     1       5.029   5.638  13.293  0.00  0.00    +0.000 HD
BRANCH  16  19
ATOM     19  C   UNL     1       6.175   3.824  13.549  0.00  0.00    +0.000 C 
ATOM     20  C   UNL     1       5.700   3.038  12.359  0.00  0.00    +0.000 C 
ATOM     21  C   UNL     1       6.994   3.792  12.285  0.00  0.00    +0.000 C 
ENDBRANCH  16  19
ENDBRANCH   1  12
TORSDOF 3
ENDMDL
