MODEL 1
REMARK VINA RESULT:      -7.7      0.000      0.000
REMARK  Name = 
REMARK  3 active torsions:
REMARK  status: ('A' for Active; 'I' for Inactive)
REMARK    1  A    between atoms: C_1  and  C_2
REMARK    2  A    between atoms: C_5  and  N_6
REMARK    3  A    between atoms: C_22  and  C_23
REMARK                            x       y       z     vdW  Elec       q    Type
REMARK                         _______ _______ _______ _____ _____    ______ ____
ROOT
ATOM      1  N   UNL     1       2.362   7.640  18.741  0.00  0.00    +0.000 N 
ATOM      2  C   UNL     1       1.996   8.882  18.266  0.00  0.00    +0.000 C 
ATOM      3  O   UNL     1       2.256   9.307  17.145  0.00  0.00    +0.000 OA
ATOM      4  N   UNL     1       1.224   9.622  19.149  0.00  0.00    +0.000 N 
ATOM      5  C   UNL     1       0.628  10.883  18.663  0.00  0.00    +0.000 C 
ATOM      6  C   UNL     1      -0.806  11.082  19.206  0.00  0.00    +0.000 C 
ATOM      7  N   UNL     1      -0.757  10.934  20.666  0.00  0.00    +0.000 N 
ATOM      8  C   UNL     1      -1.533  11.731  21.479  0.00  0.00    +0.000 A 
ATOM      9  C   UNL     1      -1.105  11.991  22.771  0.00  0.00    +0.000 A 
ATOM     10  C   UNL     1      -1.868  12.846  23.534  0.00  0.00    +0.000 A 
ATOM     11  N   UNL     1      -2.997  13.410  23.091  0.00  0.00    +0.000 NA
ATOM     12  C   UNL     1      -3.320  13.094  21.830  0.00  0.00    +0.000 A 
ATOM     13 CL   UNL     1      -4.763  13.778  21.231  0.00  0.00    +0.000 Cl
ATOM     14  N   UNL     1      -2.642  12.297  20.988  0.00  0.00    +0.000 NA
ATOM     15  C   UNL     1      -0.265   9.634  21.133  0.00  0.00    +0.000 C 
ATOM     16  C   UNL     1       1.171   9.451  20.611  0.00  0.00    +0.000 C 
ATOM     17  H   UNL     1       1.799   7.312  19.499  0.00  0.00    +0.000 HD
ENDROOT
BRANCH   1  22
ATOM     18  C   UNL     1       5.476   3.660  16.017  0.00  0.00    +0.000 C 
ATOM     19  C   UNL     1       4.679   4.703  16.738  0.00  0.00    +0.000 A 
ATOM     20  C   UNL     1       4.987   6.055  16.609  0.00  0.00    +0.000 A 
ATOM     21  C   UNL     1       4.232   7.017  17.282  0.00  0.00    +0.000 A 
ATOM     22  C   UNL     1       3.142   6.660  18.085  0.00  0.00    +0.000 A 
ATOM     23  C   UNL     1       2.828   5.293  18.238  0.00  0.00    +0.000 A 
ATOM     24  C   UNL     1       1.698   4.750  19.074  0.00  0.00    +0.000 C 
ATOM     25  C   UNL     1       3.608   4.333  17.558  0.00  0.00    +0.000 A 
ENDBRANCH   1  22
TORSDOF 1
ENDMDL
MODEL 2
REMARK VINA RESULT:      -7.4      1.017      1.099
REMARK  Name = 
REMARK  3 active torsions:
REMARK  status: ('A' for Active; 'I' for Inactive)
REMARK    1  A    between atoms: C_1  and  C_2
REMARK    2  A    between atoms: C_5  and  N_6
REMARK    3  A    between atoms: C_22  and  C_23
REMARK                            x       y       z     vdW  Elec       q    Type
REMARK                         _______ _______ _______ _____ _____    ______ ____
ROOT
ATOM      1  N   UNL     1       1.884   8.144  19.457  0.00  0.00    +0.000 N 
ATOM      2  C   UNL     1       1.312   9.222  18.815  0.00  0.00    +0.000 C 
ATOM      3  O   UNL     1       1.307   9.392  17.600  0.00  0.00    +0.000 OA
ATOM      4  N   UNL     1       0.655  10.102  19.662  0.00  0.00    +0.000 N 
ATOM      5  C   UNL     1      -0.145  11.185  19.055  0.00  0.00    +0.000 C 
ATOM      6  C   UNL     1      -1.460  11.427  19.832  0.00  0.00    +0.000 C 
ATOM      7  N   UNL     1      -1.116  11.621  21.246  0.00  0.00    +0.000 N 
ATOM      8  C   UNL     1      -1.795  12.540  22.015  0.00  0.00    +0.000 A 
ATOM      9  C   UNL     1      -1.154  13.111  23.101  0.00  0.00    +0.000 A 
ATOM     10  C   UNL     1      -1.836  14.077  23.807  0.00  0.00    +0.000 A 
ATOM     11  N   UNL     1      -3.080  14.463  23.502  0.00  0.00    +0.000 NA
ATOM     12  C   UNL     1      -3.607  13.849  22.435  0.00  0.00    +0.000 A 
ATOM     13 CL   UNL     1      -5.199  14.300  22.021  0.00  0.00    +0.000 Cl
ATOM     14  N   UNL     1      -3.028  12.919  21.658  0.00  0.00    +0.000 NA
ATOM     15  C   UNL     1      -0.416  10.491  21.865  0.00  0.00    +0.000 C 
ATOM     16  C   UNL     1       0.903  10.269  21.105  0.00  0.00    +0.000 C 
ATOM     17  H   UNL     1       1.513   7.969  20.368  0.00  0.00    +0.000 HD
ENDROOT
BRANCH   1  22
ATOM     18  C   UNL     1       4.793   3.817  17.053  0.00  0.00    +0.000 C 
ATOM     19  C   UNL     1       4.050   4.954  17.686  0.00  0.00    +0.000 A 
ATOM     20  C   UNL     1       4.199   6.257  17.216  0.00  0.00    +0.000 A 
ATOM     21  C   UNL     1       3.497   7.306  17.811  0.00  0.00    +0.000 A 
ATOM     22  C   UNL     1       2.616   7.083  18.876  0.00  0.00    +0.000 A 
ATOM     23  C   UNL     1       2.467   5.771  19.373  0.00  0.00    +0.000 A 
ATOM     24  C   UNL     1       1.570   5.373  20.517  0.00  0.00    +0.000 C 
ATOM     25  C   UNL     1       3.192   4.724  18.766  0.00  0.00    +0.000 A 
ENDBRANCH   1  22
TORSDOF 1
ENDMDL
MODEL 3
REMARK VINA RESULT:      -7.4      3.310      9.340
REMARK  Name = 
REMARK  3 active torsions:
REMARK  status: ('A' for Active; 'I' for Inactive)
REMARK    1  A    between atoms: C_1  and  C_2
REMARK    2  A    between atoms: C_5  and  N_6
REMARK    3  A    between atoms: C_22  and  C_23
REMARK                            x       y       z     vdW  Elec       q    Type
REMARK                         _______ _______ _______ _____ _____    ______ ____
ROOT
ATOM      1  N   UNL     1      -0.885  11.379  21.935  0.00  0.00    +0.000 N 
ATOM      2  C   UNL     1      -0.866  11.196  20.568  0.00  0.00    +0.000 C 
ATOM      3  O   UNL     1      -1.403  11.940  19.755  0.00  0.00    +0.000 OA
ATOM      4  N   UNL     1      -0.110  10.109  20.153  0.00  0.00    +0.000 N 
ATOM      5  C   UNL     1       0.124   9.939  18.705  0.00  0.00    +0.000 C 
ATOM      6  C   UNL     1       1.563   9.455  18.413  0.00  0.00    +0.000 C 
ATOM      7  N   UNL     1       1.809   8.261  19.232  0.00  0.00    +0.000 N 
ATOM      8  C   UNL     1       2.544   7.207  18.735  0.00  0.00    +0.000 A 
ATOM      9  C   UNL     1       2.313   5.935  19.230  0.00  0.00    +0.000 A 
ATOM     10  C   UNL     1       3.015   4.894  18.664  0.00  0.00    +0.000 A 
ATOM     11  N   UNL     1       3.910   5.064  17.685  0.00  0.00    +0.000 NA
ATOM     12  C   UNL     1       4.057   6.332  17.279  0.00  0.00    +0.000 A 
ATOM     13 CL   UNL     1       5.202   6.597  16.043  0.00  0.00    +0.000 Cl
ATOM     14  N   UNL     1       3.410   7.417  17.737  0.00  0.00    +0.000 NA
ATOM     15  C   UNL     1       1.678   8.473  20.677  0.00  0.00    +0.000 C 
ATOM     16  C   UNL     1       0.238   8.931  20.966  0.00  0.00    +0.000 C 
ATOM     17  H   UNL     1      -0.140  10.919  22.418  0.00  0.00    +0.000 HD
ENDROOT
BRANCH   1  22
ATOM     18  C   UNL     1      -3.656  15.500  24.816  0.00  0.00    +0.000 C 
ATOM     19  C   UNL     1      -2.930  14.415  24.080  0.00  0.00    +0.000 A 
ATOM     20  C   UNL     1      -3.452  13.126  24.009  0.00  0.00    +0.000 A 
ATOM     21  C   UNL     1      -2.769  12.126  23.316  0.00  0.00    +0.000 A 
ATOM     22  C   UNL     1      -1.559  12.388  22.661  0.00  0.00    +0.000 A 
ATOM     23  C   UNL     1      -1.010  13.685  22.739  0.00  0.00    +0.000 A 
ATOM     24  C   UNL     1       0.285  14.119  22.100  0.00  0.00    +0.000 C 
ATOM     25  C   UNL     1      -1.710  14.681  23.452  0.00  0.00    +0.000 A 
ENDBRANCH   1  22
TORSDOF 1
ENDMDL
MODEL 4
REMARK VINA RESULT:      -7.3      3.633      9.068
REMARK  Name = 
REMARK  3 active torsions:
REMARK  status: ('A' for Active; 'I' for Inactive)
REMARK    1  A    between atoms: C_1  and  C_2
REMARK    2  A    between atoms: C_5  and  N_6
REMARK    3  A    between atoms: C_22  and  C_23
REMARK                            x       y       z     vdW  Elec       q    Type
REMARK                         _______ _______ _______ _____ _____    ______ ____
ROOT
ATOM      1  N   UNL     1       0.576  11.133  20.968  0.00  0.00    +0.000 N 
ATOM      2  C   UNL     1       0.688  10.871  19.619  0.00  0.00    +0.000 C 
ATOM      3  O   UNL     1       0.520  11.698  18.729  0.00  0.00    +0.000 OA
ATOM      4  N   UNL     1       1.086   9.576  19.324  0.00  0.00    +0.000 N 
ATOM      5  C   UNL     1       1.413   9.251  17.921  0.00  0.00    +0.000 C 
ATOM      6  C   UNL     1       2.636   8.310  17.824  0.00  0.00    +0.000 C 
ATOM      7  N   UNL     1       2.382   7.153  18.691  0.00  0.00    +0.000 N 
ATOM      8  C   UNL     1       2.781   5.890  18.312  0.00  0.00    +0.000 A 
ATOM      9  C   UNL     1       2.090   4.793  18.800  0.00  0.00    +0.000 A 
ATOM     10  C   UNL     1       2.469   3.549  18.348  0.00  0.00    +0.000 A 
ATOM     11  N   UNL     1       3.476   3.360  17.487  0.00  0.00    +0.000 NA
ATOM     12  C   UNL     1       4.076   4.486  17.077  0.00  0.00    +0.000 A 
ATOM     13 CL   UNL     1       5.376   4.290  15.991  0.00  0.00    +0.000 Cl
ATOM     14  N   UNL     1       3.774   5.747  17.427  0.00  0.00    +0.000 NA
ATOM     15  C   UNL     1       2.166   7.483  20.103  0.00  0.00    +0.000 C 
ATOM     16  C   UNL     1       0.934   8.399  20.198  0.00  0.00    +0.000 C 
ATOM     17  H   UNL     1       1.068  10.487  21.550  0.00  0.00    +0.000 HD
ENDROOT
BRANCH   1  22
ATOM     18  C   UNL     1      -0.928  16.049  23.524  0.00  0.00    +0.000 C 
ATOM     19  C   UNL     1      -0.542  14.773  22.840  0.00  0.00    +0.000 A 
ATOM     20  C   UNL     1       0.432  14.760  21.845  0.00  0.00    +0.000 A 
ATOM     21  C   UNL     1       0.786  13.564  21.221  0.00  0.00    +0.000 A 
ATOM     22  C   UNL     1       0.194  12.347  21.583  0.00  0.00    +0.000 A 
ATOM     23  C   UNL     1      -0.806  12.347  22.578  0.00  0.00    +0.000 A 
ATOM     24  C   UNL     1      -1.544  11.127  23.067  0.00  0.00    +0.000 C 
ATOM     25  C   UNL     1      -1.159  13.568  23.192  0.00  0.00    +0.000 A 
ENDBRANCH   1  22
TORSDOF 1
ENDMDL
MODEL 5
REMARK VINA RESULT:      -7.2      4.234      8.546
REMARK  Name = 
REMARK  3 active torsions:
REMARK  status: ('A' for Active; 'I' for Inactive)
REMARK    1  A    between atoms: C_1  and  C_2
REMARK    2  A    between atoms: C_5  and  N_6
REMARK    3  A    between atoms: C_22  and  C_23
REMARK                            x       y       z     vdW  Elec       q    Type
REMARK                         _______ _______ _______ _____ _____    ______ ____
ROOT
ATOM      1  N   UNL     1       1.406  11.303  19.351  0.00  0.00    +0.000 N 
ATOM      2  C   UNL     1       1.808  10.401  18.388  0.00  0.00    +0.000 C 
ATOM      3  O   UNL     1       2.222  10.705  17.274  0.00  0.00    +0.000 OA
ATOM      4  N   UNL     1       1.779   9.078  18.803  0.00  0.00    +0.000 N 
ATOM      5  C   UNL     1       2.365   8.057  17.912  0.00  0.00    +0.000 C 
ATOM      6  C   UNL     1       3.135   6.979  18.709  0.00  0.00    +0.000 C 
ATOM      7  N   UNL     1       2.235   6.461  19.748  0.00  0.00    +0.000 N 
ATOM      8  C   UNL     1       2.243   5.125  20.082  0.00  0.00    +0.000 A 
ATOM      9  C   UNL     1       1.091   4.555  20.599  0.00  0.00    +0.000 A 
ATOM     10  C   UNL     1       1.111   3.203  20.858  0.00  0.00    +0.000 A 
ATOM     11  N   UNL     1       2.187   2.435  20.652  0.00  0.00    +0.000 NA
ATOM     12  C   UNL     1       3.245   3.084  20.149  0.00  0.00    +0.000 A 
ATOM     13 CL   UNL     1       4.645   2.145  19.887  0.00  0.00    +0.000 Cl
ATOM     14  N   UNL     1       3.331   4.387  19.834  0.00  0.00    +0.000 NA
ATOM     15  C   UNL     1       1.747   7.471  20.692  0.00  0.00    +0.000 C 
ATOM     16  C   UNL     1       0.961   8.529  19.899  0.00  0.00    +0.000 C 
ATOM     17  H   UNL     1       1.435  10.944  20.283  0.00  0.00    +0.000 HD
ENDROOT
BRANCH   1  22
ATOM     18  C   UNL     1       1.053  17.020  18.959  0.00  0.00    +0.000 C 
ATOM     19  C   UNL     1       1.157  15.528  19.047  0.00  0.00    +0.000 A 
ATOM     20  C   UNL     1       2.369  14.911  19.346  0.00  0.00    +0.000 A 
ATOM     21  C   UNL     1       2.451  13.521  19.430  0.00  0.00    +0.000 A 
ATOM     22  C   UNL     1       1.325  12.710  19.236  0.00  0.00    +0.000 A 
ATOM     23  C   UNL     1       0.094  13.320  18.916  0.00  0.00    +0.000 A 
ATOM     24  C   UNL     1      -1.199  12.587  18.668  0.00  0.00    +0.000 C 
ATOM     25  C   UNL     1       0.032  14.727  18.826  0.00  0.00    +0.000 A 
ENDBRANCH   1  22
TORSDOF 1
ENDMDL
MODEL 6
REMARK VINA RESULT:      -7.2      1.717      2.166
REMARK  Name = 
REMARK  3 active torsions:
REMARK  status: ('A' for Active; 'I' for Inactive)
REMARK    1  A    between atoms: C_1  and  C_2
REMARK    2  A    between atoms: C_5  and  N_6
REMARK    3  A    between atoms: C_22  and  C_23
REMARK                            x       y       z     vdW  Elec       q    Type
REMARK                         _______ _______ _______ _____ _____    ______ ____
ROOT
ATOM      1  N   UNL     1       2.765   7.471  18.259  0.00  0.00    +0.000 N 
ATOM      2  C   UNL     1       2.245   7.435  19.536  0.00  0.00    +0.000 C 
ATOM      3  O   UNL     1       2.517   6.586  20.379  0.00  0.00    +0.000 OA
ATOM      4  N   UNL     1       1.413   8.502  19.839  0.00  0.00    +0.000 N 
ATOM      5  C   UNL     1       0.956   8.652  21.236  0.00  0.00    +0.000 C 
ATOM      6  C   UNL     1       0.933  10.135  21.672  0.00  0.00    +0.000 C 
ATOM      7  N   UNL     1       0.157  10.884  20.675  0.00  0.00    +0.000 N 
ATOM      8  C   UNL     1      -0.674  11.912  21.061  0.00  0.00    +0.000 A 
ATOM      9  C   UNL     1      -1.770  12.222  20.272  0.00  0.00    +0.000 A 
ATOM     10  C   UNL     1      -2.619  13.209  20.721  0.00  0.00    +0.000 A 
ATOM     11  N   UNL     1      -2.419  13.883  21.858  0.00  0.00    +0.000 NA
ATOM     12  C   UNL     1      -1.332  13.505  22.545  0.00  0.00    +0.000 A 
ATOM     13 CL   UNL     1      -1.030  14.351  23.995  0.00  0.00    +0.000 Cl
ATOM     14  N   UNL     1      -0.454  12.543  22.220  0.00  0.00    +0.000 NA
ATOM     15  C   UNL     1       0.686  10.813  19.309  0.00  0.00    +0.000 C 
ATOM     16  C   UNL     1       0.684   9.339  18.870  0.00  0.00    +0.000 C 
ATOM     17  H   UNL     1       2.732   8.374  17.832  0.00  0.00    +0.000 HD
ENDROOT
BRANCH   1  22
ATOM     18  C   UNL     1       6.270   3.688  15.737  0.00  0.00    +0.000 C 
ATOM     19  C   UNL     1       5.368   4.676  16.410  0.00  0.00    +0.000 A 
ATOM     20  C   UNL     1       5.781   5.988  16.631  0.00  0.00    +0.000 A 
ATOM     21  C   UNL     1       4.929   6.900  17.253  0.00  0.00    +0.000 A 
ATOM     22  C   UNL     1       3.637   6.536  17.655  0.00  0.00    +0.000 A 
ATOM     23  C   UNL     1       3.210   5.207  17.452  0.00  0.00    +0.000 A 
ATOM     24  C   UNL     1       1.860   4.660  17.838  0.00  0.00    +0.000 C 
ATOM     25  C   UNL     1       4.090   4.295  16.830  0.00  0.00    +0.000 A 
ENDBRANCH   1  22
TORSDOF 1
ENDMDL
MODEL 7
REMARK VINA RESULT:      -7.1      3.446      9.429
REMARK  Name = 
REMARK  3 active torsions:
REMARK  status: ('A' for Active; 'I' for Inactive)
REMARK    1  A    between atoms: C_1  and  C_2
REMARK    2  A    between atoms: C_5  and  N_6
REMARK    3  A    between atoms: C_22  and  C_23
REMARK                            x       y       z     vdW  Elec       q    Type
REMARK                         _______ _______ _______ _____ _____    ______ ____
ROOT
ATOM      1  N   UNL     1      -0.805  12.253  22.559  0.00  0.00    +0.000 N 
ATOM      2  C   UNL     1      -0.930  11.816  21.257  0.00  0.00    +0.000 C 
ATOM      3  O   UNL     1      -1.482  12.442  20.358  0.00  0.00    +0.000 OA
ATOM      4  N   UNL     1      -0.305  10.603  21.004  0.00  0.00    +0.000 N 
ATOM      5  C   UNL     1      -0.223  10.142  19.603  0.00  0.00    +0.000 C 
ATOM      6  C   UNL     1       1.139   9.477  19.301  0.00  0.00    +0.000 C 
ATOM      7  N   UNL     1       1.367   8.440  20.316  0.00  0.00    +0.000 N 
ATOM      8  C   UNL     1       1.966   7.246  19.979  0.00  0.00    +0.000 A 
ATOM      9  C   UNL     1       1.683   6.117  20.730  0.00  0.00    +0.000 A 
ATOM     10  C   UNL     1       2.243   4.927  20.325  0.00  0.00    +0.000 A 
ATOM     11  N   UNL     1       3.053   4.823  19.265  0.00  0.00    +0.000 NA
ATOM     12  C   UNL     1       3.260   5.973  18.609  0.00  0.00    +0.000 A 
ATOM     13 CL   UNL     1       4.300   5.890  17.260  0.00  0.00    +0.000 Cl
ATOM     14  N   UNL     1       2.747   7.181  18.894  0.00  0.00    +0.000 NA
ATOM     15  C   UNL     1       1.390   8.931  21.698  0.00  0.00    +0.000 C 
ATOM     16  C   UNL     1       0.025   9.571  22.002  0.00  0.00    +0.000 C 
ATOM     17  H   UNL     1      -0.057  11.823  23.063  0.00  0.00    +0.000 HD
ENDROOT
BRANCH   1  22
ATOM     18  C   UNL     1      -2.894  17.049  24.926  0.00  0.00    +0.000 C 
ATOM     19  C   UNL     1      -2.349  15.806  24.291  0.00  0.00    +0.000 A 
ATOM     20  C   UNL     1      -1.100  15.805  23.676  0.00  0.00    +0.000 A 
ATOM     21  C   UNL     1      -0.601  14.639  23.093  0.00  0.00    +0.000 A 
ATOM     22  C   UNL     1      -1.326  13.440  23.124  0.00  0.00    +0.000 A 
ATOM     23  C   UNL     1      -2.600  13.430  23.729  0.00  0.00    +0.000 A 
ATOM     24  C   UNL     1      -3.503  12.228  23.832  0.00  0.00    +0.000 C 
ATOM     25  C   UNL     1      -3.092  14.621  24.305  0.00  0.00    +0.000 A 
ENDBRANCH   1  22
TORSDOF 1
ENDMDL
MODEL 8
REMARK VINA RESULT:      -7.1      1.766      1.995
REMARK  Name = 
REMARK  3 active torsions:
REMARK  status: ('A' for Active; 'I' for Inactive)
REMARK    1  A    between atoms: C_1  and  C_2
REMARK    2  A    between atoms: C_5  and  N_6
REMARK    3  A    between atoms: C_22  and  C_23
REMARK                            x       y       z     vdW  Elec       q    Type
REMARK                         _______ _______ _______ _____ _____    ______ ____
ROOT
ATOM      1  N   UNL     1       2.142   6.336  20.307  0.00  0.00    +0.000 N 
ATOM      2  C   UNL     1       2.038   7.458  19.512  0.00  0.00    +0.000 C 
ATOM      3  O   UNL     1       2.442   7.537  18.357  0.00  0.00    +0.000 OA
ATOM      4  N   UNL     1       1.356   8.510  20.104  0.00  0.00    +0.000 N 
ATOM      5  C   UNL     1       1.030   9.685  19.269  0.00  0.00    +0.000 C 
ATOM      6  C   UNL     1      -0.376  10.240  19.590  0.00  0.00    +0.000 C 
ATOM      7  N   UNL     1      -0.450  10.463  21.040  0.00  0.00    +0.000 N 
ATOM      8  C   UNL     1      -1.120  11.553  21.550  0.00  0.00    +0.000 A 
ATOM      9  C   UNL     1      -0.737  12.061  22.780  0.00  0.00    +0.000 A 
ATOM     10  C   UNL     1      -1.381  13.193  23.229  0.00  0.00    +0.000 A 
ATOM     11  N   UNL     1      -2.359  13.797  22.546  0.00  0.00    +0.000 NA
ATOM     12  C   UNL     1      -2.651  13.226  21.370  0.00  0.00    +0.000 A 
ATOM     13 CL   UNL     1      -3.905  13.955  20.472  0.00  0.00    +0.000 Cl
ATOM     14  N   UNL     1      -2.074  12.144  20.821  0.00  0.00    +0.000 NA
ATOM     15  C   UNL     1      -0.231   9.263  21.854  0.00  0.00    +0.000 C 
ATOM     16  C   UNL     1       1.178   8.728  21.550  0.00  0.00    +0.000 C 
ATOM     17  H   UNL     1       1.481   6.305  21.056  0.00  0.00    +0.000 HD
ENDROOT
BRANCH   1  22
ATOM     18  C   UNL     1       4.678   1.366  18.955  0.00  0.00    +0.000 C 
ATOM     19  C   UNL     1       4.028   2.664  19.323  0.00  0.00    +0.000 A 
ATOM     20  C   UNL     1       4.747   3.857  19.299  0.00  0.00    +0.000 A 
ATOM     21  C   UNL     1       4.128   5.061  19.638  0.00  0.00    +0.000 A 
ATOM     22  C   UNL     1       2.773   5.110  19.993  0.00  0.00    +0.000 A 
ATOM     23  C   UNL     1       2.037   3.908  20.038  0.00  0.00    +0.000 A 
ATOM     24  C   UNL     1       0.581   3.795  20.411  0.00  0.00    +0.000 C 
ATOM     25  C   UNL     1       2.682   2.699  19.701  0.00  0.00    +0.000 A 
ENDBRANCH   1  22
TORSDOF 1
ENDMDL
MODEL 9
REMARK VINA RESULT:      -6.9      3.513      9.479
REMARK  Name = 
REMARK  3 active torsions:
REMARK  status: ('A' for Active; 'I' for Inactive)
REMARK    1  A    between atoms: C_1  and  C_2
REMARK    2  A    between atoms: C_5  and  N_6
REMARK    3  A    between atoms: C_22  and  C_23
REMARK                            x       y       z     vdW  Elec       q    Type
REMARK                         _______ _______ _______ _____ _____    ______ ____
ROOT
ATOM      1  N   UNL     1      -0.867  11.583  21.648  0.00  0.00    +0.000 N 
ATOM      2  C   UNL     1      -0.096  10.601  22.234  0.00  0.00    +0.000 C 
ATOM      3  O   UNL     1      -0.093  10.334  23.431  0.00  0.00    +0.000 OA
ATOM      4  N   UNL     1       0.655   9.859  21.335  0.00  0.00    +0.000 N 
ATOM      5  C   UNL     1       1.367   8.668  21.840  0.00  0.00    +0.000 C 
ATOM      6  C   UNL     1       1.311   7.498  20.830  0.00  0.00    +0.000 C 
ATOM      7  N   UNL     1       1.778   8.004  19.533  0.00  0.00    +0.000 N 
ATOM      8  C   UNL     1       2.549   7.214  18.708  0.00  0.00    +0.000 A 
ATOM      9  C   UNL     1       3.419   7.822  17.818  0.00  0.00    +0.000 A 
ATOM     10  C   UNL     1       4.225   7.005  17.057  0.00  0.00    +0.000 A 
ATOM     11  N   UNL     1       4.187   5.670  17.128  0.00  0.00    +0.000 NA
ATOM     12  C   UNL     1       3.313   5.185  18.020  0.00  0.00    +0.000 A 
ATOM     13 CL   UNL     1       3.219   3.485  18.131  0.00  0.00    +0.000 Cl
ATOM     14  N   UNL     1       2.500   5.882  18.831  0.00  0.00    +0.000 NA
ATOM     15  C   UNL     1       0.993   9.117  18.992  0.00  0.00    +0.000 C 
ATOM     16  C   UNL     1       1.071  10.287  19.988  0.00  0.00    +0.000 C 
ATOM     17  H   UNL     1      -1.023  11.449  20.671  0.00  0.00    +0.000 HD
ENDROOT
BRANCH   1  22
ATOM     18  C   UNL     1      -4.427  15.301  24.191  0.00  0.00    +0.000 C 
ATOM     19  C   UNL     1      -3.491  14.326  23.544  0.00  0.00    +0.000 A 
ATOM     20  C   UNL     1      -3.613  12.958  23.774  0.00  0.00    +0.000 A 
ATOM     21  C   UNL     1      -2.738  12.060  23.161  0.00  0.00    +0.000 A 
ATOM     22  C   UNL     1      -1.732  12.498  22.290  0.00  0.00    +0.000 A 
ATOM     23  C   UNL     1      -1.588  13.883  22.061  0.00  0.00    +0.000 A 
ATOM     24  C   UNL     1      -0.551  14.510  21.164  0.00  0.00    +0.000 C 
ATOM     25  C   UNL     1      -2.475  14.777  22.697  0.00  0.00    +0.000 A 
ENDBRANCH   1  22
TORSDOF 1
ENDMDL
