MODEL 1
REMARK VINA RESULT:      -6.1      0.000      0.000
REMARK  Name = 
REMARK  13 active torsions:
REMARK  status: ('A' for Active; 'I' for Inactive)
REMARK    1  A    between atoms: C_1  and  O_2
REMARK    2  A    between atoms: O_2  and  C_3
REMARK    3  A    between atoms: C_3  and  C_5
REMARK    4  A    between atoms: C_6  and  C_7
REMARK    5  A    between atoms: C_7  and  O_8
REMARK    6  A    between atoms: C_7  and  C_15
REMARK    7  A    between atoms: O_8  and  C_9
REMARK    8  A    between atoms: C_10  and  C_11
REMARK    9  A    between atoms: C_11  and  O_13
REMARK   10  A    between atoms: O_13  and  C_14
REMARK   11  A    between atoms: C_15  and  C_16
REMARK   12  A    between atoms: C_15  and  C_17
REMARK   13  A    between atoms: C_15  and  C_18
REMARK                            x       y       z     vdW  Elec       q    Type
REMARK                         _______ _______ _______ _____ _____    ______ ____
ROOT
ATOM      1  C   UNL     1       3.863   4.721  18.109  0.00  0.00    +0.000 C 
ENDROOT
BRANCH   1   2
ATOM      2  C   UNL     1       2.856   4.084  19.131  0.00  0.00    +0.000 C 
ATOM      3  C   UNL     1       1.608   3.539  18.407  0.00  0.00    +0.000 C 
ATOM      4  C   UNL     1       3.529   2.905  19.866  0.00  0.00    +0.000 C 
ATOM      5  C   UNL     1       2.414   5.109  20.197  0.00  0.00    +0.000 C 
ENDBRANCH   1   2
BRANCH   1   7
ATOM      6  C   UNL     1       6.208   5.409  19.209  0.00  0.00    +0.000 C 
ATOM      7  C   UNL     1       5.127   5.105  18.776  0.00  0.00    +0.000 C 
BRANCH   6   8
ATOM      8  C   UNL     1       7.551   5.751  19.614  0.00  0.00    +0.000 C 
ATOM      9  O   UNL     1       8.090   5.183  20.551  0.00  0.00    +0.000 OA
BRANCH   8  11
ATOM     10  C   UNL     1       7.429   6.867  17.565  0.00  0.00    +0.000 C 
ATOM     11  O   UNL     1       8.107   6.692  18.809  0.00  0.00    +0.000 OA
ENDBRANCH   8  11
ENDBRANCH   6   8
ENDBRANCH   1   7
BRANCH   1  12
ATOM     12  O   UNL     1       4.131   3.749  17.079  0.00  0.00    +0.000 OA
BRANCH  12  13
ATOM     13  C   UNL     1       4.745   4.247  15.961  0.00  0.00    +0.000 C 
ATOM     14  C   UNL     1       5.942   3.799  15.564  0.00  0.00    +0.000 C 
BRANCH  14  15
ATOM     15  C   UNL     1       6.607   4.396  14.395  0.00  0.00    +0.000 C 
ATOM     16  O   UNL     1       7.504   5.221  14.440  0.00  0.00    +0.000 OA
BRANCH  15  17
ATOM     17  O   UNL     1       6.057   3.861  13.274  0.00  0.00    +0.000 OA
ATOM     18  C   UNL     1       6.936   3.847  12.150  0.00  0.00    +0.000 C 
ENDBRANCH  15  17
ENDBRANCH  14  15
ENDBRANCH  12  13
ENDBRANCH   1  12
TORSDOF 8
ENDMDL
MODEL 2
REMARK VINA RESULT:      -6.1      3.045      4.450
REMARK  Name = 
REMARK  13 active torsions:
REMARK  status: ('A' for Active; 'I' for Inactive)
REMARK    1  A    between atoms: C_1  and  O_2
REMARK    2  A    between atoms: O_2  and  C_3
REMARK    3  A    between atoms: C_3  and  C_5
REMARK    4  A    between atoms: C_6  and  C_7
REMARK    5  A    between atoms: C_7  and  O_8
REMARK    6  A    between atoms: C_7  and  C_15
REMARK    7  A    between atoms: O_8  and  C_9
REMARK    8  A    between atoms: C_10  and  C_11
REMARK    9  A    between atoms: C_11  and  O_13
REMARK   10  A    between atoms: O_13  and  C_14
REMARK   11  A    between atoms: C_15  and  C_16
REMARK   12  A    between atoms: C_15  and  C_17
REMARK   13  A    between atoms: C_15  and  C_18
REMARK                            x       y       z     vdW  Elec       q    Type
REMARK                         _______ _______ _______ _____ _____    ______ ____
ROOT
ATOM      1  C   UNL     1       3.201   4.822  18.799  0.00  0.00    +0.000 C 
ENDROOT
BRANCH   1   2
ATOM      2  C   UNL     1       2.159   3.927  19.557  0.00  0.00    +0.000 C 
ATOM      3  C   UNL     1       1.139   3.316  18.574  0.00  0.00    +0.000 C 
ATOM      4  C   UNL     1       2.884   2.765  20.270  0.00  0.00    +0.000 C 
ATOM      5  C   UNL     1       1.401   4.735  20.633  0.00  0.00    +0.000 C 
ENDBRANCH   1   2
BRANCH   1   7
ATOM      6  C   UNL     1       2.393   7.374  18.666  0.00  0.00    +0.000 C 
ATOM      7  C   UNL     1       2.778   6.240  18.787  0.00  0.00    +0.000 C 
BRANCH   6   8
ATOM      8  C   UNL     1       1.901   8.705  18.402  0.00  0.00    +0.000 C 
ATOM      9  O   UNL     1       2.154   9.273  17.351  0.00  0.00    +0.000 OA
BRANCH   8  11
ATOM     10  C   UNL     1       0.960  10.592  19.408  0.00  0.00    +0.000 C 
ATOM     11  O   UNL     1       1.115   9.173  19.405  0.00  0.00    +0.000 OA
ENDBRANCH   8  11
ENDBRANCH   6   8
ENDBRANCH   1   7
BRANCH   1  12
ATOM     12  O   UNL     1       4.471   4.698  19.470  0.00  0.00    +0.000 OA
BRANCH  12  13
ATOM     13  C   UNL     1       5.545   4.509  18.642  0.00  0.00    +0.000 C 
ATOM     14  C   UNL     1       6.339   5.525  18.286  0.00  0.00    +0.000 C 
BRANCH  14  15
ATOM     15  C   UNL     1       7.449   5.305  17.346  0.00  0.00    +0.000 C 
ATOM     16  O   UNL     1       8.060   4.259  17.209  0.00  0.00    +0.000 OA
BRANCH  15  17
ATOM     17  O   UNL     1       7.658   6.459  16.659  0.00  0.00    +0.000 OA
ATOM     18  C   UNL     1       7.602   7.632  17.471  0.00  0.00    +0.000 C 
ENDBRANCH  15  17
ENDBRANCH  14  15
ENDBRANCH  12  13
ENDBRANCH   1  12
TORSDOF 8
ENDMDL
MODEL 3
REMARK VINA RESULT:      -6.1      3.007      4.213
REMARK  Name = 
REMARK  13 active torsions:
REMARK  status: ('A' for Active; 'I' for Inactive)
REMARK    1  A    between atoms: C_1  and  O_2
REMARK    2  A    between atoms: O_2  and  C_3
REMARK    3  A    between atoms: C_3  and  C_5
REMARK    4  A    between atoms: C_6  and  C_7
REMARK    5  A    between atoms: C_7  and  O_8
REMARK    6  A    between atoms: C_7  and  C_15
REMARK    7  A    between atoms: O_8  and  C_9
REMARK    8  A    between atoms: C_10  and  C_11
REMARK    9  A    between atoms: C_11  and  O_13
REMARK   10  A    between atoms: O_13  and  C_14
REMARK   11  A    between atoms: C_15  and  C_16
REMARK   12  A    between atoms: C_15  and  C_17
REMARK   13  A    between atoms: C_15  and  C_18
REMARK                            x       y       z     vdW  Elec       q    Type
REMARK                         _______ _______ _______ _____ _____    ______ ____
ROOT
ATOM      1  C   UNL     1       3.433   4.947  18.646  0.00  0.00    +0.000 C 
ENDROOT
BRANCH   1   2
ATOM      2  C   UNL     1       2.588   3.957  19.522  0.00  0.00    +0.000 C 
ATOM      3  C   UNL     1       3.413   2.709  19.895  0.00  0.00    +0.000 C 
ATOM      4  C   UNL     1       2.161   4.651  20.834  0.00  0.00    +0.000 C 
ATOM      5  C   UNL     1       1.304   3.513  18.788  0.00  0.00    +0.000 C 
ENDBRANCH   1   2
BRANCH   1   7
ATOM      6  C   UNL     1       2.318   7.373  18.422  0.00  0.00    +0.000 C 
ATOM      7  C   UNL     1       2.757   6.257  18.519  0.00  0.00    +0.000 C 
BRANCH   6   8
ATOM      8  C   UNL     1       1.907   8.754  18.324  0.00  0.00    +0.000 C 
ATOM      9  O   UNL     1       2.157   9.416  17.329  0.00  0.00    +0.000 OA
BRANCH   8  11
ATOM     10  C   UNL     1       0.276  10.217  19.135  0.00  0.00    +0.000 C 
ATOM     11  O   UNL     1       1.195   9.158  19.407  0.00  0.00    +0.000 OA
ENDBRANCH   8  11
ENDBRANCH   6   8
ENDBRANCH   1   7
BRANCH   1  12
ATOM     12  O   UNL     1       4.717   5.120  19.278  0.00  0.00    +0.000 OA
BRANCH  12  13
ATOM     13  C   UNL     1       5.696   5.632  18.467  0.00  0.00    +0.000 C 
ATOM     14  C   UNL     1       5.993   5.066  17.291  0.00  0.00    +0.000 C 
BRANCH  14  15
ATOM     15  C   UNL     1       7.091   5.598  16.469  0.00  0.00    +0.000 C 
ATOM     16  O   UNL     1       7.605   6.695  16.605  0.00  0.00    +0.000 OA
BRANCH  15  17
ATOM     17  O   UNL     1       7.432   4.654  15.554  0.00  0.00    +0.000 OA
ATOM     18  C   UNL     1       6.314   4.066  14.888  0.00  0.00    +0.000 C 
ENDBRANCH  15  17
ENDBRANCH  14  15
ENDBRANCH  12  13
ENDBRANCH   1  12
TORSDOF 8
ENDMDL
MODEL 4
REMARK VINA RESULT:      -6.0      2.366      4.552
REMARK  Name = 
REMARK  13 active torsions:
REMARK  status: ('A' for Active; 'I' for Inactive)
REMARK    1  A    between atoms: C_1  and  O_2
REMARK    2  A    between atoms: O_2  and  C_3
REMARK    3  A    between atoms: C_3  and  C_5
REMARK    4  A    between atoms: C_6  and  C_7
REMARK    5  A    between atoms: C_7  and  O_8
REMARK    6  A    between atoms: C_7  and  C_15
REMARK    7  A    between atoms: O_8  and  C_9
REMARK    8  A    between atoms: C_10  and  C_11
REMARK    9  A    between atoms: C_11  and  O_13
REMARK   10  A    between atoms: O_13  and  C_14
REMARK   11  A    between atoms: C_15  and  C_16
REMARK   12  A    between atoms: C_15  and  C_17
REMARK   13  A    between atoms: C_15  and  C_18
REMARK                            x       y       z     vdW  Elec       q    Type
REMARK                         _______ _______ _______ _____ _____    ______ ____
ROOT
ATOM      1  C   UNL     1       5.987   4.690  16.640  0.00  0.00    +0.000 C 
ENDROOT
BRANCH   1   2
ATOM      2  C   UNL     1       6.119   5.914  17.613  0.00  0.00    +0.000 C 
ATOM      3  C   UNL     1       7.368   6.754  17.276  0.00  0.00    +0.000 C 
ATOM      4  C   UNL     1       4.882   6.829  17.476  0.00  0.00    +0.000 C 
ATOM      5  C   UNL     1       6.201   5.456  19.085  0.00  0.00    +0.000 C 
ENDBRANCH   1   2
BRANCH   1   7
ATOM      6  C   UNL     1       4.040   3.026  17.431  0.00  0.00    +0.000 C 
ATOM      7  C   UNL     1       4.868   3.808  17.041  0.00  0.00    +0.000 C 
BRANCH   6   8
ATOM      8  C   UNL     1       3.140   2.025  17.952  0.00  0.00    +0.000 C 
ATOM      9  O   UNL     1       3.556   1.092  18.621  0.00  0.00    +0.000 OA
BRANCH   8  11
ATOM     10  C   UNL     1       1.049   2.641  18.793  0.00  0.00    +0.000 C 
ATOM     11  O   UNL     1       1.843   2.295  17.657  0.00  0.00    +0.000 OA
ENDBRANCH   8  11
ENDBRANCH   6   8
ENDBRANCH   1   7
BRANCH   1  12
ATOM     12  O   UNL     1       5.754   5.197  15.311  0.00  0.00    +0.000 OA
BRANCH  12  13
ATOM     13  C   UNL     1       6.285   4.437  14.302  0.00  0.00    +0.000 C 
ATOM     14  C   UNL     1       5.570   4.125  13.215  0.00  0.00    +0.000 C 
BRANCH  14  15
ATOM     15  C   UNL     1       6.143   3.254  12.176  0.00  0.00    +0.000 C 
ATOM     16  O   UNL     1       7.304   3.270  11.806  0.00  0.00    +0.000 OA
BRANCH  15  17
ATOM     17  O   UNL     1       5.160   2.435  11.719  0.00  0.00    +0.000 OA
ATOM     18  C   UNL     1       4.038   3.129  11.171  0.00  0.00    +0.000 C 
ENDBRANCH  15  17
ENDBRANCH  14  15
ENDBRANCH  12  13
ENDBRANCH   1  12
TORSDOF 8
ENDMDL
MODEL 5
REMARK VINA RESULT:      -6.0      3.018      4.515
REMARK  Name = 
REMARK  13 active torsions:
REMARK  status: ('A' for Active; 'I' for Inactive)
REMARK    1  A    between atoms: C_1  and  O_2
REMARK    2  A    between atoms: O_2  and  C_3
REMARK    3  A    between atoms: C_3  and  C_5
REMARK    4  A    between atoms: C_6  and  C_7
REMARK    5  A    between atoms: C_7  and  O_8
REMARK    6  A    between atoms: C_7  and  C_15
REMARK    7  A    between atoms: O_8  and  C_9
REMARK    8  A    between atoms: C_10  and  C_11
REMARK    9  A    between atoms: C_11  and  O_13
REMARK   10  A    between atoms: O_13  and  C_14
REMARK   11  A    between atoms: C_15  and  C_16
REMARK   12  A    between atoms: C_15  and  C_17
REMARK   13  A    between atoms: C_15  and  C_18
REMARK                            x       y       z     vdW  Elec       q    Type
REMARK                         _______ _______ _______ _____ _____    ______ ____
ROOT
ATOM      1  C   UNL     1       3.169   4.682  18.822  0.00  0.00    +0.000 C 
ENDROOT
BRANCH   1   2
ATOM      2  C   UNL     1       2.123   3.724  19.494  0.00  0.00    +0.000 C 
ATOM      3  C   UNL     1       2.829   2.582  20.252  0.00  0.00    +0.000 C 
ATOM      4  C   UNL     1       1.270   4.511  20.513  0.00  0.00    +0.000 C 
ATOM      5  C   UNL     1       1.163   3.118  18.448  0.00  0.00    +0.000 C 
ENDBRANCH   1   2
BRANCH   1   7
ATOM      6  C   UNL     1       2.263   7.182  18.490  0.00  0.00    +0.000 C 
ATOM      7  C   UNL     1       2.607   6.037  18.633  0.00  0.00    +0.000 C 
BRANCH   6   8
ATOM      8  C   UNL     1       1.970   8.587  18.341  0.00  0.00    +0.000 C 
ATOM      9  O   UNL     1       2.248   9.183  17.312  0.00  0.00    +0.000 OA
BRANCH   8  11
ATOM     10  C   UNL     1       0.547  10.261  19.137  0.00  0.00    +0.000 C 
ATOM     11  O   UNL     1       1.323   9.097  19.421  0.00  0.00    +0.000 OA
ENDBRANCH   8  11
ENDBRANCH   6   8
ENDBRANCH   1   7
BRANCH   1  12
ATOM     12  O   UNL     1       4.328   4.750  19.677  0.00  0.00    +0.000 OA
BRANCH  12  13
ATOM     13  C   UNL     1       5.483   5.144  19.055  0.00  0.00    +0.000 C 
ATOM     14  C   UNL     1       5.810   4.689  17.840  0.00  0.00    +0.000 C 
BRANCH  14  15
ATOM     15  C   UNL     1       7.087   5.079  17.221  0.00  0.00    +0.000 C 
ATOM     16  O   UNL     1       8.091   4.389  17.184  0.00  0.00    +0.000 OA
BRANCH  15  17
ATOM     17  O   UNL     1       6.941   6.323  16.696  0.00  0.00    +0.000 OA
ATOM     18  C   UNL     1       7.598   7.346  17.445  0.00  0.00    +0.000 C 
ENDBRANCH  15  17
ENDBRANCH  14  15
ENDBRANCH  12  13
ENDBRANCH   1  12
TORSDOF 8
ENDMDL
MODEL 6
REMARK VINA RESULT:      -6.0      3.128      4.274
REMARK  Name = 
REMARK  13 active torsions:
REMARK  status: ('A' for Active; 'I' for Inactive)
REMARK    1  A    between atoms: C_1  and  O_2
REMARK    2  A    between atoms: O_2  and  C_3
REMARK    3  A    between atoms: C_3  and  C_5
REMARK    4  A    between atoms: C_6  and  C_7
REMARK    5  A    between atoms: C_7  and  O_8
REMARK    6  A    between atoms: C_7  and  C_15
REMARK    7  A    between atoms: O_8  and  C_9
REMARK    8  A    between atoms: C_10  and  C_11
REMARK    9  A    between atoms: C_11  and  O_13
REMARK   10  A    between atoms: O_13  and  C_14
REMARK   11  A    between atoms: C_15  and  C_16
REMARK   12  A    between atoms: C_15  and  C_17
REMARK   13  A    between atoms: C_15  and  C_18
REMARK                            x       y       z     vdW  Elec       q    Type
REMARK                         _______ _______ _______ _____ _____    ______ ____
ROOT
ATOM      1  C   UNL     1       3.297   5.066  18.690  0.00  0.00    +0.000 C 
ENDROOT
BRANCH   1   2
ATOM      2  C   UNL     1       2.348   4.141  19.531  0.00  0.00    +0.000 C 
ATOM      3  C   UNL     1       1.661   4.938  20.659  0.00  0.00    +0.000 C 
ATOM      4  C   UNL     1       1.244   3.557  18.624  0.00  0.00    +0.000 C 
ATOM      5  C   UNL     1       3.122   2.956  20.150  0.00  0.00    +0.000 C 
ENDBRANCH   1   2
BRANCH   1   7
ATOM      6  C   UNL     1       2.289   7.529  18.381  0.00  0.00    +0.000 C 
ATOM      7  C   UNL     1       2.693   6.400  18.481  0.00  0.00    +0.000 C 
BRANCH   6   8
ATOM      8  C   UNL     1       1.895   8.918  18.343  0.00  0.00    +0.000 C 
ATOM      9  O   UNL     1       2.161   9.622  17.382  0.00  0.00    +0.000 OA
BRANCH   8  11
ATOM     10  C   UNL     1       0.361  10.435  19.240  0.00  0.00    +0.000 C 
ATOM     11  O   UNL     1       1.176   9.279  19.437  0.00  0.00    +0.000 OA
ENDBRANCH   8  11
ENDBRANCH   6   8
ENDBRANCH   1   7
BRANCH   1  12
ATOM     12  O   UNL     1       4.541   5.201  19.406  0.00  0.00    +0.000 OA
BRANCH  12  13
ATOM     13  C   UNL     1       5.664   5.180  18.623  0.00  0.00    +0.000 C 
ATOM     14  C   UNL     1       5.740   4.405  17.534  0.00  0.00    +0.000 C 
BRANCH  14  15
ATOM     15  C   UNL     1       6.982   4.354  16.746  0.00  0.00    +0.000 C 
ATOM     16  O   UNL     1       8.108   4.459  17.199  0.00  0.00    +0.000 OA
BRANCH  15  17
ATOM     17  O   UNL     1       6.649   4.158  15.443  0.00  0.00    +0.000 OA
ATOM     18  C   UNL     1       5.793   5.168  14.908  0.00  0.00    +0.000 C 
ENDBRANCH  15  17
ENDBRANCH  14  15
ENDBRANCH  12  13
ENDBRANCH   1  12
TORSDOF 8
ENDMDL
MODEL 7
REMARK VINA RESULT:      -6.0      3.108      6.105
REMARK  Name = 
REMARK  13 active torsions:
REMARK  status: ('A' for Active; 'I' for Inactive)
REMARK    1  A    between atoms: C_1  and  O_2
REMARK    2  A    between atoms: O_2  and  C_3
REMARK    3  A    between atoms: C_3  and  C_5
REMARK    4  A    between atoms: C_6  and  C_7
REMARK    5  A    between atoms: C_7  and  O_8
REMARK    6  A    between atoms: C_7  and  C_15
REMARK    7  A    between atoms: O_8  and  C_9
REMARK    8  A    between atoms: C_10  and  C_11
REMARK    9  A    between atoms: C_11  and  O_13
REMARK   10  A    between atoms: O_13  and  C_14
REMARK   11  A    between atoms: C_15  and  C_16
REMARK   12  A    between atoms: C_15  and  C_17
REMARK   13  A    between atoms: C_15  and  C_18
REMARK                            x       y       z     vdW  Elec       q    Type
REMARK                         _______ _______ _______ _____ _____    ______ ____
ROOT
ATOM      1  C   UNL     1       4.754   5.243  17.487  0.00  0.00    +0.000 C 
ENDROOT
BRANCH   1   2
ATOM      2  C   UNL     1       5.872   5.726  16.496  0.00  0.00    +0.000 C 
ATOM      3  C   UNL     1       6.872   6.660  17.207  0.00  0.00    +0.000 C 
ATOM      4  C   UNL     1       6.659   4.510  15.961  0.00  0.00    +0.000 C 
ATOM      5  C   UNL     1       5.267   6.463  15.282  0.00  0.00    +0.000 C 
ENDBRANCH   1   2
BRANCH   1   7
ATOM      6  C   UNL     1       3.140   7.295  18.094  0.00  0.00    +0.000 C 
ATOM      7  C   UNL     1       3.876   6.365  17.887  0.00  0.00    +0.000 C 
BRANCH   6   8
ATOM      8  C   UNL     1       2.249   8.424  18.219  0.00  0.00    +0.000 C 
ATOM      9  O   UNL     1       2.017   9.151  17.265  0.00  0.00    +0.000 OA
BRANCH   8  11
ATOM     10  C   UNL     1       0.889   9.672  19.651  0.00  0.00    +0.000 C 
ATOM     11  O   UNL     1       1.697   8.511  19.456  0.00  0.00    +0.000 OA
ENDBRANCH   8  11
ENDBRANCH   6   8
ENDBRANCH   1   7
BRANCH   1  12
ATOM     12  O   UNL     1       3.975   4.228  16.823  0.00  0.00    +0.000 OA
BRANCH  12  13
ATOM     13  C   UNL     1       3.292   3.386  17.660  0.00  0.00    +0.000 C 
ATOM     14  C   UNL     1       1.960   3.442  17.770  0.00  0.00    +0.000 C 
BRANCH  14  15
ATOM     15  C   UNL     1       1.257   2.568  18.723  0.00  0.00    +0.000 C 
ATOM     16  O   UNL     1       0.221   1.967  18.496  0.00  0.00    +0.000 OA
BRANCH  15  17
ATOM     17  O   UNL     1       1.969   2.544  19.880  0.00  0.00    +0.000 OA
ATOM     18  C   UNL     1       1.243   3.022  21.014  0.00  0.00    +0.000 C 
ENDBRANCH  15  17
ENDBRANCH  14  15
ENDBRANCH  12  13
ENDBRANCH   1  12
TORSDOF 8
ENDMDL
MODEL 8
REMARK VINA RESULT:      -5.9      2.706      4.040
REMARK  Name = 
REMARK  13 active torsions:
REMARK  status: ('A' for Active; 'I' for Inactive)
REMARK    1  A    between atoms: C_1  and  O_2
REMARK    2  A    between atoms: O_2  and  C_3
REMARK    3  A    between atoms: C_3  and  C_5
REMARK    4  A    between atoms: C_6  and  C_7
REMARK    5  A    between atoms: C_7  and  O_8
REMARK    6  A    between atoms: C_7  and  C_15
REMARK    7  A    between atoms: O_8  and  C_9
REMARK    8  A    between atoms: C_10  and  C_11
REMARK    9  A    between atoms: C_11  and  O_13
REMARK   10  A    between atoms: O_13  and  C_14
REMARK   11  A    between atoms: C_15  and  C_16
REMARK   12  A    between atoms: C_15  and  C_17
REMARK   13  A    between atoms: C_15  and  C_18
REMARK                            x       y       z     vdW  Elec       q    Type
REMARK                         _______ _______ _______ _____ _____    ______ ____
ROOT
ATOM      1  C   UNL     1       2.051   4.005  17.873  0.00  0.00    +0.000 C 
ENDROOT
BRANCH   1   2
ATOM      2  C   UNL     1       1.671   3.249  19.195  0.00  0.00    +0.000 C 
ATOM      3  C   UNL     1       1.005   4.206  20.204  0.00  0.00    +0.000 C 
ATOM      4  C   UNL     1       0.668   2.117  18.883  0.00  0.00    +0.000 C 
ATOM      5  C   UNL     1       2.912   2.607  19.851  0.00  0.00    +0.000 C 
ENDBRANCH   1   2
BRANCH   1   7
ATOM      6  C   UNL     1       2.267   6.651  18.244  0.00  0.00    +0.000 C 
ATOM      7  C   UNL     1       2.222   5.455  18.118  0.00  0.00    +0.000 C 
BRANCH   6   8
ATOM      8  C   UNL     1       2.227   8.092  18.309  0.00  0.00    +0.000 C 
ATOM      9  O   UNL     1       2.463   8.774  17.324  0.00  0.00    +0.000 OA
BRANCH   8  11
ATOM     10  C   UNL     1       0.936   9.637  19.495  0.00  0.00    +0.000 C 
ATOM     11  O   UNL     1       1.853   8.542  19.534  0.00  0.00    +0.000 OA
ENDBRANCH   8  11
ENDBRANCH   6   8
ENDBRANCH   1   7
BRANCH   1  12
ATOM     12  O   UNL     1       3.284   3.447  17.376  0.00  0.00    +0.000 OA
BRANCH  12  13
ATOM     13  C   UNL     1       4.208   4.368  16.959  0.00  0.00    +0.000 C 
ATOM     14  C   UNL     1       5.288   4.004  16.258  0.00  0.00    +0.000 C 
BRANCH  14  15
ATOM     15  C   UNL     1       6.297   5.004  15.877  0.00  0.00    +0.000 C 
ATOM     16  O   UNL     1       6.068   6.046  15.287  0.00  0.00    +0.000 OA
BRANCH  15  17
ATOM     17  O   UNL     1       7.510   4.569  16.307  0.00  0.00    +0.000 OA
ATOM     18  C   UNL     1       7.661   4.588  17.727  0.00  0.00    +0.000 C 
ENDBRANCH  15  17
ENDBRANCH  14  15
ENDBRANCH  12  13
ENDBRANCH   1  12
TORSDOF 8
ENDMDL
MODEL 9
REMARK VINA RESULT:      -5.9      2.677      3.663
REMARK  Name = 
REMARK  13 active torsions:
REMARK  status: ('A' for Active; 'I' for Inactive)
REMARK    1  A    between atoms: C_1  and  O_2
REMARK    2  A    between atoms: O_2  and  C_3
REMARK    3  A    between atoms: C_3  and  C_5
REMARK    4  A    between atoms: C_6  and  C_7
REMARK    5  A    between atoms: C_7  and  O_8
REMARK    6  A    between atoms: C_7  and  C_15
REMARK    7  A    between atoms: O_8  and  C_9
REMARK    8  A    between atoms: C_10  and  C_11
REMARK    9  A    between atoms: C_11  and  O_13
REMARK   10  A    between atoms: O_13  and  C_14
REMARK   11  A    between atoms: C_15  and  C_16
REMARK   12  A    between atoms: C_15  and  C_17
REMARK   13  A    between atoms: C_15  and  C_18
REMARK                            x       y       z     vdW  Elec       q    Type
REMARK                         _______ _______ _______ _____ _____    ______ ____
ROOT
ATOM      1  C   UNL     1       3.644   4.537  17.680  0.00  0.00    +0.000 C 
ENDROOT
BRANCH   1   2
ATOM      2  C   UNL     1       2.856   3.469  18.516  0.00  0.00    +0.000 C 
ATOM      3  C   UNL     1       1.336   3.716  18.433  0.00  0.00    +0.000 C 
ATOM      4  C   UNL     1       3.136   2.055  17.961  0.00  0.00    +0.000 C 
ATOM      5  C   UNL     1       3.289   3.484  19.998  0.00  0.00    +0.000 C 
ENDBRANCH   1   2
BRANCH   1   7
ATOM      6  C   UNL     1       2.578   6.978  17.979  0.00  0.00    +0.000 C 
ATOM      7  C   UNL     1       3.016   5.872  17.793  0.00  0.00    +0.000 C 
BRANCH   6   8
ATOM      8  C   UNL     1       2.127   8.310  18.304  0.00  0.00    +0.000 C 
ATOM      9  O   UNL     1       2.053   9.177  17.447  0.00  0.00    +0.000 OA
BRANCH   8  11
ATOM     10  C   UNL     1       0.877   9.518  19.866  0.00  0.00    +0.000 C 
ATOM     11  O   UNL     1       1.761   8.427  19.607  0.00  0.00    +0.000 OA
ENDBRANCH   8  11
ENDBRANCH   6   8
ENDBRANCH   1   7
BRANCH   1  12
ATOM     12  O   UNL     1       4.995   4.591  18.181  0.00  0.00    +0.000 OA
BRANCH  12  13
ATOM     13  C   UNL     1       5.968   4.614  17.217  0.00  0.00    +0.000 C 
ATOM     14  C   UNL     1       5.661   4.572  15.915  0.00  0.00    +0.000 C 
BRANCH  14  15
ATOM     15  C   UNL     1       6.727   4.534  14.902  0.00  0.00    +0.000 C 
ATOM     16  O   UNL     1       7.656   5.319  14.829  0.00  0.00    +0.000 OA
BRANCH  15  17
ATOM     17  O   UNL     1       6.499   3.473  14.085  0.00  0.00    +0.000 OA
ATOM     18  C   UNL     1       5.681   3.780  12.956  0.00  0.00    +0.000 C 
ENDBRANCH  15  17
ENDBRANCH  14  15
ENDBRANCH  12  13
ENDBRANCH   1  12
TORSDOF 8
ENDMDL
