MODEL 1
REMARK VINA RESULT:      -7.2      0.000      0.000
REMARK  Name = 
REMARK  5 active torsions:
REMARK  status: ('A' for Active; 'I' for Inactive)
REMARK    1  A    between atoms: C_1  and  C_2
REMARK    2  A    between atoms: C_2  and  C_3
REMARK    3  A    between atoms: C_3  and  O_4
REMARK    4  A    between atoms: O_4  and  C_5
REMARK    5  A    between atoms: C_5  and  C_6
REMARK                            x       y       z     vdW  Elec       q    Type
REMARK                         _______ _______ _______ _____ _____    ______ ____
ROOT
ATOM      1  C   UNL     1       4.615   4.256  18.049  0.00  0.00    +0.000 C 
ATOM      2  O   UNL     1       5.080   4.127  16.676  0.00  0.00    +0.000 OA
ATOM      3  C   UNL     1       5.287   5.196  15.876  0.00  0.00    +0.000 C 
ATOM      4  O   UNL     1       5.925   5.105  14.834  0.00  0.00    +0.000 OA
ATOM      5  N   UNL     1       4.759   6.390  16.263  0.00  0.00    +0.000 N 
ATOM      6  C   UNL     1       3.974   6.581  17.386  0.00  0.00    +0.000 A 
ATOM      7  C   UNL     1       3.291   7.793  17.539  0.00  0.00    +0.000 A 
ATOM      8  C   UNL     1       2.450   7.978  18.634  0.00  0.00    +0.000 A 
ATOM      9  C   UNL     1       2.361   6.981  19.598  0.00  0.00    +0.000 A 
ATOM     10 CL   UNL     1       1.298   7.186  20.938  0.00  0.00    +0.000 Cl
ATOM     11  C   UNL     1       3.105   5.804  19.471  0.00  0.00    +0.000 A 
ATOM     12  C   UNL     1       3.878   5.560  18.317  0.00  0.00    +0.000 A 
ATOM     13  H   UNL     1       4.918   7.148  15.610  0.00  0.00    +0.000 HD
ENDROOT
BRANCH   1  14
ATOM     14  C   UNL     1       3.671   2.995  18.270  0.00  0.00    +0.000 C 
ATOM     15  F   UNL     1       3.641   2.607  19.570  0.00  0.00    +0.000 F 
ATOM     16  F   UNL     1       2.372   3.193  17.914  0.00  0.00    +0.000 F 
ATOM     17  F   UNL     1       4.089   1.922  17.554  0.00  0.00    +0.000 F 
ENDBRANCH   1  14
BRANCH   1  18
ATOM     18  O   UNL     1       5.741   4.130  18.965  0.00  0.00    +0.000 OA
BRANCH  18  19
ATOM     19  C   UNL     1       6.353   5.350  19.383  0.00  0.00    +0.000 C 
BRANCH  19  21
ATOM     20  C   UNL     1       7.810   6.986  18.141  0.00  0.00    +0.000 C 
ATOM     21  C   UNL     1       7.651   5.547  18.607  0.00  0.00    +0.000 C 
ENDBRANCH  19  21
ENDBRANCH  18  19
ENDBRANCH   1  18
TORSDOF 4
ENDMDL
MODEL 2
REMARK VINA RESULT:      -7.1      2.754      4.616
REMARK  Name = 
REMARK  5 active torsions:
REMARK  status: ('A' for Active; 'I' for Inactive)
REMARK    1  A    between atoms: C_1  and  C_2
REMARK    2  A    between atoms: C_2  and  C_3
REMARK    3  A    between atoms: C_3  and  O_4
REMARK    4  A    between atoms: O_4  and  C_5
REMARK    5  A    between atoms: C_5  and  C_6
REMARK                            x       y       z     vdW  Elec       q    Type
REMARK                         _______ _______ _______ _____ _____    ______ ____
ROOT
ATOM      1  C   UNL     1       4.597   4.447  17.947  0.00  0.00    +0.000 C 
ATOM      2  O   UNL     1       5.454   4.522  19.121  0.00  0.00    +0.000 OA
ATOM      3  C   UNL     1       6.677   5.095  19.091  0.00  0.00    +0.000 C 
ATOM      4  O   UNL     1       7.271   5.394  20.120  0.00  0.00    +0.000 OA
ATOM      5  N   UNL     1       7.238   5.329  17.874  0.00  0.00    +0.000 N 
ATOM      6  C   UNL     1       6.677   4.972  16.661  0.00  0.00    +0.000 A 
ATOM      7  C   UNL     1       7.460   5.043  15.503  0.00  0.00    +0.000 A 
ATOM      8  C   UNL     1       6.928   4.630  14.284  0.00  0.00    +0.000 A 
ATOM      9  C   UNL     1       5.600   4.223  14.226  0.00  0.00    +0.000 A 
ATOM     10 CL   UNL     1       4.942   3.678  12.729  0.00  0.00    +0.000 Cl
ATOM     11  C   UNL     1       4.807   4.225  15.377  0.00  0.00    +0.000 A 
ATOM     12  C   UNL     1       5.361   4.540  16.635  0.00  0.00    +0.000 A 
ATOM     13  H   UNL     1       8.168   5.730  17.913  0.00  0.00    +0.000 HD
ENDROOT
BRANCH   1  14
ATOM     14  C   UNL     1       3.848   3.051  18.089  0.00  0.00    +0.000 C 
ATOM     15  F   UNL     1       2.538   3.141  17.743  0.00  0.00    +0.000 F 
ATOM     16  F   UNL     1       4.364   2.053  17.321  0.00  0.00    +0.000 F 
ATOM     17  F   UNL     1       3.881   2.589  19.364  0.00  0.00    +0.000 F 
ENDBRANCH   1  14
BRANCH   1  18
ATOM     18  O   UNL     1       3.588   5.497  18.005  0.00  0.00    +0.000 OA
BRANCH  18  19
ATOM     19  C   UNL     1       3.389   6.108  19.280  0.00  0.00    +0.000 C 
BRANCH  19  21
ATOM     20  C   UNL     1       2.097   4.742  20.955  0.00  0.00    +0.000 C 
ATOM     21  C   UNL     1       2.007   5.730  19.802  0.00  0.00    +0.000 C 
ENDBRANCH  19  21
ENDBRANCH  18  19
ENDBRANCH   1  18
TORSDOF 4
ENDMDL
MODEL 3
REMARK VINA RESULT:      -7.0      2.677      4.480
REMARK  Name = 
REMARK  5 active torsions:
REMARK  status: ('A' for Active; 'I' for Inactive)
REMARK    1  A    between atoms: C_1  and  C_2
REMARK    2  A    between atoms: C_2  and  C_3
REMARK    3  A    between atoms: C_3  and  O_4
REMARK    4  A    between atoms: O_4  and  C_5
REMARK    5  A    between atoms: C_5  and  C_6
REMARK                            x       y       z     vdW  Elec       q    Type
REMARK                         _______ _______ _______ _____ _____    ______ ____
ROOT
ATOM      1  C   UNL     1       4.385   4.620  17.763  0.00  0.00    +0.000 C 
ATOM      2  O   UNL     1       5.181   4.662  18.981  0.00  0.00    +0.000 OA
ATOM      3  C   UNL     1       6.442   5.145  19.008  0.00  0.00    +0.000 C 
ATOM      4  O   UNL     1       7.000   5.426  20.062  0.00  0.00    +0.000 OA
ATOM      5  N   UNL     1       7.084   5.309  17.819  0.00  0.00    +0.000 N 
ATOM      6  C   UNL     1       6.564   4.963  16.585  0.00  0.00    +0.000 A 
ATOM      7  C   UNL     1       7.412   4.949  15.471  0.00  0.00    +0.000 A 
ATOM      8  C   UNL     1       6.918   4.545  14.233  0.00  0.00    +0.000 A 
ATOM      9  C   UNL     1       5.569   4.234  14.109  0.00  0.00    +0.000 A 
ATOM     10 CL   UNL     1       4.954   3.701  12.590  0.00  0.00    +0.000 Cl
ATOM     11  C   UNL     1       4.717   4.321  15.214  0.00  0.00    +0.000 A 
ATOM     12  C   UNL     1       5.224   4.626  16.494  0.00  0.00    +0.000 A 
ATOM     13  H   UNL     1       8.037   5.642  17.902  0.00  0.00    +0.000 HD
ENDROOT
BRANCH   1  14
ATOM     14  C   UNL     1       3.530   3.286  17.892  0.00  0.00    +0.000 C 
ATOM     15  F   UNL     1       3.225   3.002  19.185  0.00  0.00    +0.000 F 
ATOM     16  F   UNL     1       2.341   3.312  17.230  0.00  0.00    +0.000 F 
ATOM     17  F   UNL     1       4.198   2.210  17.407  0.00  0.00    +0.000 F 
ENDBRANCH   1  14
BRANCH   1  18
ATOM     18  O   UNL     1       3.454   5.741  17.744  0.00  0.00    +0.000 OA
BRANCH  18  19
ATOM     19  C   UNL     1       2.763   6.006  18.964  0.00  0.00    +0.000 C 
BRANCH  19  21
ATOM     20  C   UNL     1       2.574   8.167  17.685  0.00  0.00    +0.000 C 
ATOM     21  C   UNL     1       2.450   7.497  19.044  0.00  0.00    +0.000 C 
ENDBRANCH  19  21
ENDBRANCH  18  19
ENDBRANCH   1  18
TORSDOF 4
ENDMDL
MODEL 4
REMARK VINA RESULT:      -7.0      2.654      4.250
REMARK  Name = 
REMARK  5 active torsions:
REMARK  status: ('A' for Active; 'I' for Inactive)
REMARK    1  A    between atoms: C_1  and  C_2
REMARK    2  A    between atoms: C_2  and  C_3
REMARK    3  A    between atoms: C_3  and  O_4
REMARK    4  A    between atoms: O_4  and  C_5
REMARK    5  A    between atoms: C_5  and  C_6
REMARK                            x       y       z     vdW  Elec       q    Type
REMARK                         _______ _______ _______ _____ _____    ______ ____
ROOT
ATOM      1  C   UNL     1       4.195   5.682  17.857  0.00  0.00    +0.000 C 
ATOM      2  O   UNL     1       5.468   6.086  18.435  0.00  0.00    +0.000 OA
ATOM      3  C   UNL     1       6.338   5.198  18.964  0.00  0.00    +0.000 C 
ATOM      4  O   UNL     1       7.502   5.502  19.198  0.00  0.00    +0.000 OA
ATOM      5  N   UNL     1       5.881   3.946  19.236  0.00  0.00    +0.000 N 
ATOM      6  C   UNL     1       4.574   3.526  19.066  0.00  0.00    +0.000 A 
ATOM      7  C   UNL     1       4.178   2.299  19.612  0.00  0.00    +0.000 A 
ATOM      8  C   UNL     1       2.851   1.891  19.501  0.00  0.00    +0.000 A 
ATOM      9  C   UNL     1       1.956   2.676  18.784  0.00  0.00    +0.000 A 
ATOM     10 CL   UNL     1       0.305   2.197  18.670  0.00  0.00    +0.000 Cl
ATOM     11  C   UNL     1       2.381   3.864  18.182  0.00  0.00    +0.000 A 
ATOM     12  C   UNL     1       3.694   4.342  18.374  0.00  0.00    +0.000 A 
ATOM     13  H   UNL     1       6.567   3.334  19.661  0.00  0.00    +0.000 HD
ENDROOT
BRANCH   1  14
ATOM     14  C   UNL     1       3.196   6.862  18.229  0.00  0.00    +0.000 C 
ATOM     15  F   UNL     1       3.692   8.076  17.874  0.00  0.00    +0.000 F 
ATOM     16  F   UNL     1       1.974   6.776  17.635  0.00  0.00    +0.000 F 
ATOM     17  F   UNL     1       2.955   6.917  19.562  0.00  0.00    +0.000 F 
ENDBRANCH   1  14
BRANCH   1  18
ATOM     18  O   UNL     1       4.305   5.639  16.404  0.00  0.00    +0.000 OA
BRANCH  18  19
ATOM     19  C   UNL     1       5.623   5.488  15.877  0.00  0.00    +0.000 C 
BRANCH  19  21
ATOM     20  C   UNL     1       6.250   3.993  13.951  0.00  0.00    +0.000 C 
ATOM     21  C   UNL     1       5.807   4.049  15.405  0.00  0.00    +0.000 C 
ENDBRANCH  19  21
ENDBRANCH  18  19
ENDBRANCH   1  18
TORSDOF 4
ENDMDL
MODEL 5
REMARK VINA RESULT:      -6.9      3.215      4.756
REMARK  Name = 
REMARK  5 active torsions:
REMARK  status: ('A' for Active; 'I' for Inactive)
REMARK    1  A    between atoms: C_1  and  C_2
REMARK    2  A    between atoms: C_2  and  C_3
REMARK    3  A    between atoms: C_3  and  O_4
REMARK    4  A    between atoms: O_4  and  C_5
REMARK    5  A    between atoms: C_5  and  C_6
REMARK                            x       y       z     vdW  Elec       q    Type
REMARK                         _______ _______ _______ _____ _____    ______ ____
ROOT
ATOM      1  C   UNL     1       3.224   5.772  18.452  0.00  0.00    +0.000 C 
ATOM      2  O   UNL     1       2.330   4.765  17.898  0.00  0.00    +0.000 OA
ATOM      3  C   UNL     1       2.782   3.609  17.365  0.00  0.00    +0.000 C 
ATOM      4  O   UNL     1       2.031   2.664  17.152  0.00  0.00    +0.000 OA
ATOM      5  N   UNL     1       4.106   3.523  17.065  0.00  0.00    +0.000 N 
ATOM      6  C   UNL     1       5.019   4.552  17.210  0.00  0.00    +0.000 A 
ATOM      7  C   UNL     1       6.290   4.418  16.638  0.00  0.00    +0.000 A 
ATOM      8  C   UNL     1       7.199   5.470  16.723  0.00  0.00    +0.000 A 
ATOM      9  C   UNL     1       6.855   6.609  17.442  0.00  0.00    +0.000 A 
ATOM     10 CL   UNL     1       7.959   7.929  17.526  0.00  0.00    +0.000 Cl
ATOM     11  C   UNL     1       5.609   6.700  18.070  0.00  0.00    +0.000 A 
ATOM     12  C   UNL     1       4.641   5.689  17.904  0.00  0.00    +0.000 A 
ATOM     13  H   UNL     1       4.382   2.646  16.639  0.00  0.00    +0.000 HD
ENDROOT
BRANCH   1  14
ATOM     14  C   UNL     1       2.536   7.158  18.087  0.00  0.00    +0.000 C 
ATOM     15  F   UNL     1       2.479   7.993  19.157  0.00  0.00    +0.000 F 
ATOM     16  F   UNL     1       3.167   7.861  17.106  0.00  0.00    +0.000 F 
ATOM     17  F   UNL     1       1.261   6.991  17.658  0.00  0.00    +0.000 F 
ENDBRANCH   1  14
BRANCH   1  18
ATOM     18  O   UNL     1       3.250   5.661  19.905  0.00  0.00    +0.000 OA
BRANCH  18  19
ATOM     19  C   UNL     1       2.024   5.281  20.529  0.00  0.00    +0.000 C 
BRANCH  19  21
ATOM     20  C   UNL     1       1.260   2.908  20.882  0.00  0.00    +0.000 C 
ATOM     21  C   UNL     1       2.242   3.988  21.308  0.00  0.00    +0.000 C 
ENDBRANCH  19  21
ENDBRANCH  18  19
ENDBRANCH   1  18
TORSDOF 4
ENDMDL
MODEL 6
REMARK VINA RESULT:      -6.9      2.671      3.830
REMARK  Name = 
REMARK  5 active torsions:
REMARK  status: ('A' for Active; 'I' for Inactive)
REMARK    1  A    between atoms: C_1  and  C_2
REMARK    2  A    between atoms: C_2  and  C_3
REMARK    3  A    between atoms: C_3  and  O_4
REMARK    4  A    between atoms: O_4  and  C_5
REMARK    5  A    between atoms: C_5  and  C_6
REMARK                            x       y       z     vdW  Elec       q    Type
REMARK                         _______ _______ _______ _____ _____    ______ ____
ROOT
ATOM      1  C   UNL     1       5.143   5.010  17.673  0.00  0.00    +0.000 C 
ATOM      2  O   UNL     1       5.565   3.923  18.543  0.00  0.00    +0.000 OA
ATOM      3  C   UNL     1       4.754   3.388  19.482  0.00  0.00    +0.000 C 
ATOM      4  O   UNL     1       5.010   2.316  20.016  0.00  0.00    +0.000 OA
ATOM      5  N   UNL     1       3.634   4.083  19.823  0.00  0.00    +0.000 N 
ATOM      6  C   UNL     1       3.291   5.326  19.324  0.00  0.00    +0.000 A 
ATOM      7  C   UNL     1       2.253   6.041  19.934  0.00  0.00    +0.000 A 
ATOM      8  C   UNL     1       1.936   7.319  19.481  0.00  0.00    +0.000 A 
ATOM      9  C   UNL     1       2.608   7.835  18.379  0.00  0.00    +0.000 A 
ATOM     10 CL   UNL     1       2.247   9.429  17.832  0.00  0.00    +0.000 Cl
ATOM     11  C   UNL     1       3.593   7.082  17.734  0.00  0.00    +0.000 A 
ATOM     12  C   UNL     1       3.997   5.832  18.244  0.00  0.00    +0.000 A 
ATOM     13  H   UNL     1       3.082   3.650  20.554  0.00  0.00    +0.000 HD
ENDROOT
BRANCH   1  14
ATOM     14  C   UNL     1       6.451   5.892  17.473  0.00  0.00    +0.000 C 
ATOM     15  F   UNL     1       6.348   6.716  16.399  0.00  0.00    +0.000 F 
ATOM     16  F   UNL     1       6.755   6.697  18.528  0.00  0.00    +0.000 F 
ATOM     17  F   UNL     1       7.550   5.124  17.268  0.00  0.00    +0.000 F 
ENDBRANCH   1  14
BRANCH   1  18
ATOM     18  O   UNL     1       4.766   4.480  16.369  0.00  0.00    +0.000 OA
BRANCH  18  19
ATOM     19  C   UNL     1       5.731   3.649  15.724  0.00  0.00    +0.000 C 
BRANCH  19  21
ATOM     20  C   UNL     1       7.110   4.759  13.933  0.00  0.00    +0.000 C 
ATOM     21  C   UNL     1       5.812   4.033  14.250  0.00  0.00    +0.000 C 
ENDBRANCH  19  21
ENDBRANCH  18  19
ENDBRANCH   1  18
TORSDOF 4
ENDMDL
MODEL 7
REMARK VINA RESULT:      -6.8      2.664      3.395
REMARK  Name = 
REMARK  5 active torsions:
REMARK  status: ('A' for Active; 'I' for Inactive)
REMARK    1  A    between atoms: C_1  and  C_2
REMARK    2  A    between atoms: C_2  and  C_3
REMARK    3  A    between atoms: C_3  and  O_4
REMARK    4  A    between atoms: O_4  and  C_5
REMARK    5  A    between atoms: C_5  and  C_6
REMARK                            x       y       z     vdW  Elec       q    Type
REMARK                         _______ _______ _______ _____ _____    ______ ____
ROOT
ATOM      1  C   UNL     1       4.464   5.906  17.819  0.00  0.00    +0.000 C 
ATOM      2  O   UNL     1       3.843   7.030  17.134  0.00  0.00    +0.000 OA
ATOM      3  C   UNL     1       2.937   7.833  17.732  0.00  0.00    +0.000 C 
ATOM      4  O   UNL     1       2.626   8.918  17.254  0.00  0.00    +0.000 OA
ATOM      5  N   UNL     1       2.370   7.399  18.890  0.00  0.00    +0.000 N 
ATOM      6  C   UNL     1       2.608   6.167  19.475  0.00  0.00    +0.000 A 
ATOM      7  C   UNL     1       1.782   5.741  20.522  0.00  0.00    +0.000 A 
ATOM      8  C   UNL     1       1.971   4.480  21.080  0.00  0.00    +0.000 A 
ATOM      9  C   UNL     1       3.027   3.692  20.636  0.00  0.00    +0.000 A 
ATOM     10 CL   UNL     1       3.249   2.116  21.296  0.00  0.00    +0.000 Cl
ATOM     11  C   UNL     1       3.889   4.158  19.639  0.00  0.00    +0.000 A 
ATOM     12  C   UNL     1       3.647   5.388  18.993  0.00  0.00    +0.000 A 
ATOM     13  H   UNL     1       1.675   8.026  19.276  0.00  0.00    +0.000 HD
ENDROOT
BRANCH   1  14
ATOM     14  C   UNL     1       4.635   4.798  16.692  0.00  0.00    +0.000 C 
ATOM     15  F   UNL     1       4.838   5.348  15.467  0.00  0.00    +0.000 F 
ATOM     16  F   UNL     1       5.679   3.946  16.890  0.00  0.00    +0.000 F 
ATOM     17  F   UNL     1       3.534   4.012  16.586  0.00  0.00    +0.000 F 
ENDBRANCH   1  14
BRANCH   1  18
ATOM     18  O   UNL     1       5.797   6.281  18.274  0.00  0.00    +0.000 OA
BRANCH  18  19
ATOM     19  C   UNL     1       6.558   7.098  17.385  0.00  0.00    +0.000 C 
BRANCH  19  21
ATOM     20  C   UNL     1       8.206   8.909  17.974  0.00  0.00    +0.000 C 
ATOM     21  C   UNL     1       7.901   7.420  18.033  0.00  0.00    +0.000 C 
ENDBRANCH  19  21
ENDBRANCH  18  19
ENDBRANCH   1  18
TORSDOF 4
ENDMDL
MODEL 8
REMARK VINA RESULT:      -6.8      3.100      4.684
REMARK  Name = 
REMARK  5 active torsions:
REMARK  status: ('A' for Active; 'I' for Inactive)
REMARK    1  A    between atoms: C_1  and  C_2
REMARK    2  A    between atoms: C_2  and  C_3
REMARK    3  A    between atoms: C_3  and  O_4
REMARK    4  A    between atoms: O_4  and  C_5
REMARK    5  A    between atoms: C_5  and  C_6
REMARK                            x       y       z     vdW  Elec       q    Type
REMARK                         _______ _______ _______ _____ _____    ______ ____
ROOT
ATOM      1  C   UNL     1       3.398   4.208  18.520  0.00  0.00    +0.000 C 
ATOM      2  O   UNL     1       3.037   5.166  19.554  0.00  0.00    +0.000 OA
ATOM      3  C   UNL     1       2.887   6.485  19.301  0.00  0.00    +0.000 C 
ATOM      4  O   UNL     1       2.329   7.232  20.096  0.00  0.00    +0.000 OA
ATOM      5  N   UNL     1       3.380   6.966  18.127  0.00  0.00    +0.000 N 
ATOM      6  C   UNL     1       4.077   6.218  17.196  0.00  0.00    +0.000 A 
ATOM      7  C   UNL     1       4.743   6.877  16.155  0.00  0.00    +0.000 A 
ATOM      8  C   UNL     1       5.499   6.143  15.245  0.00  0.00    +0.000 A 
ATOM      9  C   UNL     1       5.519   4.756  15.341  0.00  0.00    +0.000 A 
ATOM     10 CL   UNL     1       6.478   3.841  14.241  0.00  0.00    +0.000 Cl
ATOM     11  C   UNL     1       4.791   4.105  16.342  0.00  0.00    +0.000 A 
ATOM     12  C   UNL     1       4.108   4.839  17.332  0.00  0.00    +0.000 A 
ATOM     13  H   UNL     1       3.267   7.965  18.005  0.00  0.00    +0.000 HD
ENDROOT
BRANCH   1  14
ATOM     14  C   UNL     1       4.327   3.153  19.263  0.00  0.00    +0.000 C 
ATOM     15  F   UNL     1       5.641   3.483  19.174  0.00  0.00    +0.000 F 
ATOM     16  F   UNL     1       4.072   3.012  20.592  0.00  0.00    +0.000 F 
ATOM     17  F   UNL     1       4.204   1.911  18.731  0.00  0.00    +0.000 F 
ENDBRANCH   1  14
BRANCH   1  18
ATOM     18  O   UNL     1       2.207   3.503  18.065  0.00  0.00    +0.000 OA
BRANCH  18  19
ATOM     19  C   UNL     1       1.035   3.668  18.862  0.00  0.00    +0.000 C 
BRANCH  19  21
ATOM     20  C   UNL     1       1.130   2.807  21.227  0.00  0.00    +0.000 C 
ATOM     21  C   UNL     1       0.877   2.452  19.770  0.00  0.00    +0.000 C 
ENDBRANCH  19  21
ENDBRANCH  18  19
ENDBRANCH   1  18
TORSDOF 4
ENDMDL
MODEL 9
REMARK VINA RESULT:      -6.7      2.572      3.885
REMARK  Name = 
REMARK  5 active torsions:
REMARK  status: ('A' for Active; 'I' for Inactive)
REMARK    1  A    between atoms: C_1  and  C_2
REMARK    2  A    between atoms: C_2  and  C_3
REMARK    3  A    between atoms: C_3  and  O_4
REMARK    4  A    between atoms: O_4  and  C_5
REMARK    5  A    between atoms: C_5  and  C_6
REMARK                            x       y       z     vdW  Elec       q    Type
REMARK                         _______ _______ _______ _____ _____    ______ ____
ROOT
ATOM      1  C   UNL     1       4.855   4.554  18.368  0.00  0.00    +0.000 C 
ATOM      2  O   UNL     1       5.349   3.325  18.971  0.00  0.00    +0.000 OA
ATOM      3  C   UNL     1       4.581   2.548  19.766  0.00  0.00    +0.000 C 
ATOM      4  O   UNL     1       4.904   1.399  20.046  0.00  0.00    +0.000 OA
ATOM      5  N   UNL     1       3.430   3.083  20.256  0.00  0.00    +0.000 N 
ATOM      6  C   UNL     1       3.011   4.385  20.049  0.00  0.00    +0.000 A 
ATOM      7  C   UNL     1       1.944   4.884  20.805  0.00  0.00    +0.000 A 
ATOM      8  C   UNL     1       1.550   6.211  20.651  0.00  0.00    +0.000 A 
ATOM      9  C   UNL     1       2.177   6.999  19.693  0.00  0.00    +0.000 A 
ATOM     10 CL   UNL     1       1.721   8.651  19.519  0.00  0.00    +0.000 Cl
ATOM     11  C   UNL     1       3.194   6.467  18.894  0.00  0.00    +0.000 A 
ATOM     12  C   UNL     1       3.673   5.160  19.111  0.00  0.00    +0.000 A 
ATOM     13  H   UNL     1       2.912   2.467  20.871  0.00  0.00    +0.000 HD
ENDROOT
BRANCH   1  14
ATOM     14  C   UNL     1       6.110   5.531  18.371  0.00  0.00    +0.000 C 
ATOM     15  F   UNL     1       7.229   4.919  17.905  0.00  0.00    +0.000 F 
ATOM     16  F   UNL     1       5.957   6.649  17.609  0.00  0.00    +0.000 F 
ATOM     17  F   UNL     1       6.402   5.973  19.619  0.00  0.00    +0.000 F 
ENDBRANCH   1  14
BRANCH   1  18
ATOM     18  O   UNL     1       4.490   4.309  16.978  0.00  0.00    +0.000 OA
BRANCH  18  19
ATOM     19  C   UNL     1       5.524   3.798  16.137  0.00  0.00    +0.000 C 
BRANCH  19  21
ATOM     20  C   UNL     1       6.238   3.845  13.723  0.00  0.00    +0.000 C 
ATOM     21  C   UNL     1       5.564   4.613  14.848  0.00  0.00    +0.000 C 
ENDBRANCH  19  21
ENDBRANCH  18  19
ENDBRANCH   1  18
TORSDOF 4
ENDMDL
