MODEL 1
REMARK VINA RESULT:      -8.3      0.000      0.000
REMARK  Name = 
REMARK  4 active torsions:
REMARK  status: ('A' for Active; 'I' for Inactive)
REMARK    1  A    between atoms: C_4  and  N_5
REMARK    2  A    between atoms: N_5  and  C_6
REMARK    3  A    between atoms: C_6  and  C_7
REMARK    4  A    between atoms: C_13  and  C_14
REMARK                            x       y       z     vdW  Elec       q    Type
REMARK                         _______ _______ _______ _____ _____    ______ ____
ROOT
ATOM      1 CL   UNL     1       1.590   3.233  21.549  0.00  0.00    +0.000 Cl
ATOM      2  C   UNL     1       2.326   4.145  20.276  0.00  0.00    +0.000 A 
ATOM      3  C   UNL     1       3.240   3.460  19.351  0.00  0.00    +0.000 A 
ATOM      4  C   UNL     1       3.857   4.166  18.380  0.00  0.00    +0.000 A 
ATOM      5  C   UNL     1       3.540   5.561  18.312  0.00  0.00    +0.000 A 
ATOM      6  N   UNL     1       3.937   6.499  17.468  0.00  0.00    +0.000 NA
ATOM      7  C   UNL     1       3.273   7.632  17.853  0.00  0.00    +0.000 A 
ATOM      8  C   UNL     1       2.469   7.424  18.963  0.00  0.00    +0.000 A 
ATOM      9  N   UNL     1       2.641   6.072  19.237  0.00  0.00    +0.000 N 
ATOM     10  N   UNL     1       2.014   5.394  20.238  0.00  0.00    +0.000 NA
ENDROOT
BRANCH   8  11
ATOM     11  C   UNL     1       1.611   8.362  19.707  0.00  0.00    +0.000 A 
ATOM     12  C   UNL     1       0.943   9.391  19.034  0.00  0.00    +0.000 A 
ATOM     13  C   UNL     1       0.136  10.328  19.707  0.00  0.00    +0.000 A 
ATOM     14  C   UNL     1       0.030  10.186  21.092  0.00  0.00    +0.000 A 
ATOM     15  N   UNL     1      -0.650  10.909  22.036  0.00  0.00    +0.000 N 
ATOM     16  N   UNL     1      -0.491  10.459  23.295  0.00  0.00    +0.000 NA
ATOM     17  C   UNL     1       0.315   9.404  23.148  0.00  0.00    +0.000 A 
ATOM     18  C   UNL     1       0.673   9.182  21.798  0.00  0.00    +0.000 A 
ATOM     19  C   UNL     1       1.471   8.257  21.105  0.00  0.00    +0.000 A 
ATOM     20  H   UNL     1      -1.236  11.721  21.888  0.00  0.00    +0.000 HD
ENDBRANCH   8  11
BRANCH   4  21
ATOM     21  N   UNL     1       4.804   3.551  17.586  0.00  0.00    +0.000 N 
ATOM     22  H   UNL     1       5.504   3.028  18.124  0.00  0.00    +0.000 HD
BRANCH  21  23
ATOM     23  C   UNL     1       5.268   4.041  16.298  0.00  0.00    +0.000 C 
BRANCH  23  24
ATOM     24  C   UNL     1       6.738   4.332  16.393  0.00  0.00    +0.000 C 
ATOM     25  C   UNL     1       7.179   5.766  16.556  0.00  0.00    +0.000 C 
ATOM     26  C   UNL     1       7.409   4.784  17.667  0.00  0.00    +0.000 C 
ENDBRANCH  23  24
ENDBRANCH  21  23
ENDBRANCH   4  21
TORSDOF 4
ENDMDL
MODEL 2
REMARK VINA RESULT:      -8.2      2.703      7.109
REMARK  Name = 
REMARK  4 active torsions:
REMARK  status: ('A' for Active; 'I' for Inactive)
REMARK    1  A    between atoms: C_4  and  N_5
REMARK    2  A    between atoms: N_5  and  C_6
REMARK    3  A    between atoms: C_6  and  C_7
REMARK    4  A    between atoms: C_13  and  C_14
REMARK                            x       y       z     vdW  Elec       q    Type
REMARK                         _______ _______ _______ _____ _____    ______ ____
ROOT
ATOM      1 CL   UNL     1       0.033   9.379  22.993  0.00  0.00    +0.000 Cl
ATOM      2  C   UNL     1       0.556   9.486  21.346  0.00  0.00    +0.000 A 
ATOM      3  C   UNL     1       0.250  10.705  20.584  0.00  0.00    +0.000 A 
ATOM      4  C   UNL     1       0.611  10.786  19.286  0.00  0.00    +0.000 A 
ATOM      5  C   UNL     1       1.309   9.655  18.750  0.00  0.00    +0.000 A 
ATOM      6  N   UNL     1       1.823   9.444  17.550  0.00  0.00    +0.000 NA
ATOM      7  C   UNL     1       2.414   8.212  17.625  0.00  0.00    +0.000 A 
ATOM      8  C   UNL     1       2.255   7.622  18.868  0.00  0.00    +0.000 A 
ATOM      9  N   UNL     1       1.550   8.579  19.591  0.00  0.00    +0.000 N 
ATOM     10  N   UNL     1       1.186   8.456  20.898  0.00  0.00    +0.000 NA
ENDROOT
BRANCH   8  11
ATOM     11  C   UNL     1       2.707   6.312  19.367  0.00  0.00    +0.000 A 
ATOM     12  C   UNL     1       3.860   5.718  18.840  0.00  0.00    +0.000 A 
ATOM     13  C   UNL     1       4.313   4.455  19.265  0.00  0.00    +0.000 A 
ATOM     14  C   UNL     1       3.556   3.812  20.245  0.00  0.00    +0.000 A 
ATOM     15  N   UNL     1       3.703   2.599  20.867  0.00  0.00    +0.000 N 
ATOM     16  N   UNL     1       2.741   2.321  21.765  0.00  0.00    +0.000 NA
ATOM     17  C   UNL     1       1.954   3.398  21.723  0.00  0.00    +0.000 A 
ATOM     18  C   UNL     1       2.409   4.364  20.795  0.00  0.00    +0.000 A 
ATOM     19  C   UNL     1       1.977   5.626  20.357  0.00  0.00    +0.000 A 
ATOM     20  H   UNL     1       4.435   1.915  20.719  0.00  0.00    +0.000 HD
ENDBRANCH   8  11
BRANCH   4  21
ATOM     21  N   UNL     1       0.223  11.877  18.537  0.00  0.00    +0.000 N 
ATOM     22  H   UNL     1       0.909  12.639  18.546  0.00  0.00    +0.000 HD
BRANCH  21  23
ATOM     23  C   UNL     1      -1.151  12.301  18.315  0.00  0.00    +0.000 C 
BRANCH  23  24
ATOM     24  C   UNL     1      -2.004  11.084  18.101  0.00  0.00    +0.000 C 
ATOM     25  C   UNL     1      -3.197  11.194  17.184  0.00  0.00    +0.000 C 
ATOM     26  C   UNL     1      -2.040  10.321  16.801  0.00  0.00    +0.000 C 
ENDBRANCH  23  24
ENDBRANCH  21  23
ENDBRANCH   4  21
TORSDOF 4
ENDMDL
MODEL 3
REMARK VINA RESULT:      -8.2      1.726      2.563
REMARK  Name = 
REMARK  4 active torsions:
REMARK  status: ('A' for Active; 'I' for Inactive)
REMARK    1  A    between atoms: C_4  and  N_5
REMARK    2  A    between atoms: N_5  and  C_6
REMARK    3  A    between atoms: C_6  and  C_7
REMARK    4  A    between atoms: C_13  and  C_14
REMARK                            x       y       z     vdW  Elec       q    Type
REMARK                         _______ _______ _______ _____ _____    ______ ____
ROOT
ATOM      1 CL   UNL     1       0.941   2.651  18.602  0.00  0.00    +0.000 Cl
ATOM      2  C   UNL     1       2.204   3.691  18.037  0.00  0.00    +0.000 A 
ATOM      3  C   UNL     1       3.316   3.105  17.276  0.00  0.00    +0.000 A 
ATOM      4  C   UNL     1       4.331   3.895  16.867  0.00  0.00    +0.000 A 
ATOM      5  C   UNL     1       4.224   5.286  17.194  0.00  0.00    +0.000 A 
ATOM      6  N   UNL     1       5.016   6.306  16.908  0.00  0.00    +0.000 NA
ATOM      7  C   UNL     1       4.388   7.403  17.431  0.00  0.00    +0.000 A 
ATOM      8  C   UNL     1       3.206   7.081  18.077  0.00  0.00    +0.000 A 
ATOM      9  N   UNL     1       3.106   5.706  17.899  0.00  0.00    +0.000 N 
ATOM     10  N   UNL     1       2.073   4.935  18.342  0.00  0.00    +0.000 NA
ENDROOT
BRANCH   8  11
ATOM     11  C   UNL     1       2.242   7.940  18.787  0.00  0.00    +0.000 A 
ATOM     12  C   UNL     1       1.966   7.720  20.141  0.00  0.00    +0.000 A 
ATOM     13  C   UNL     1       1.032   8.497  20.852  0.00  0.00    +0.000 A 
ATOM     14  C   UNL     1       0.384   9.508  20.141  0.00  0.00    +0.000 A 
ATOM     15  N   UNL     1      -0.565  10.424  20.512  0.00  0.00    +0.000 N 
ATOM     16  N   UNL     1      -0.960  11.241  19.518  0.00  0.00    +0.000 NA
ATOM     17  C   UNL     1      -0.231  10.838  18.475  0.00  0.00    +0.000 A 
ATOM     18  C   UNL     1       0.627   9.761  18.800  0.00  0.00    +0.000 A 
ATOM     19  C   UNL     1       1.565   8.975  18.111  0.00  0.00    +0.000 A 
ATOM     20  H   UNL     1      -0.987  10.540  21.425  0.00  0.00    +0.000 HD
ENDBRANCH   8  11
BRANCH   4  21
ATOM     21  N   UNL     1       5.432   3.330  16.256  0.00  0.00    +0.000 N 
ATOM     22  H   UNL     1       5.759   2.477  16.722  0.00  0.00    +0.000 HD
BRANCH  21  23
ATOM     23  C   UNL     1       6.462   4.061  15.535  0.00  0.00    +0.000 C 
BRANCH  23  24
ATOM     24  C   UNL     1       5.955   4.378  14.158  0.00  0.00    +0.000 C 
ATOM     25  C   UNL     1       6.952   4.479  13.029  0.00  0.00    +0.000 C 
ATOM     26  C   UNL     1       5.939   3.373  13.033  0.00  0.00    +0.000 C 
ENDBRANCH  23  24
ENDBRANCH  21  23
ENDBRANCH   4  21
TORSDOF 4
ENDMDL
MODEL 4
REMARK VINA RESULT:      -8.1      1.730      2.189
REMARK  Name = 
REMARK  4 active torsions:
REMARK  status: ('A' for Active; 'I' for Inactive)
REMARK    1  A    between atoms: C_4  and  N_5
REMARK    2  A    between atoms: N_5  and  C_6
REMARK    3  A    between atoms: C_6  and  C_7
REMARK    4  A    between atoms: C_13  and  C_14
REMARK                            x       y       z     vdW  Elec       q    Type
REMARK                         _______ _______ _______ _____ _____    ______ ____
ROOT
ATOM      1 CL   UNL     1       1.064   2.723  18.496  0.00  0.00    +0.000 Cl
ATOM      2  C   UNL     1       2.302   3.795  17.934  0.00  0.00    +0.000 A 
ATOM      3  C   UNL     1       3.440   3.234  17.193  0.00  0.00    +0.000 A 
ATOM      4  C   UNL     1       4.436   4.050  16.787  0.00  0.00    +0.000 A 
ATOM      5  C   UNL     1       4.284   5.440  17.099  0.00  0.00    +0.000 A 
ATOM      6  N   UNL     1       5.048   6.481  16.811  0.00  0.00    +0.000 NA
ATOM      7  C   UNL     1       4.382   7.564  17.316  0.00  0.00    +0.000 A 
ATOM      8  C   UNL     1       3.202   7.213  17.952  0.00  0.00    +0.000 A 
ATOM      9  N   UNL     1       3.145   5.834  17.787  0.00  0.00    +0.000 N 
ATOM     10  N   UNL     1       2.131   5.037  18.225  0.00  0.00    +0.000 NA
ENDROOT
BRANCH   8  11
ATOM     11  C   UNL     1       2.205   8.050  18.641  0.00  0.00    +0.000 A 
ATOM     12  C   UNL     1       1.512   9.043  17.938  0.00  0.00    +0.000 A 
ATOM     13  C   UNL     1       0.572   9.885  18.561  0.00  0.00    +0.000 A 
ATOM     14  C   UNL     1       0.357   9.687  19.926  0.00  0.00    +0.000 A 
ATOM     15  N   UNL     1      -0.463  10.317  20.825  0.00  0.00    +0.000 N 
ATOM     16  N   UNL     1      -0.376   9.838  22.080  0.00  0.00    +0.000 NA
ATOM     17  C   UNL     1       0.527   8.860  21.978  0.00  0.00    +0.000 A 
ATOM     18  C   UNL     1       1.020   8.715  20.660  0.00  0.00    +0.000 A 
ATOM     19  C   UNL     1       1.953   7.885  20.017  0.00  0.00    +0.000 A 
ATOM     20  H   UNL     1      -1.101  11.083  20.647  0.00  0.00    +0.000 HD
ENDBRANCH   8  11
BRANCH   4  21
ATOM     21  N   UNL     1       5.561   3.513  16.195  0.00  0.00    +0.000 N 
ATOM     22  H   UNL     1       6.124   2.946  16.838  0.00  0.00    +0.000 HD
BRANCH  21  23
ATOM     23  C   UNL     1       6.308   4.117  15.104  0.00  0.00    +0.000 C 
BRANCH  23  24
ATOM     24  C   UNL     1       6.082   3.311  13.858  0.00  0.00    +0.000 C 
ATOM     25  C   UNL     1       5.140   3.854  12.811  0.00  0.00    +0.000 C 
ATOM     26  C   UNL     1       6.602   3.723  12.503  0.00  0.00    +0.000 C 
ENDBRANCH  23  24
ENDBRANCH  21  23
ENDBRANCH   4  21
TORSDOF 4
ENDMDL
MODEL 5
REMARK VINA RESULT:      -8.0      2.710      4.036
REMARK  Name = 
REMARK  4 active torsions:
REMARK  status: ('A' for Active; 'I' for Inactive)
REMARK    1  A    between atoms: C_4  and  N_5
REMARK    2  A    between atoms: N_5  and  C_6
REMARK    3  A    between atoms: C_6  and  C_7
REMARK    4  A    between atoms: C_13  and  C_14
REMARK                            x       y       z     vdW  Elec       q    Type
REMARK                         _______ _______ _______ _____ _____    ______ ____
ROOT
ATOM      1 CL   UNL     1       7.646   8.263  17.461  0.00  0.00    +0.000 Cl
ATOM      2  C   UNL     1       6.544   6.960  17.172  0.00  0.00    +0.000 A 
ATOM      3  C   UNL     1       6.975   5.843  16.321  0.00  0.00    +0.000 A 
ATOM      4  C   UNL     1       6.112   4.842  16.049  0.00  0.00    +0.000 A 
ATOM      5  C   UNL     1       4.817   4.940  16.652  0.00  0.00    +0.000 A 
ATOM      6  N   UNL     1       3.780   4.119  16.616  0.00  0.00    +0.000 NA
ATOM      7  C   UNL     1       2.835   4.700  17.417  0.00  0.00    +0.000 A 
ATOM      8  C   UNL     1       3.258   5.909  17.946  0.00  0.00    +0.000 A 
ATOM      9  N   UNL     1       4.552   6.041  17.453  0.00  0.00    +0.000 N 
ATOM     10  N   UNL     1       5.391   7.076  17.735  0.00  0.00    +0.000 NA
ENDROOT
BRANCH   8  11
ATOM     11  C   UNL     1       2.560   6.860  18.828  0.00  0.00    +0.000 A 
ATOM     12  C   UNL     1       2.208   6.485  20.130  0.00  0.00    +0.000 A 
ATOM     13  C   UNL     1       1.516   7.351  20.997  0.00  0.00    +0.000 A 
ATOM     14  C   UNL     1       1.190   8.613  20.499  0.00  0.00    +0.000 A 
ATOM     15  N   UNL     1       0.528   9.675  21.058  0.00  0.00    +0.000 N 
ATOM     16  N   UNL     1       0.397  10.735  20.239  0.00  0.00    +0.000 NA
ATOM     17  C   UNL     1       1.003  10.339  19.118  0.00  0.00    +0.000 A 
ATOM     18  C   UNL     1       1.519   9.026  19.217  0.00  0.00    +0.000 A 
ATOM     19  C   UNL     1       2.213   8.146  18.369  0.00  0.00    +0.000 A 
ATOM     20  H   UNL     1       0.139   9.738  21.990  0.00  0.00    +0.000 HD
ENDBRANCH   8  11
BRANCH   4  21
ATOM     21  N   UNL     1       6.473   3.853  15.157  0.00  0.00    +0.000 N 
ATOM     22  H   UNL     1       7.136   3.176  15.550  0.00  0.00    +0.000 HD
BRANCH  21  23
ATOM     23  C   UNL     1       6.550   4.008  13.713  0.00  0.00    +0.000 C 
BRANCH  23  24
ATOM     24  C   UNL     1       5.489   3.156  13.078  0.00  0.00    +0.000 C 
ATOM     25  C   UNL     1       4.803   3.668  11.834  0.00  0.00    +0.000 C 
ATOM     26  C   UNL     1       5.678   2.452  11.758  0.00  0.00    +0.000 C 
ENDBRANCH  23  24
ENDBRANCH  21  23
ENDBRANCH   4  21
TORSDOF 4
ENDMDL
MODEL 6
REMARK VINA RESULT:      -8.0      2.491      3.314
REMARK  Name = 
REMARK  4 active torsions:
REMARK  status: ('A' for Active; 'I' for Inactive)
REMARK    1  A    between atoms: C_4  and  N_5
REMARK    2  A    between atoms: N_5  and  C_6
REMARK    3  A    between atoms: C_6  and  C_7
REMARK    4  A    between atoms: C_13  and  C_14
REMARK                            x       y       z     vdW  Elec       q    Type
REMARK                         _______ _______ _______ _____ _____    ______ ____
ROOT
ATOM      1 CL   UNL     1       7.347   8.221  17.420  0.00  0.00    +0.000 Cl
ATOM      2  C   UNL     1       6.128   6.996  17.338  0.00  0.00    +0.000 A 
ATOM      3  C   UNL     1       6.461   5.706  16.717  0.00  0.00    +0.000 A 
ATOM      4  C   UNL     1       5.508   4.756  16.605  0.00  0.00    +0.000 A 
ATOM      5  C   UNL     1       4.220   5.082  17.141  0.00  0.00    +0.000 A 
ATOM      6  N   UNL     1       3.110   4.368  17.223  0.00  0.00    +0.000 NA
ATOM      7  C   UNL     1       2.215   5.172  17.876  0.00  0.00    +0.000 A 
ATOM      8  C   UNL     1       2.746   6.413  18.189  0.00  0.00    +0.000 A 
ATOM      9  N   UNL     1       4.053   6.332  17.721  0.00  0.00    +0.000 N 
ATOM     10  N   UNL     1       4.985   7.319  17.835  0.00  0.00    +0.000 NA
ENDROOT
BRANCH   8  11
ATOM     11  C   UNL     1       2.132   7.570  18.862  0.00  0.00    +0.000 A 
ATOM     12  C   UNL     1       1.777   8.706  18.125  0.00  0.00    +0.000 A 
ATOM     13  C   UNL     1       1.214   9.846  18.730  0.00  0.00    +0.000 A 
ATOM     14  C   UNL     1       1.023   9.796  20.111  0.00  0.00    +0.000 A 
ATOM     15  N   UNL     1       0.517  10.709  20.999  0.00  0.00    +0.000 N 
ATOM     16  N   UNL     1       0.508  10.287  22.277  0.00  0.00    +0.000 NA
ATOM     17  C   UNL     1       1.019   9.056  22.203  0.00  0.00    +0.000 A 
ATOM     18  C   UNL     1       1.359   8.691  20.879  0.00  0.00    +0.000 A 
ATOM     19  C   UNL     1       1.917   7.564  20.254  0.00  0.00    +0.000 A 
ATOM     20  H   UNL     1       0.167  11.637  20.798  0.00  0.00    +0.000 HD
ENDBRANCH   8  11
BRANCH   4  21
ATOM     21  N   UNL     1       5.784   3.591  15.919  0.00  0.00    +0.000 N 
ATOM     22  H   UNL     1       5.759   2.756  16.514  0.00  0.00    +0.000 HD
BRANCH  21  23
ATOM     23  C   UNL     1       6.652   3.483  14.757  0.00  0.00    +0.000 C 
BRANCH  23  24
ATOM     24  C   UNL     1       5.919   4.005  13.555  0.00  0.00    +0.000 C 
ATOM     25  C   UNL     1       6.674   4.145  12.256  0.00  0.00    +0.000 C 
ATOM     26  C   UNL     1       5.563   3.144  12.369  0.00  0.00    +0.000 C 
ENDBRANCH  23  24
ENDBRANCH  21  23
ENDBRANCH   4  21
TORSDOF 4
ENDMDL
MODEL 7
REMARK VINA RESULT:      -8.0      2.628      7.332
REMARK  Name = 
REMARK  4 active torsions:
REMARK  status: ('A' for Active; 'I' for Inactive)
REMARK    1  A    between atoms: C_4  and  N_5
REMARK    2  A    between atoms: N_5  and  C_6
REMARK    3  A    between atoms: C_6  and  C_7
REMARK    4  A    between atoms: C_13  and  C_14
REMARK                            x       y       z     vdW  Elec       q    Type
REMARK                         _______ _______ _______ _____ _____    ______ ____
ROOT
ATOM      1 CL   UNL     1      -0.031   9.420  23.218  0.00  0.00    +0.000 Cl
ATOM      2  C   UNL     1       0.507   9.560  21.579  0.00  0.00    +0.000 A 
ATOM      3  C   UNL     1       0.291  10.829  20.869  0.00  0.00    +0.000 A 
ATOM      4  C   UNL     1       0.663  10.941  19.577  0.00  0.00    +0.000 A 
ATOM      5  C   UNL     1       1.281   9.787  18.993  0.00  0.00    +0.000 A 
ATOM      6  N   UNL     1       1.785   9.592  17.786  0.00  0.00    +0.000 NA
ATOM      7  C   UNL     1       2.286   8.319  17.809  0.00  0.00    +0.000 A 
ATOM      8  C   UNL     1       2.080   7.689  19.025  0.00  0.00    +0.000 A 
ATOM      9  N   UNL     1       1.442   8.661  19.787  0.00  0.00    +0.000 N 
ATOM     10  N   UNL     1       1.064   8.509  21.087  0.00  0.00    +0.000 NA
ENDROOT
BRANCH   8  11
ATOM     11  C   UNL     1       2.436   6.330  19.467  0.00  0.00    +0.000 A 
ATOM     12  C   UNL     1       1.635   5.660  20.399  0.00  0.00    +0.000 A 
ATOM     13  C   UNL     1       1.951   4.373  20.872  0.00  0.00    +0.000 A 
ATOM     14  C   UNL     1       3.112   3.784  20.367  0.00  0.00    +0.000 A 
ATOM     15  N   UNL     1       3.705   2.573  20.610  0.00  0.00    +0.000 N 
ATOM     16  N   UNL     1       4.845   2.371  19.924  0.00  0.00    +0.000 NA
ATOM     17  C   UNL     1       4.982   3.491  19.211  0.00  0.00    +0.000 A 
ATOM     18  C   UNL     1       3.933   4.411  19.441  0.00  0.00    +0.000 A 
ATOM     19  C   UNL     1       3.596   5.695  18.982  0.00  0.00    +0.000 A 
ATOM     20  H   UNL     1       3.385   1.844  21.234  0.00  0.00    +0.000 HD
ENDBRANCH   8  11
BRANCH   4  21
ATOM     21  N   UNL     1       0.357  12.088  18.874  0.00  0.00    +0.000 N 
ATOM     22  H   UNL     1       1.023  12.851  19.036  0.00  0.00    +0.000 HD
BRANCH  21  23
ATOM     23  C   UNL     1      -0.983  12.520  18.511  0.00  0.00    +0.000 C 
BRANCH  23  24
ATOM     24  C   UNL     1      -1.862  11.310  18.380  0.00  0.00    +0.000 C 
ATOM     25  C   UNL     1      -3.085  11.400  17.500  0.00  0.00    +0.000 C 
ATOM     26  C   UNL     1      -1.956  10.491  17.117  0.00  0.00    +0.000 C 
ENDBRANCH  23  24
ENDBRANCH  21  23
ENDBRANCH   4  21
TORSDOF 4
ENDMDL
MODEL 8
REMARK VINA RESULT:      -8.0      1.268      1.976
REMARK  Name = 
REMARK  4 active torsions:
REMARK  status: ('A' for Active; 'I' for Inactive)
REMARK    1  A    between atoms: C_4  and  N_5
REMARK    2  A    between atoms: N_5  and  C_6
REMARK    3  A    between atoms: C_6  and  C_7
REMARK    4  A    between atoms: C_13  and  C_14
REMARK                            x       y       z     vdW  Elec       q    Type
REMARK                         _______ _______ _______ _____ _____    ______ ____
ROOT
ATOM      1 CL   UNL     1       2.181   3.952  21.553  0.00  0.00    +0.000 Cl
ATOM      2  C   UNL     1       2.431   5.099  20.282  0.00  0.00    +0.000 A 
ATOM      3  C   UNL     1       3.178   4.680  19.087  0.00  0.00    +0.000 A 
ATOM      4  C   UNL     1       3.421   5.575  18.107  0.00  0.00    +0.000 A 
ATOM      5  C   UNL     1       2.891   6.891  18.304  0.00  0.00    +0.000 A 
ATOM      6  N   UNL     1       2.920   7.962  17.528  0.00  0.00    +0.000 NA
ATOM      7  C   UNL     1       2.210   8.915  18.206  0.00  0.00    +0.000 A 
ATOM      8  C   UNL     1       1.749   8.462  19.431  0.00  0.00    +0.000 A 
ATOM      9  N   UNL     1       2.184   7.142  19.471  0.00  0.00    +0.000 N 
ATOM     10  N   UNL     1       1.936   6.269  20.488  0.00  0.00    +0.000 NA
ENDROOT
BRANCH   8  11
ATOM     11  C   UNL     1       0.973   9.155  20.474  0.00  0.00    +0.000 A 
ATOM     12  C   UNL     1       1.067   8.749  21.810  0.00  0.00    +0.000 A 
ATOM     13  C   UNL     1       0.323   9.363  22.835  0.00  0.00    +0.000 A 
ATOM     14  C   UNL     1      -0.524  10.406  22.459  0.00  0.00    +0.000 A 
ATOM     15  N   UNL     1      -1.376  11.199  23.181  0.00  0.00    +0.000 N 
ATOM     16  N   UNL     1      -2.045  12.104  22.444  0.00  0.00    +0.000 NA
ATOM     17  C   UNL     1      -1.599  11.887  21.204  0.00  0.00    +0.000 A 
ATOM     18  C   UNL     1      -0.648  10.841  21.148  0.00  0.00    +0.000 A 
ATOM     19  C   UNL     1       0.106  10.216  20.142  0.00  0.00    +0.000 A 
ATOM     20  H   UNL     1      -1.549  11.171  24.179  0.00  0.00    +0.000 HD
ENDBRANCH   8  11
BRANCH   4  21
ATOM     21  N   UNL     1       4.221   5.219  17.040  0.00  0.00    +0.000 N 
ATOM     22  H   UNL     1       3.744   4.619  16.360  0.00  0.00    +0.000 HD
BRANCH  21  23
ATOM     23  C   UNL     1       5.665   5.052  17.090  0.00  0.00    +0.000 C 
BRANCH  23  24
ATOM     24  C   UNL     1       6.256   6.181  17.884  0.00  0.00    +0.000 C 
ATOM     25  C   UNL     1       7.612   5.985  18.515  0.00  0.00    +0.000 C 
ATOM     26  C   UNL     1       7.440   6.988  17.413  0.00  0.00    +0.000 C 
ENDBRANCH  23  24
ENDBRANCH  21  23
ENDBRANCH   4  21
TORSDOF 4
ENDMDL
MODEL 9
REMARK VINA RESULT:      -8.0      2.881      6.876
REMARK  Name = 
REMARK  4 active torsions:
REMARK  status: ('A' for Active; 'I' for Inactive)
REMARK    1  A    between atoms: C_4  and  N_5
REMARK    2  A    between atoms: N_5  and  C_6
REMARK    3  A    between atoms: C_6  and  C_7
REMARK    4  A    between atoms: C_13  and  C_14
REMARK                            x       y       z     vdW  Elec       q    Type
REMARK                         _______ _______ _______ _____ _____    ______ ____
ROOT
ATOM      1 CL   UNL     1      -0.042   9.344  22.901  0.00  0.00    +0.000 Cl
ATOM      2  C   UNL     1       0.540   9.469  21.276  0.00  0.00    +0.000 A 
ATOM      3  C   UNL     1       0.274  10.702  20.521  0.00  0.00    +0.000 A 
ATOM      4  C   UNL     1       0.682  10.798  19.238  0.00  0.00    +0.000 A 
ATOM      5  C   UNL     1       1.385   9.667  18.710  0.00  0.00    +0.000 A 
ATOM      6  N   UNL     1       1.939   9.468  17.526  0.00  0.00    +0.000 NA
ATOM      7  C   UNL     1       2.514   8.228  17.604  0.00  0.00    +0.000 A 
ATOM      8  C   UNL     1       2.305   7.622  18.832  0.00  0.00    +0.000 A 
ATOM      9  N   UNL     1       1.586   8.576  19.543  0.00  0.00    +0.000 N 
ATOM     10  N   UNL     1       1.174   8.439  20.835  0.00  0.00    +0.000 NA
ENDROOT
BRANCH   8  11
ATOM     11  C   UNL     1       2.726   6.300  19.327  0.00  0.00    +0.000 A 
ATOM     12  C   UNL     1       3.834   5.657  18.763  0.00  0.00    +0.000 A 
ATOM     13  C   UNL     1       4.255   4.382  19.184  0.00  0.00    +0.000 A 
ATOM     14  C   UNL     1       3.511   3.777  20.198  0.00  0.00    +0.000 A 
ATOM     15  N   UNL     1       3.636   2.566  20.827  0.00  0.00    +0.000 N 
ATOM     16  N   UNL     1       2.699   2.333  21.764  0.00  0.00    +0.000 NA
ATOM     17  C   UNL     1       1.952   3.439  21.740  0.00  0.00    +0.000 A 
ATOM     18  C   UNL     1       2.408   4.378  20.786  0.00  0.00    +0.000 A 
ATOM     19  C   UNL     1       2.008   5.652  20.351  0.00  0.00    +0.000 A 
ATOM     20  H   UNL     1       4.334   1.852  20.659  0.00  0.00    +0.000 HD
ENDBRANCH   8  11
BRANCH   4  21
ATOM     21  N   UNL     1       0.331  11.904  18.491  0.00  0.00    +0.000 N 
ATOM     22  H   UNL     1       0.137  11.683  17.509  0.00  0.00    +0.000 HD
BRANCH  21  23
ATOM     23  C   UNL     1       0.797  13.262  18.728  0.00  0.00    +0.000 C 
BRANCH  23  24
ATOM     24  C   UNL     1       2.289  13.296  18.567  0.00  0.00    +0.000 C 
ATOM     25  C   UNL     1       2.929  14.566  18.060  0.00  0.00    +0.000 C 
ATOM     26  C   UNL     1       3.196  14.103  19.462  0.00  0.00    +0.000 C 
ENDBRANCH  23  24
ENDBRANCH  21  23
ENDBRANCH   4  21
TORSDOF 4
ENDMDL
