MODEL 1
REMARK VINA RESULT:      -9.4      0.000      0.000
REMARK  Name = 
REMARK  8 active torsions:
REMARK  status: ('A' for Active; 'I' for Inactive)
REMARK    1  A    between atoms: C_1  and  N_2
REMARK    2  A    between atoms: N_2  and  C_3
REMARK    3  A    between atoms: N_2  and  C_22
REMARK    4  A    between atoms: C_3  and  C_4
REMARK    5  A    between atoms: C_4  and  C_5
REMARK    6  A    between atoms: N_10  and  C_11
REMARK    7  A    between atoms: C_22  and  C_23
REMARK    8  A    between atoms: C_23  and  C_24
REMARK                            x       y       z     vdW  Elec       q    Type
REMARK                         _______ _______ _______ _____ _____    ______ ____
ROOT
ATOM      1  C   UNL     1       1.447   8.664  20.251  0.00  0.00    +0.000 C 
ENDROOT
BRANCH   1   3
ATOM      2  C   UNL     1       1.592   6.325  20.758  0.00  0.00    +0.000 C 
ATOM      3  N   UNL     1       1.691   7.312  19.679  0.00  0.00    +0.000 NA
BRANCH   3   4
ATOM      4  C   UNL     1       3.020   7.277  19.031  0.00  0.00    +0.000 C 
BRANCH   4   5
ATOM      5  C   UNL     1       3.032   6.821  17.560  0.00  0.00    +0.000 C 
BRANCH   5   6
ATOM      6  C   UNL     1       3.986   5.614  17.327  0.00  0.00    +0.000 C 
ATOM      7  C   UNL     1       3.451   4.362  17.997  0.00  0.00    +0.000 A 
ATOM      8  C   UNL     1       2.188   3.842  17.666  0.00  0.00    +0.000 A 
ATOM      9  C   UNL     1       1.649   2.768  18.380  0.00  0.00    +0.000 A 
ATOM     10  C   UNL     1       2.372   2.188  19.418  0.00  0.00    +0.000 A 
ATOM     11  C   UNL     1       3.645   2.663  19.722  0.00  0.00    +0.000 A 
ATOM     12  C   UNL     1       4.184   3.739  19.011  0.00  0.00    +0.000 A 
ATOM     13  O   UNL     1       5.442   4.128  19.393  0.00  0.00    +0.000 OA
ATOM     14  C   UNL     1       6.034   5.180  18.743  0.00  0.00    +0.000 A 
ATOM     15  C   UNL     1       7.331   5.492  19.163  0.00  0.00    +0.000 A 
ATOM     16  C   UNL     1       8.007   6.575  18.607  0.00  0.00    +0.000 A 
ATOM     17  C   UNL     1       7.392   7.342  17.623  0.00  0.00    +0.000 A 
ATOM     18  C   UNL     1       6.105   7.018  17.186  0.00  0.00    +0.000 A 
ATOM     19  C   UNL     1       5.406   5.936  17.750  0.00  0.00    +0.000 A 
ENDBRANCH   5   6
ENDBRANCH   4   5
ENDBRANCH   3   4
ENDBRANCH   1   3
BRANCH   1  20
ATOM     20  C   UNL     1       0.134   8.757  21.031  0.00  0.00    +0.000 C 
BRANCH  20  21
ATOM     21  C   UNL     1       0.079  10.044  21.825  0.00  0.00    +0.000 C 
ATOM     22  O   UNL     1       0.234  10.005  23.046  0.00  0.00    +0.000 OA
ATOM     23  N   UNL     1      -0.080  11.242  21.156  0.00  0.00    +0.000 N 
ATOM     24  C   UNL     1       0.095  12.499  21.896  0.00  0.00    +0.000 C 
ATOM     25  C   UNL     1       1.230  13.334  21.275  0.00  0.00    +0.000 C 
ATOM     26  N   UNL     1       1.005  13.529  19.827  0.00  0.00    +0.000 N 
ATOM     27  C   UNL     1       0.774  12.290  19.059  0.00  0.00    +0.000 C 
ATOM     28  C   UNL     1      -0.334  11.445  19.722  0.00  0.00    +0.000 C 
BRANCH  26  29
ATOM     29  C   UNL     1       0.836  14.782  19.254  0.00  0.00    +0.000 A 
ATOM     30  C   UNL     1      -0.448  15.420  19.304  0.00  0.00    +0.000 A 
ATOM     31  C   UNL     1      -0.752  16.684  18.754  0.00  0.00    +0.000 A 
ATOM     32  C   UNL     1       0.329  17.307  18.116  0.00  0.00    +0.000 A 
ATOM     33  N   UNL     1       0.385  18.490  17.497  0.00  0.00    +0.000 NA
ATOM     34  O   UNL     1       1.688  18.619  17.046  0.00  0.00    +0.000 OA
ATOM     35  N   UNL     1       2.460  17.519  17.386  0.00  0.00    +0.000 NA
ATOM     36  C   UNL     1       1.641  16.692  18.046  0.00  0.00    +0.000 A 
ATOM     37  C   UNL     1       1.913  15.429  18.609  0.00  0.00    +0.000 A 
ENDBRANCH  26  29
ENDBRANCH  20  21
ENDBRANCH   1  20
TORSDOF 7
ENDMDL
MODEL 2
REMARK VINA RESULT:      -9.2      0.708      1.284
REMARK  Name = 
REMARK  8 active torsions:
REMARK  status: ('A' for Active; 'I' for Inactive)
REMARK    1  A    between atoms: C_1  and  N_2
REMARK    2  A    between atoms: N_2  and  C_3
REMARK    3  A    between atoms: N_2  and  C_22
REMARK    4  A    between atoms: C_3  and  C_4
REMARK    5  A    between atoms: C_4  and  C_5
REMARK    6  A    between atoms: N_10  and  C_11
REMARK    7  A    between atoms: C_22  and  C_23
REMARK    8  A    between atoms: C_23  and  C_24
REMARK                            x       y       z     vdW  Elec       q    Type
REMARK                         _______ _______ _______ _____ _____    ______ ____
ROOT
ATOM      1  C   UNL     1       1.609   8.510  20.304  0.00  0.00    +0.000 C 
ENDROOT
BRANCH   1   3
ATOM      2  C   UNL     1       1.623   6.121  20.506  0.00  0.00    +0.000 C 
ATOM      3  N   UNL     1       1.795   7.232  19.565  0.00  0.00    +0.000 NA
BRANCH   3   4
ATOM      4  C   UNL     1       3.134   7.210  18.938  0.00  0.00    +0.000 C 
BRANCH   4   5
ATOM      5  C   UNL     1       3.175   6.743  17.471  0.00  0.00    +0.000 C 
BRANCH   5   6
ATOM      6  C   UNL     1       4.209   5.604  17.245  0.00  0.00    +0.000 C 
ATOM      7  C   UNL     1       3.742   4.311  17.889  0.00  0.00    +0.000 A 
ATOM      8  C   UNL     1       2.523   3.715  17.524  0.00  0.00    +0.000 A 
ATOM      9  C   UNL     1       2.039   2.599  18.214  0.00  0.00    +0.000 A 
ATOM     10  C   UNL     1       2.776   2.054  19.261  0.00  0.00    +0.000 A 
ATOM     11  C   UNL     1       4.009   2.607  19.599  0.00  0.00    +0.000 A 
ATOM     12  C   UNL     1       4.492   3.724  18.912  0.00  0.00    +0.000 A 
ATOM     13  O   UNL     1       5.714   4.187  19.325  0.00  0.00    +0.000 OA
ATOM     14  C   UNL     1       6.251   5.284  18.701  0.00  0.00    +0.000 A 
ATOM     15  C   UNL     1       7.515   5.673  19.153  0.00  0.00    +0.000 A 
ATOM     16  C   UNL     1       8.132   6.805  18.625  0.00  0.00    +0.000 A 
ATOM     17  C   UNL     1       7.490   7.543  17.635  0.00  0.00    +0.000 A 
ATOM     18  C   UNL     1       6.236   7.142  17.167  0.00  0.00    +0.000 A 
ATOM     19  C   UNL     1       5.597   6.010  17.703  0.00  0.00    +0.000 A 
ENDBRANCH   5   6
ENDBRANCH   4   5
ENDBRANCH   3   4
ENDBRANCH   1   3
BRANCH   1  20
ATOM     20  C   UNL     1       0.178   8.707  20.810  0.00  0.00    +0.000 C 
BRANCH  20  21
ATOM     21  C   UNL     1       0.018  10.080  21.427  0.00  0.00    +0.000 C 
ATOM     22  O   UNL     1      -0.224  10.174  22.631  0.00  0.00    +0.000 OA
ATOM     23  N   UNL     1       0.209  11.199  20.640  0.00  0.00    +0.000 N 
ATOM     24  C   UNL     1       0.280  12.518  21.283  0.00  0.00    +0.000 C 
ATOM     25  C   UNL     1       1.637  13.184  20.992  0.00  0.00    +0.000 C 
ATOM     26  N   UNL     1       1.900  13.223  19.538  0.00  0.00    +0.000 N 
ATOM     27  C   UNL     1       1.788  11.923  18.850  0.00  0.00    +0.000 C 
ATOM     28  C   UNL     1       0.443  11.248  19.189  0.00  0.00    +0.000 C 
BRANCH  26  29
ATOM     29  C   UNL     1       2.058  14.408  18.834  0.00  0.00    +0.000 A 
ATOM     30  C   UNL     1       3.199  14.584  17.982  0.00  0.00    +0.000 A 
ATOM     31  C   UNL     1       3.480  15.740  17.222  0.00  0.00    +0.000 A 
ATOM     32  C   UNL     1       2.532  16.763  17.363  0.00  0.00    +0.000 A 
ATOM     33  N   UNL     1       2.495  17.972  16.796  0.00  0.00    +0.000 NA
ATOM     34  O   UNL     1       1.346  18.578  17.276  0.00  0.00    +0.000 OA
ATOM     35  N   UNL     1       0.651  17.750  18.143  0.00  0.00    +0.000 NA
ATOM     36  C   UNL     1       1.367  16.621  18.215  0.00  0.00    +0.000 A 
ATOM     37  C   UNL     1       1.113  15.451  18.959  0.00  0.00    +0.000 A 
ENDBRANCH  26  29
ENDBRANCH  20  21
ENDBRANCH   1  20
TORSDOF 7
ENDMDL
MODEL 3
REMARK VINA RESULT:      -8.9      2.939      3.780
REMARK  Name = 
REMARK  8 active torsions:
REMARK  status: ('A' for Active; 'I' for Inactive)
REMARK    1  A    between atoms: C_1  and  N_2
REMARK    2  A    between atoms: N_2  and  C_3
REMARK    3  A    between atoms: N_2  and  C_22
REMARK    4  A    between atoms: C_3  and  C_4
REMARK    5  A    between atoms: C_4  and  C_5
REMARK    6  A    between atoms: N_10  and  C_11
REMARK    7  A    between atoms: C_22  and  C_23
REMARK    8  A    between atoms: C_23  and  C_24
REMARK                            x       y       z     vdW  Elec       q    Type
REMARK                         _______ _______ _______ _____ _____    ______ ____
ROOT
ATOM      1  C   UNL     1       1.438   7.822  21.044  0.00  0.00    +0.000 C 
ENDROOT
BRANCH   1   3
ATOM      2  C   UNL     1       1.678   5.448  20.809  0.00  0.00    +0.000 C 
ATOM      3  N   UNL     1       1.690   6.718  20.078  0.00  0.00    +0.000 NA
BRANCH   3   4
ATOM      4  C   UNL     1       2.982   6.939  19.394  0.00  0.00    +0.000 C 
BRANCH   4   5
ATOM      5  C   UNL     1       2.961   6.782  17.863  0.00  0.00    +0.000 C 
BRANCH   5   6
ATOM      6  C   UNL     1       3.946   5.683  17.371  0.00  0.00    +0.000 C 
ATOM      7  C   UNL     1       3.538   4.317  17.891  0.00  0.00    +0.000 A 
ATOM      8  C   UNL     1       2.276   3.772  17.596  0.00  0.00    +0.000 A 
ATOM      9  C   UNL     1       1.861   2.576  18.186  0.00  0.00    +0.000 A 
ATOM     10  C   UNL     1       2.706   1.898  19.060  0.00  0.00    +0.000 A 
ATOM     11  C   UNL     1       3.978   2.403  19.320  0.00  0.00    +0.000 A 
ATOM     12  C   UNL     1       4.394   3.601  18.733  0.00  0.00    +0.000 A 
ATOM     13  O   UNL     1       5.662   4.008  19.058  0.00  0.00    +0.000 OA
ATOM     14  C   UNL     1       6.138   5.178  18.523  0.00  0.00    +0.000 A 
ATOM     15  C   UNL     1       7.452   5.506  18.870  0.00  0.00    +0.000 A 
ATOM     16  C   UNL     1       8.019   6.698  18.426  0.00  0.00    +0.000 A 
ATOM     17  C   UNL     1       7.276   7.558  17.624  0.00  0.00    +0.000 A 
ATOM     18  C   UNL     1       5.971   7.221  17.257  0.00  0.00    +0.000 A 
ATOM     19  C   UNL     1       5.383   6.028  17.712  0.00  0.00    +0.000 A 
ENDBRANCH   5   6
ENDBRANCH   4   5
ENDBRANCH   3   4
ENDBRANCH   1   3
BRANCH   1  20
ATOM     20  C   UNL     1       0.212   8.665  20.685  0.00  0.00    +0.000 C 
BRANCH  20  21
ATOM     21  C   UNL     1       0.623  10.083  20.354  0.00  0.00    +0.000 C 
ATOM     22  O   UNL     1       1.233  10.304  19.306  0.00  0.00    +0.000 OA
ATOM     23  N   UNL     1       0.250  11.109  21.202  0.00  0.00    +0.000 N 
ATOM     24  C   UNL     1       0.447  12.498  20.767  0.00  0.00    +0.000 C 
ATOM     25  C   UNL     1      -0.899  13.244  20.729  0.00  0.00    +0.000 C 
ATOM     26  N   UNL     1      -1.601  13.126  22.025  0.00  0.00    +0.000 N 
ATOM     27  C   UNL     1      -1.772  11.745  22.517  0.00  0.00    +0.000 C 
ATOM     28  C   UNL     1      -0.422  10.998  22.505  0.00  0.00    +0.000 C 
BRANCH  26  29
ATOM     29  C   UNL     1      -1.913  14.224  22.814  0.00  0.00    +0.000 A 
ATOM     30  C   UNL     1      -2.937  15.135  22.392  0.00  0.00    +0.000 A 
ATOM     31  C   UNL     1      -3.342  16.290  23.096  0.00  0.00    +0.000 A 
ATOM     32  C   UNL     1      -2.641  16.508  24.291  0.00  0.00    +0.000 A 
ATOM     33  N   UNL     1      -2.769  17.494  25.184  0.00  0.00    +0.000 NA
ATOM     34  O   UNL     1      -1.837  17.229  26.174  0.00  0.00    +0.000 OA
ATOM     35  N   UNL     1      -1.122  16.071  25.910  0.00  0.00    +0.000 NA
ATOM     36  C   UNL     1      -1.600  15.608  24.748  0.00  0.00    +0.000 A 
ATOM     37  C   UNL     1      -1.222  14.461  24.023  0.00  0.00    +0.000 A 
ENDBRANCH  26  29
ENDBRANCH  20  21
ENDBRANCH   1  20
TORSDOF 7
ENDMDL
MODEL 4
REMARK VINA RESULT:      -8.8      3.224      5.064
REMARK  Name = 
REMARK  8 active torsions:
REMARK  status: ('A' for Active; 'I' for Inactive)
REMARK    1  A    between atoms: C_1  and  N_2
REMARK    2  A    between atoms: N_2  and  C_3
REMARK    3  A    between atoms: N_2  and  C_22
REMARK    4  A    between atoms: C_3  and  C_4
REMARK    5  A    between atoms: C_4  and  C_5
REMARK    6  A    between atoms: N_10  and  C_11
REMARK    7  A    between atoms: C_22  and  C_23
REMARK    8  A    between atoms: C_23  and  C_24
REMARK                            x       y       z     vdW  Elec       q    Type
REMARK                         _______ _______ _______ _____ _____    ______ ____
ROOT
ATOM      1  C   UNL     1       3.034   4.636  19.211  0.00  0.00    +0.000 C 
ENDROOT
BRANCH   1   3
ATOM      2  C   UNL     1       1.535   2.782  18.957  0.00  0.00    +0.000 C 
ATOM      3  N   UNL     1       2.263   3.826  18.229  0.00  0.00    +0.000 NA
BRANCH   3   4
ATOM      4  C   UNL     1       3.183   3.248  17.227  0.00  0.00    +0.000 C 
BRANCH   4   5
ATOM      5  C   UNL     1       3.958   4.265  16.369  0.00  0.00    +0.000 C 
BRANCH   5   6
ATOM      6  C   UNL     1       5.468   3.909  16.254  0.00  0.00    +0.000 C 
ATOM      7  C   UNL     1       6.294   4.727  17.231  0.00  0.00    +0.000 A 
ATOM      8  C   UNL     1       6.054   4.668  18.614  0.00  0.00    +0.000 A 
ATOM      9  C   UNL     1       6.730   5.521  19.492  0.00  0.00    +0.000 A 
ATOM     10  C   UNL     1       7.666   6.427  19.002  0.00  0.00    +0.000 A 
ATOM     11  C   UNL     1       7.947   6.458  17.638  0.00  0.00    +0.000 A 
ATOM     12  C   UNL     1       7.270   5.608  16.759  0.00  0.00    +0.000 A 
ATOM     13  O   UNL     1       7.622   5.723  15.440  0.00  0.00    +0.000 OA
ATOM     14  C   UNL     1       6.997   4.924  14.516  0.00  0.00    +0.000 A 
ATOM     15  C   UNL     1       7.438   5.072  13.198  0.00  0.00    +0.000 A 
ATOM     16  C   UNL     1       6.836   4.348  12.172  0.00  0.00    +0.000 A 
ATOM     17  C   UNL     1       5.801   3.465  12.464  0.00  0.00    +0.000 A 
ATOM     18  C   UNL     1       5.375   3.300  13.785  0.00  0.00    +0.000 A 
ATOM     19  C   UNL     1       5.965   4.036  14.827  0.00  0.00    +0.000 A 
ENDBRANCH   5   6
ENDBRANCH   4   5
ENDBRANCH   3   4
ENDBRANCH   1   3
BRANCH   1  20
ATOM     20  C   UNL     1       2.190   5.713  19.895  0.00  0.00    +0.000 C 
BRANCH  20  21
ATOM     21  C   UNL     1       2.279   7.019  19.135  0.00  0.00    +0.000 C 
ATOM     22  O   UNL     1       2.740   7.020  17.992  0.00  0.00    +0.000 OA
ATOM     23  N   UNL     1       1.784   8.171  19.714  0.00  0.00    +0.000 N 
ATOM     24  C   UNL     1       1.662   9.384  18.894  0.00  0.00    +0.000 C 
ATOM     25  C   UNL     1       0.195   9.851  18.842  0.00  0.00    +0.000 C 
ATOM     26  N   UNL     1      -0.354  10.004  20.206  0.00  0.00    +0.000 N 
ATOM     27  C   UNL     1      -0.203   8.821  21.075  0.00  0.00    +0.000 C 
ATOM     28  C   UNL     1       1.262   8.339  21.078  0.00  0.00    +0.000 C 
BRANCH  26  29
ATOM     29  C   UNL     1      -0.810  11.218  20.701  0.00  0.00    +0.000 A 
ATOM     30  C   UNL     1      -1.678  12.032  19.901  0.00  0.00    +0.000 A 
ATOM     31  C   UNL     1      -2.202  13.287  20.283  0.00  0.00    +0.000 A 
ATOM     32  C   UNL     1      -1.795  13.714  21.555  0.00  0.00    +0.000 A 
ATOM     33  N   UNL     1      -2.099  14.837  22.212  0.00  0.00    +0.000 NA
ATOM     34  O   UNL     1      -1.435  14.756  23.425  0.00  0.00    +0.000 OA
ATOM     35  N   UNL     1      -0.713  13.578  23.538  0.00  0.00    +0.000 NA
ATOM     36  C   UNL     1      -0.918  12.917  22.391  0.00  0.00    +0.000 A 
ATOM     37  C   UNL     1      -0.415  11.667  21.981  0.00  0.00    +0.000 A 
ENDBRANCH  26  29
ENDBRANCH  20  21
ENDBRANCH   1  20
TORSDOF 7
ENDMDL
MODEL 5
REMARK VINA RESULT:      -8.8      3.542      5.075
REMARK  Name = 
REMARK  8 active torsions:
REMARK  status: ('A' for Active; 'I' for Inactive)
REMARK    1  A    between atoms: C_1  and  N_2
REMARK    2  A    between atoms: N_2  and  C_3
REMARK    3  A    between atoms: N_2  and  C_22
REMARK    4  A    between atoms: C_3  and  C_4
REMARK    5  A    between atoms: C_4  and  C_5
REMARK    6  A    between atoms: N_10  and  C_11
REMARK    7  A    between atoms: C_22  and  C_23
REMARK    8  A    between atoms: C_23  and  C_24
REMARK                            x       y       z     vdW  Elec       q    Type
REMARK                         _______ _______ _______ _____ _____    ______ ____
ROOT
ATOM      1  C   UNL     1       2.418   5.754  17.850  0.00  0.00    +0.000 C 
ENDROOT
BRANCH   1   3
ATOM      2  C   UNL     1       2.681   4.301  19.739  0.00  0.00    +0.000 C 
ATOM      3  N   UNL     1       2.353   4.341  18.311  0.00  0.00    +0.000 NA
BRANCH   3   4
ATOM      4  C   UNL     1       3.287   3.514  17.516  0.00  0.00    +0.000 C 
BRANCH   4   5
ATOM      5  C   UNL     1       3.971   4.228  16.336  0.00  0.00    +0.000 C 
BRANCH   5   6
ATOM      6  C   UNL     1       5.486   3.890  16.240  0.00  0.00    +0.000 C 
ATOM      7  C   UNL     1       6.289   4.713  17.231  0.00  0.00    +0.000 A 
ATOM      8  C   UNL     1       6.032   4.646  18.611  0.00  0.00    +0.000 A 
ATOM      9  C   UNL     1       6.686   5.503  19.500  0.00  0.00    +0.000 A 
ATOM     10  C   UNL     1       7.618   6.421  19.026  0.00  0.00    +0.000 A 
ATOM     11  C   UNL     1       7.917   6.461  17.667  0.00  0.00    +0.000 A 
ATOM     12  C   UNL     1       7.262   5.607  16.776  0.00  0.00    +0.000 A 
ATOM     13  O   UNL     1       7.631   5.730  15.461  0.00  0.00    +0.000 OA
ATOM     14  C   UNL     1       7.027   4.928  14.527  0.00  0.00    +0.000 A 
ATOM     15  C   UNL     1       7.483   5.086  13.215  0.00  0.00    +0.000 A 
ATOM     16  C   UNL     1       6.904   4.359  12.178  0.00  0.00    +0.000 A 
ATOM     17  C   UNL     1       5.875   3.464  12.454  0.00  0.00    +0.000 A 
ATOM     18  C   UNL     1       5.433   3.288  13.767  0.00  0.00    +0.000 A 
ATOM     19  C   UNL     1       6.000   4.027  14.821  0.00  0.00    +0.000 A 
ENDBRANCH   5   6
ENDBRANCH   4   5
ENDBRANCH   3   4
ENDBRANCH   1   3
BRANCH   1  20
ATOM     20  C   UNL     1       2.383   6.762  19.001  0.00  0.00    +0.000 C 
BRANCH  20  21
ATOM     21  C   UNL     1       2.239   8.171  18.467  0.00  0.00    +0.000 C 
ATOM     22  O   UNL     1       2.598   8.418  17.315  0.00  0.00    +0.000 OA
ATOM     23  N   UNL     1       1.649   9.136  19.262  0.00  0.00    +0.000 N 
ATOM     24  C   UNL     1       1.303  10.433  18.667  0.00  0.00    +0.000 C 
ATOM     25  C   UNL     1      -0.210  10.691  18.785  0.00  0.00    +0.000 C 
ATOM     26  N   UNL     1      -0.658  10.547  20.186  0.00  0.00    +0.000 N 
ATOM     27  C   UNL     1      -0.283   9.274  20.833  0.00  0.00    +0.000 C 
ATOM     28  C   UNL     1       1.228   9.010  20.664  0.00  0.00    +0.000 C 
BRANCH  26  29
ATOM     29  C   UNL     1      -1.223  11.590  20.906  0.00  0.00    +0.000 A 
ATOM     30  C   UNL     1      -0.710  11.919  22.205  0.00  0.00    +0.000 A 
ATOM     31  C   UNL     1      -1.201  12.946  23.040  0.00  0.00    +0.000 A 
ATOM     32  C   UNL     1      -2.280  13.659  22.498  0.00  0.00    +0.000 A 
ATOM     33  N   UNL     1      -2.973  14.676  23.017  0.00  0.00    +0.000 NA
ATOM     34  O   UNL     1      -3.928  15.005  22.068  0.00  0.00    +0.000 OA
ATOM     35  N   UNL     1      -3.836  14.198  20.946  0.00  0.00    +0.000 NA
ATOM     36  C   UNL     1      -2.825  13.354  21.189  0.00  0.00    +0.000 A 
ATOM     37  C   UNL     1      -2.310  12.323  20.378  0.00  0.00    +0.000 A 
ENDBRANCH  26  29
ENDBRANCH  20  21
ENDBRANCH   1  20
TORSDOF 7
ENDMDL
MODEL 6
REMARK VINA RESULT:      -8.7      2.806      5.035
REMARK  Name = 
REMARK  8 active torsions:
REMARK  status: ('A' for Active; 'I' for Inactive)
REMARK    1  A    between atoms: C_1  and  N_2
REMARK    2  A    between atoms: N_2  and  C_3
REMARK    3  A    between atoms: N_2  and  C_22
REMARK    4  A    between atoms: C_3  and  C_4
REMARK    5  A    between atoms: C_4  and  C_5
REMARK    6  A    between atoms: N_10  and  C_11
REMARK    7  A    between atoms: C_22  and  C_23
REMARK    8  A    between atoms: C_23  and  C_24
REMARK                            x       y       z     vdW  Elec       q    Type
REMARK                         _______ _______ _______ _____ _____    ______ ____
ROOT
ATOM      1  C   UNL     1       2.997   4.382  19.330  0.00  0.00    +0.000 C 
ENDROOT
BRANCH   1   3
ATOM      2  C   UNL     1       1.722   2.386  18.956  0.00  0.00    +0.000 C 
ATOM      3  N   UNL     1       2.416   3.491  18.289  0.00  0.00    +0.000 NA
BRANCH   3   4
ATOM      4  C   UNL     1       3.489   2.999  17.398  0.00  0.00    +0.000 C 
BRANCH   4   5
ATOM      5  C   UNL     1       4.119   4.053  16.469  0.00  0.00    +0.000 C 
BRANCH   5   6
ATOM      6  C   UNL     1       5.650   3.840  16.291  0.00  0.00    +0.000 C 
ATOM      7  C   UNL     1       6.436   4.755  17.213  0.00  0.00    +0.000 A 
ATOM      8  C   UNL     1       6.265   4.705  18.607  0.00  0.00    +0.000 A 
ATOM      9  C   UNL     1       6.894   5.639  19.436  0.00  0.00    +0.000 A 
ATOM     10  C   UNL     1       7.715   6.618  18.886  0.00  0.00    +0.000 A 
ATOM     11  C   UNL     1       7.931   6.645  17.511  0.00  0.00    +0.000 A 
ATOM     12  C   UNL     1       7.301   5.714  16.680  0.00  0.00    +0.000 A 
ATOM     13  O   UNL     1       7.581   5.832  15.344  0.00  0.00    +0.000 OA
ATOM     14  C   UNL     1       6.996   4.956  14.465  0.00  0.00    +0.000 A 
ATOM     15  C   UNL     1       7.360   5.115  13.126  0.00  0.00    +0.000 A 
ATOM     16  C   UNL     1       6.787   4.314  12.142  0.00  0.00    +0.000 A 
ATOM     17  C   UNL     1       5.855   3.343  12.499  0.00  0.00    +0.000 A 
ATOM     18  C   UNL     1       5.507   3.168  13.840  0.00  0.00    +0.000 A 
ATOM     19  C   UNL     1       6.068   3.981  14.840  0.00  0.00    +0.000 A 
ENDBRANCH   5   6
ENDBRANCH   4   5
ENDBRANCH   3   4
ENDBRANCH   1   3
BRANCH   1  20
ATOM     20  C   UNL     1       1.998   5.408  19.866  0.00  0.00    +0.000 C 
BRANCH  20  21
ATOM     21  C   UNL     1       2.204   6.750  19.197  0.00  0.00    +0.000 C 
ATOM     22  O   UNL     1       2.614   6.786  18.036  0.00  0.00    +0.000 OA
ATOM     23  N   UNL     1       1.870   7.903  19.881  0.00  0.00    +0.000 N 
ATOM     24  C   UNL     1       1.854   9.181  19.156  0.00  0.00    +0.000 C 
ATOM     25  C   UNL     1       0.450   9.811  19.212  0.00  0.00    +0.000 C 
ATOM     26  N   UNL     1      -0.020   9.921  20.609  0.00  0.00    +0.000 N 
ATOM     27  C   UNL     1       0.031   8.665  21.384  0.00  0.00    +0.000 C 
ATOM     28  C   UNL     1       1.430   8.024  21.279  0.00  0.00    +0.000 C 
BRANCH  26  29
ATOM     29  C   UNL     1      -0.311  11.136  21.212  0.00  0.00    +0.000 A 
ATOM     30  C   UNL     1      -1.015  11.161  22.462  0.00  0.00    +0.000 A 
ATOM     31  C   UNL     1      -1.378  12.326  23.171  0.00  0.00    +0.000 A 
ATOM     32  C   UNL     1      -0.998  13.521  22.543  0.00  0.00    +0.000 A 
ATOM     33  N   UNL     1      -1.186  14.784  22.935  0.00  0.00    +0.000 NA
ATOM     34  O   UNL     1      -0.615  15.573  21.950  0.00  0.00    +0.000 OA
ATOM     35  N   UNL     1      -0.059  14.809  20.937  0.00  0.00    +0.000 NA
ATOM     36  C   UNL     1      -0.286  13.534  21.279  0.00  0.00    +0.000 A 
ATOM     37  C   UNL     1       0.066  12.352  20.599  0.00  0.00    +0.000 A 
ENDBRANCH  26  29
ENDBRANCH  20  21
ENDBRANCH   1  20
TORSDOF 7
ENDMDL
MODEL 7
REMARK VINA RESULT:      -8.6      2.949      3.696
REMARK  Name = 
REMARK  8 active torsions:
REMARK  status: ('A' for Active; 'I' for Inactive)
REMARK    1  A    between atoms: C_1  and  N_2
REMARK    2  A    between atoms: N_2  and  C_3
REMARK    3  A    between atoms: N_2  and  C_22
REMARK    4  A    between atoms: C_3  and  C_4
REMARK    5  A    between atoms: C_4  and  C_5
REMARK    6  A    between atoms: N_10  and  C_11
REMARK    7  A    between atoms: C_22  and  C_23
REMARK    8  A    between atoms: C_23  and  C_24
REMARK                            x       y       z     vdW  Elec       q    Type
REMARK                         _______ _______ _______ _____ _____    ______ ____
ROOT
ATOM      1  C   UNL     1       1.776   8.868  18.092  0.00  0.00    +0.000 C 
ENDROOT
BRANCH   1   3
ATOM      2  C   UNL     1       1.677   8.219  20.398  0.00  0.00    +0.000 C 
ATOM      3  N   UNL     1       1.717   7.710  19.024  0.00  0.00    +0.000 NA
BRANCH   3   4
ATOM      4  C   UNL     1       2.888   6.833  18.804  0.00  0.00    +0.000 C 
BRANCH   4   5
ATOM      5  C   UNL     1       3.349   6.691  17.342  0.00  0.00    +0.000 C 
BRANCH   5   6
ATOM      6  C   UNL     1       4.412   5.569  17.167  0.00  0.00    +0.000 C 
ATOM      7  C   UNL     1       3.938   4.270  17.792  0.00  0.00    +0.000 A 
ATOM      8  C   UNL     1       2.748   3.652  17.374  0.00  0.00    +0.000 A 
ATOM      9  C   UNL     1       2.253   2.529  18.044  0.00  0.00    +0.000 A 
ATOM     10  C   UNL     1       2.950   1.999  19.125  0.00  0.00    +0.000 A 
ATOM     11  C   UNL     1       4.157   2.574  19.517  0.00  0.00    +0.000 A 
ATOM     12  C   UNL     1       4.651   3.698  18.849  0.00  0.00    +0.000 A 
ATOM     13  O   UNL     1       5.844   4.184  19.317  0.00  0.00    +0.000 OA
ATOM     14  C   UNL     1       6.390   5.288  18.715  0.00  0.00    +0.000 A 
ATOM     15  C   UNL     1       7.626   5.700  19.222  0.00  0.00    +0.000 A 
ATOM     16  C   UNL     1       8.246   6.841  18.720  0.00  0.00    +0.000 A 
ATOM     17  C   UNL     1       7.637   7.566  17.700  0.00  0.00    +0.000 A 
ATOM     18  C   UNL     1       6.413   7.143  17.177  0.00  0.00    +0.000 A 
ATOM     19  C   UNL     1       5.770   6.001  17.686  0.00  0.00    +0.000 A 
ENDBRANCH   5   6
ENDBRANCH   4   5
ENDBRANCH   3   4
ENDBRANCH   1   3
BRANCH   1  20
ATOM     20  C   UNL     1       0.668   9.894  18.341  0.00  0.00    +0.000 C 
BRANCH  20  21
ATOM     21  C   UNL     1       1.254  11.195  18.846  0.00  0.00    +0.000 C 
ATOM     22  O   UNL     1       2.212  11.694  18.253  0.00  0.00    +0.000 OA
ATOM     23  N   UNL     1       0.663  11.827  19.923  0.00  0.00    +0.000 N 
ATOM     24  C   UNL     1       1.086  13.191  20.267  0.00  0.00    +0.000 C 
ATOM     25  C   UNL     1      -0.110  14.158  20.189  0.00  0.00    +0.000 C 
ATOM     26  N   UNL     1      -1.236  13.666  21.010  0.00  0.00    +0.000 N 
ATOM     27  C   UNL     1      -1.654  12.279  20.727  0.00  0.00    +0.000 C 
ATOM     28  C   UNL     1      -0.437  11.332  20.763  0.00  0.00    +0.000 C 
BRANCH  26  29
ATOM     29  C   UNL     1      -1.745  14.373  22.090  0.00  0.00    +0.000 A 
ATOM     30  C   UNL     1      -2.453  13.679  23.126  0.00  0.00    +0.000 A 
ATOM     31  C   UNL     1      -3.025  14.280  24.268  0.00  0.00    +0.000 A 
ATOM     32  C   UNL     1      -2.859  15.671  24.328  0.00  0.00    +0.000 A 
ATOM     33  N   UNL     1      -3.273  16.538  25.256  0.00  0.00    +0.000 NA
ATOM     34  O   UNL     1      -2.842  17.783  24.828  0.00  0.00    +0.000 OA
ATOM     35  N   UNL     1      -2.150  17.704  23.630  0.00  0.00    +0.000 NA
ATOM     36  C   UNL     1      -2.150  16.407  23.298  0.00  0.00    +0.000 A 
ATOM     37  C   UNL     1      -1.586  15.775  22.172  0.00  0.00    +0.000 A 
ENDBRANCH  26  29
ENDBRANCH  20  21
ENDBRANCH   1  20
TORSDOF 7
ENDMDL
MODEL 8
REMARK VINA RESULT:      -8.6      2.942      3.661
REMARK  Name = 
REMARK  8 active torsions:
REMARK  status: ('A' for Active; 'I' for Inactive)
REMARK    1  A    between atoms: C_1  and  N_2
REMARK    2  A    between atoms: N_2  and  C_3
REMARK    3  A    between atoms: N_2  and  C_22
REMARK    4  A    between atoms: C_3  and  C_4
REMARK    5  A    between atoms: C_4  and  C_5
REMARK    6  A    between atoms: N_10  and  C_11
REMARK    7  A    between atoms: C_22  and  C_23
REMARK    8  A    between atoms: C_23  and  C_24
REMARK                            x       y       z     vdW  Elec       q    Type
REMARK                         _______ _______ _______ _____ _____    ______ ____
ROOT
ATOM      1  C   UNL     1       1.498   8.607  19.528  0.00  0.00    +0.000 C 
ENDROOT
BRANCH   1   3
ATOM      2  C   UNL     1       1.877   6.398  20.380  0.00  0.00    +0.000 C 
ATOM      3  N   UNL     1       1.923   7.227  19.171  0.00  0.00    +0.000 NA
BRANCH   3   4
ATOM      4  C   UNL     1       3.282   7.259  18.587  0.00  0.00    +0.000 C 
BRANCH   4   5
ATOM      5  C   UNL     1       3.410   6.677  17.167  0.00  0.00    +0.000 C 
BRANCH   5   6
ATOM      6  C   UNL     1       4.459   5.532  17.094  0.00  0.00    +0.000 C 
ATOM      7  C   UNL     1       3.936   4.273  17.761  0.00  0.00    +0.000 A 
ATOM      8  C   UNL     1       2.754   3.653  17.322  0.00  0.00    +0.000 A 
ATOM      9  C   UNL     1       2.211   2.574  18.025  0.00  0.00    +0.000 A 
ATOM     10  C   UNL     1       2.852   2.087  19.160  0.00  0.00    +0.000 A 
ATOM     11  C   UNL     1       4.050   2.662  19.575  0.00  0.00    +0.000 A 
ATOM     12  C   UNL     1       4.593   3.743  18.876  0.00  0.00    +0.000 A 
ATOM     13  O   UNL     1       5.774   4.233  19.371  0.00  0.00    +0.000 OA
ATOM     14  C   UNL     1       6.364   5.298  18.739  0.00  0.00    +0.000 A 
ATOM     15  C   UNL     1       7.584   5.715  19.279  0.00  0.00    +0.000 A 
ATOM     16  C   UNL     1       8.246   6.819  18.749  0.00  0.00    +0.000 A 
ATOM     17  C   UNL     1       7.694   7.502  17.669  0.00  0.00    +0.000 A 
ATOM     18  C   UNL     1       6.486   7.072  17.114  0.00  0.00    +0.000 A 
ATOM     19  C   UNL     1       5.801   5.967  17.650  0.00  0.00    +0.000 A 
ENDBRANCH   5   6
ENDBRANCH   4   5
ENDBRANCH   3   4
ENDBRANCH   1   3
BRANCH   1  20
ATOM     20  C   UNL     1       1.365   9.527  18.312  0.00  0.00    +0.000 C 
BRANCH  20  21
ATOM     21  C   UNL     1       0.066  10.303  18.374  0.00  0.00    +0.000 C 
ATOM     22  O   UNL     1      -0.916   9.880  17.764  0.00  0.00    +0.000 OA
ATOM     23  N   UNL     1      -0.005  11.434  19.164  0.00  0.00    +0.000 N 
ATOM     24  C   UNL     1      -1.317  12.052  19.403  0.00  0.00    +0.000 C 
ATOM     25  C   UNL     1      -1.633  12.071  20.910  0.00  0.00    +0.000 C 
ATOM     26  N   UNL     1      -0.535  12.707  21.668  0.00  0.00    +0.000 N 
ATOM     27  C   UNL     1       0.805  12.144  21.413  0.00  0.00    +0.000 C 
ATOM     28  C   UNL     1       1.087  12.090  19.897  0.00  0.00    +0.000 C 
BRANCH  26  29
ATOM     29  C   UNL     1      -0.709  13.861  22.419  0.00  0.00    +0.000 A 
ATOM     30  C   UNL     1      -0.188  15.108  21.940  0.00  0.00    +0.000 A 
ATOM     31  C   UNL     1      -0.289  16.346  22.610  0.00  0.00    +0.000 A 
ATOM     32  C   UNL     1      -0.958  16.279  23.840  0.00  0.00    +0.000 A 
ATOM     33  N   UNL     1      -1.222  17.251  24.719  0.00  0.00    +0.000 NA
ATOM     34  O   UNL     1      -1.905  16.642  25.759  0.00  0.00    +0.000 OA
ATOM     35  N   UNL     1      -2.078  15.286  25.537  0.00  0.00    +0.000 NA
ATOM     36  C   UNL     1      -1.498  15.036  24.357  0.00  0.00    +0.000 A 
ATOM     37  C   UNL     1      -1.383  13.816  23.661  0.00  0.00    +0.000 A 
ENDBRANCH  26  29
ENDBRANCH  20  21
ENDBRANCH   1  20
TORSDOF 7
ENDMDL
MODEL 9
REMARK VINA RESULT:      -8.6      1.399      1.794
REMARK  Name = 
REMARK  8 active torsions:
REMARK  status: ('A' for Active; 'I' for Inactive)
REMARK    1  A    between atoms: C_1  and  N_2
REMARK    2  A    between atoms: N_2  and  C_3
REMARK    3  A    between atoms: N_2  and  C_22
REMARK    4  A    between atoms: C_3  and  C_4
REMARK    5  A    between atoms: C_4  and  C_5
REMARK    6  A    between atoms: N_10  and  C_11
REMARK    7  A    between atoms: C_22  and  C_23
REMARK    8  A    between atoms: C_23  and  C_24
REMARK                            x       y       z     vdW  Elec       q    Type
REMARK                         _______ _______ _______ _____ _____    ______ ____
ROOT
ATOM      1  C   UNL     1       1.214   8.787  20.932  0.00  0.00    +0.000 C 
ENDROOT
BRANCH   1   3
ATOM      2  C   UNL     1       1.505   6.414  21.105  0.00  0.00    +0.000 C 
ATOM      3  N   UNL     1       1.264   7.513  20.165  0.00  0.00    +0.000 NA
BRANCH   3   4
ATOM      4  C   UNL     1       2.323   7.591  19.137  0.00  0.00    +0.000 C 
BRANCH   4   5
ATOM      5  C   UNL     1       3.297   6.399  19.091  0.00  0.00    +0.000 C 
BRANCH   5   6
ATOM      6  C   UNL     1       3.129   5.551  17.798  0.00  0.00    +0.000 C 
ATOM      7  C   UNL     1       2.513   4.200  18.111  0.00  0.00    +0.000 A 
ATOM      8  C   UNL     1       1.254   4.098  18.727  0.00  0.00    +0.000 A 
ATOM      9  C   UNL     1       0.755   2.856  19.130  0.00  0.00    +0.000 A 
ATOM     10  C   UNL     1       1.496   1.700  18.905  0.00  0.00    +0.000 A 
ATOM     11  C   UNL     1       2.722   1.784  18.250  0.00  0.00    +0.000 A 
ATOM     12  C   UNL     1       3.224   3.025  17.849  0.00  0.00    +0.000 A 
ATOM     13  O   UNL     1       4.439   2.993  17.216  0.00  0.00    +0.000 OA
ATOM     14  C   UNL     1       4.998   4.174  16.797  0.00  0.00    +0.000 A 
ATOM     15  C   UNL     1       6.218   4.056  16.126  0.00  0.00    +0.000 A 
ATOM     16  C   UNL     1       6.899   5.195  15.702  0.00  0.00    +0.000 A 
ATOM     17  C   UNL     1       6.354   6.453  15.940  0.00  0.00    +0.000 A 
ATOM     18  C   UNL     1       5.124   6.571  16.591  0.00  0.00    +0.000 A 
ATOM     19  C   UNL     1       4.434   5.430  17.036  0.00  0.00    +0.000 A 
ENDBRANCH   5   6
ENDBRANCH   4   5
ENDBRANCH   3   4
ENDBRANCH   1   3
BRANCH   1  20
ATOM     20  C   UNL     1      -0.184   9.116  21.459  0.00  0.00    +0.000 C 
BRANCH  20  21
ATOM     21  C   UNL     1      -0.233  10.535  21.984  0.00  0.00    +0.000 C 
ATOM     22  O   UNL     1      -0.422  10.726  23.186  0.00  0.00    +0.000 OA
ATOM     23  N   UNL     1      -0.003  11.583  21.113  0.00  0.00    +0.000 N 
ATOM     24  C   UNL     1       0.175  12.935  21.660  0.00  0.00    +0.000 C 
ATOM     25  C   UNL     1       1.559  13.490  21.276  0.00  0.00    +0.000 C 
ATOM     26  N   UNL     1       1.767  13.413  19.814  0.00  0.00    +0.000 N 
ATOM     27  C   UNL     1       1.546  12.079  19.223  0.00  0.00    +0.000 C 
ATOM     28  C   UNL     1       0.176  11.519  19.656  0.00  0.00    +0.000 C 
BRANCH  26  29
ATOM     29  C   UNL     1       1.971  14.535  19.023  0.00  0.00    +0.000 A 
ATOM     30  C   UNL     1       3.114  14.598  18.158  0.00  0.00    +0.000 A 
ATOM     31  C   UNL     1       3.439  15.681  17.314  0.00  0.00    +0.000 A 
ATOM     32  C   UNL     1       2.536  16.751  17.380  0.00  0.00    +0.000 A 
ATOM     33  N   UNL     1       2.548  17.916  16.726  0.00  0.00    +0.000 NA
ATOM     34  O   UNL     1       1.427  18.604  17.161  0.00  0.00    +0.000 OA
ATOM     35  N   UNL     1       0.702  17.873  18.088  0.00  0.00    +0.000 NA
ATOM     36  C   UNL     1       1.370  16.723  18.243  0.00  0.00    +0.000 A 
ATOM     37  C   UNL     1       1.072  15.624  19.072  0.00  0.00    +0.000 A 
ENDBRANCH  26  29
ENDBRANCH  20  21
ENDBRANCH   1  20
TORSDOF 7
ENDMDL
