MODEL 1
REMARK VINA RESULT:      -8.2      0.000      0.000
REMARK  Name = 
REMARK  3 active torsions:
REMARK  status: ('A' for Active; 'I' for Inactive)
REMARK    1  A    between atoms: S_2  and  C_4
REMARK    2  A    between atoms: S_2  and  N_14
REMARK    3  A    between atoms: C_7  and  C_8
REMARK                            x       y       z     vdW  Elec       q    Type
REMARK                         _______ _______ _______ _____ _____    ______ ____
ROOT
ATOM      1  N   UNL     1      -0.934  11.395  20.068  0.00  0.00    +0.000 N 
ATOM      2  C   UNL     1      -1.582  10.933  18.929  0.00  0.00    +0.000 A 
ATOM      3  C   UNL     1      -2.730  11.660  18.790  0.00  0.00    +0.000 A 
ATOM      4  C   UNL     1      -2.757  12.544  19.895  0.00  0.00    +0.000 A 
ATOM      5  C   UNL     1      -3.516  13.642  20.320  0.00  0.00    +0.000 A 
ATOM      6  N   UNL     1      -4.882  13.565  20.534  0.00  0.00    +0.000 N 
ATOM      7  C   UNL     1      -5.545  14.772  21.029  0.00  0.00    +0.000 C 
ATOM      8  C   UNL     1      -6.068  15.566  19.820  0.00  0.00    +0.000 C 
ATOM      9  N   UNL     1      -6.992  14.772  18.976  0.00  0.00    +0.000 NA
ATOM     10  C   UNL     1      -6.350  13.501  18.568  0.00  0.00    +0.000 C 
ATOM     11  C   UNL     1      -5.765  12.699  19.750  0.00  0.00    +0.000 C 
ATOM     12  N   UNL     1      -2.765  14.521  21.047  0.00  0.00    +0.000 NA
ATOM     13  C   UNL     1      -2.145  14.008  22.101  0.00  0.00    +0.000 A 
ATOM     14  C   UNL     1      -2.297  14.759  23.242  0.00  0.00    +0.000 A 
ATOM     15  C   UNL     1      -2.983  14.182  24.303  0.00  0.00    +0.000 A 
ATOM     16  C   UNL     1      -3.342  12.840  24.213  0.00  0.00    +0.000 A 
ATOM     17  C   UNL     1      -2.803  12.043  23.179  0.00  0.00    +0.000 A 
ATOM     18  C   UNL     1      -1.985  12.618  22.169  0.00  0.00    +0.000 A 
ATOM     19  C   UNL     1      -1.854  12.044  20.868  0.00  0.00    +0.000 A 
ATOM     20  H   UNL     1      -7.223  15.311  18.144  0.00  0.00    +0.000 HD
ENDROOT
BRANCH   1  22
ATOM     21  O   UNL     1       0.940  11.022  21.656  0.00  0.00    +0.000 OA
ATOM     22  S   UNL     1       0.721  11.064  20.210  0.00  0.00    +0.000 S 
ATOM     23  O   UNL     1       1.330  12.116  19.415  0.00  0.00    +0.000 OA
BRANCH  22  24
ATOM     24  C   UNL     1       1.245   9.508  19.602  0.00  0.00    +0.000 A 
ATOM     25  C   UNL     1       1.435   8.415  20.447  0.00  0.00    +0.000 A 
ATOM     26  C   UNL     1       2.062   7.260  19.948  0.00  0.00    +0.000 A 
ATOM     27  C   UNL     1       2.520   7.197  18.617  0.00  0.00    +0.000 A 
ATOM     28  C   UNL     1       2.377   8.326  17.802  0.00  0.00    +0.000 A 
ATOM     29  C   UNL     1       1.752   9.474  18.292  0.00  0.00    +0.000 A 
BRANCH  27  30
ATOM     30  C   UNL     1       3.165   5.949  18.054  0.00  0.00    +0.000 C 
ATOM     31  F   UNL     1       3.917   5.268  18.962  0.00  0.00    +0.000 F 
ATOM     32  F   UNL     1       2.243   5.060  17.590  0.00  0.00    +0.000 F 
ATOM     33  F   UNL     1       3.991   6.211  17.004  0.00  0.00    +0.000 F 
ENDBRANCH  27  30
ENDBRANCH  22  24
ENDBRANCH   1  22
TORSDOF 3
ENDMDL
MODEL 2
REMARK VINA RESULT:      -8.0      0.726      1.276
REMARK  Name = 
REMARK  3 active torsions:
REMARK  status: ('A' for Active; 'I' for Inactive)
REMARK    1  A    between atoms: S_2  and  C_4
REMARK    2  A    between atoms: S_2  and  N_14
REMARK    3  A    between atoms: C_7  and  C_8
REMARK                            x       y       z     vdW  Elec       q    Type
REMARK                         _______ _______ _______ _____ _____    ______ ____
ROOT
ATOM      1  N   UNL     1      -1.102  11.613  19.835  0.00  0.00    +0.000 N 
ATOM      2  C   UNL     1      -1.721  10.948  18.783  0.00  0.00    +0.000 A 
ATOM      3  C   UNL     1      -3.005  11.406  18.710  0.00  0.00    +0.000 A 
ATOM      4  C   UNL     1      -3.137  12.338  19.767  0.00  0.00    +0.000 A 
ATOM      5  C   UNL     1      -4.080  13.278  20.202  0.00  0.00    +0.000 A 
ATOM      6  N   UNL     1      -5.378  12.930  20.540  0.00  0.00    +0.000 N 
ATOM      7  C   UNL     1      -6.246  14.001  21.030  0.00  0.00    +0.000 C 
ATOM      8  C   UNL     1      -7.018  14.583  19.834  0.00  0.00    +0.000 C 
ATOM      9  N   UNL     1      -7.810  13.556  19.117  0.00  0.00    +0.000 NA
ATOM     10  C   UNL     1      -6.942  12.424  18.718  0.00  0.00    +0.000 C 
ATOM     11  C   UNL     1      -6.110  11.846  19.883  0.00  0.00    +0.000 C 
ATOM     12  N   UNL     1      -3.484  14.343  20.815  0.00  0.00    +0.000 NA
ATOM     13  C   UNL     1      -2.690  14.045  21.833  0.00  0.00    +0.000 A 
ATOM     14  C   UNL     1      -2.913  14.824  22.944  0.00  0.00    +0.000 A 
ATOM     15  C   UNL     1      -3.375  14.189  24.090  0.00  0.00    +0.000 A 
ATOM     16  C   UNL     1      -3.443  12.799  24.099  0.00  0.00    +0.000 A 
ATOM     17  C   UNL     1      -2.825  12.064  23.064  0.00  0.00    +0.000 A 
ATOM     18  C   UNL     1      -2.229  12.728  21.957  0.00  0.00    +0.000 A 
ATOM     19  C   UNL     1      -2.077  12.107  20.681  0.00  0.00    +0.000 A 
ATOM     20  H   UNL     1      -8.215  13.977  18.283  0.00  0.00    +0.000 HD
ENDROOT
BRANCH   1  22
ATOM     21  O   UNL     1       0.921  11.863  21.256  0.00  0.00    +0.000 OA
ATOM     22  S   UNL     1       0.591  11.648  19.846  0.00  0.00    +0.000 S 
ATOM     23  O   UNL     1       0.899  12.674  18.865  0.00  0.00    +0.000 OA
BRANCH  22  24
ATOM     24  C   UNL     1       1.390  10.159  19.390  0.00  0.00    +0.000 A 
ATOM     25  C   UNL     1       1.779   9.907  18.075  0.00  0.00    +0.000 A 
ATOM     26  C   UNL     1       2.215   8.618  17.721  0.00  0.00    +0.000 A 
ATOM     27  C   UNL     1       2.245   7.574  18.666  0.00  0.00    +0.000 A 
ATOM     28  C   UNL     1       1.792   7.830  19.966  0.00  0.00    +0.000 A 
ATOM     29  C   UNL     1       1.362   9.109  20.322  0.00  0.00    +0.000 A 
BRANCH  27  30
ATOM     30  C   UNL     1       2.745   6.191  18.311  0.00  0.00    +0.000 C 
ATOM     31  F   UNL     1       3.805   6.197  17.456  0.00  0.00    +0.000 F 
ATOM     32  F   UNL     1       3.155   5.496  19.409  0.00  0.00    +0.000 F 
ATOM     33  F   UNL     1       1.790   5.421  17.718  0.00  0.00    +0.000 F 
ENDBRANCH  27  30
ENDBRANCH  22  24
ENDBRANCH   1  22
TORSDOF 3
ENDMDL
MODEL 3
REMARK VINA RESULT:      -7.6      2.599      3.820
REMARK  Name = 
REMARK  3 active torsions:
REMARK  status: ('A' for Active; 'I' for Inactive)
REMARK    1  A    between atoms: S_2  and  C_4
REMARK    2  A    between atoms: S_2  and  N_14
REMARK    3  A    between atoms: C_7  and  C_8
REMARK                            x       y       z     vdW  Elec       q    Type
REMARK                         _______ _______ _______ _____ _____    ______ ____
ROOT
ATOM      1  N   UNL     1       0.662  10.576  20.621  0.00  0.00    +0.000 N 
ATOM      2  C   UNL     1       1.383  10.847  19.464  0.00  0.00    +0.000 A 
ATOM      3  C   UNL     1       1.433  12.204  19.324  0.00  0.00    +0.000 A 
ATOM      4  C   UNL     1       0.697  12.727  20.414  0.00  0.00    +0.000 A 
ATOM      5  C   UNL     1       0.453  13.982  20.988  0.00  0.00    +0.000 A 
ATOM      6  N   UNL     1      -0.128  15.023  20.283  0.00  0.00    +0.000 N 
ATOM      7  C   UNL     1      -0.376  16.264  21.017  0.00  0.00    +0.000 C 
ATOM      8  C   UNL     1       0.837  17.190  20.823  0.00  0.00    +0.000 C 
ATOM      9  N   UNL     1       1.111  17.474  19.394  0.00  0.00    +0.000 NA
ATOM     10  C   UNL     1       1.253  16.209  18.637  0.00  0.00    +0.000 C 
ATOM     11  C   UNL     1       0.079  15.229  18.848  0.00  0.00    +0.000 C 
ATOM     12  N   UNL     1       0.266  13.890  22.337  0.00  0.00    +0.000 NA
ATOM     13  C   UNL     1      -0.691  13.060  22.727  0.00  0.00    +0.000 A 
ATOM     14  C   UNL     1      -1.535  13.602  23.667  0.00  0.00    +0.000 A 
ATOM     15  C   UNL     1      -2.865  13.777  23.308  0.00  0.00    +0.000 A 
ATOM     16  C   UNL     1      -3.300  13.261  22.091  0.00  0.00    +0.000 A 
ATOM     17  C   UNL     1      -2.466  12.379  21.370  0.00  0.00    +0.000 A 
ATOM     18  C   UNL     1      -1.147  12.096  21.818  0.00  0.00    +0.000 A 
ATOM     19  C   UNL     1      -0.108  11.681  20.932  0.00  0.00    +0.000 A 
ATOM     20  H   UNL     1       1.977  18.004  19.325  0.00  0.00    +0.000 HD
ENDROOT
BRANCH   1  22
ATOM     21  O   UNL     1      -0.502   8.569  21.511  0.00  0.00    +0.000 OA
ATOM     22  S   UNL     1       0.867   9.051  21.328  0.00  0.00    +0.000 S 
ATOM     23  O   UNL     1       1.696   9.340  22.486  0.00  0.00    +0.000 OA
BRANCH  22  24
ATOM     24  C   UNL     1       1.667   7.850  20.336  0.00  0.00    +0.000 A 
ATOM     25  C   UNL     1       2.054   8.120  19.024  0.00  0.00    +0.000 A 
ATOM     26  C   UNL     1       2.490   7.065  18.204  0.00  0.00    +0.000 A 
ATOM     27  C   UNL     1       2.522   5.738  18.679  0.00  0.00    +0.000 A 
ATOM     28  C   UNL     1       2.072   5.478  19.978  0.00  0.00    +0.000 A 
ATOM     29  C   UNL     1       1.641   6.523  20.797  0.00  0.00    +0.000 A 
BRANCH  27  30
ATOM     30  C   UNL     1       3.022   4.596  17.821  0.00  0.00    +0.000 C 
ATOM     31  F   UNL     1       2.032   3.946  17.149  0.00  0.00    +0.000 F 
ATOM     32  F   UNL     1       3.904   5.015  16.871  0.00  0.00    +0.000 F 
ATOM     33  F   UNL     1       3.675   3.643  18.542  0.00  0.00    +0.000 F 
ENDBRANCH  27  30
ENDBRANCH  22  24
ENDBRANCH   1  22
TORSDOF 3
ENDMDL
MODEL 4
REMARK VINA RESULT:      -7.6      1.849      3.895
REMARK  Name = 
REMARK  3 active torsions:
REMARK  status: ('A' for Active; 'I' for Inactive)
REMARK    1  A    between atoms: S_2  and  C_4
REMARK    2  A    between atoms: S_2  and  N_14
REMARK    3  A    between atoms: C_7  and  C_8
REMARK                            x       y       z     vdW  Elec       q    Type
REMARK                         _______ _______ _______ _____ _____    ______ ____
ROOT
ATOM      1  N   UNL     1      -0.706  12.214  19.510  0.00  0.00    +0.000 N 
ATOM      2  C   UNL     1      -1.173  13.188  20.385  0.00  0.00    +0.000 A 
ATOM      3  C   UNL     1      -2.537  13.116  20.384  0.00  0.00    +0.000 A 
ATOM      4  C   UNL     1      -2.863  12.093  19.462  0.00  0.00    +0.000 A 
ATOM      5  C   UNL     1      -4.006  11.387  19.065  0.00  0.00    +0.000 A 
ATOM      6  N   UNL     1      -5.126  12.014  18.545  0.00  0.00    +0.000 N 
ATOM      7  C   UNL     1      -6.232  11.154  18.121  0.00  0.00    +0.000 C 
ATOM      8  C   UNL     1      -7.212  11.011  19.298  0.00  0.00    +0.000 C 
ATOM      9  N   UNL     1      -7.721  12.319  19.773  0.00  0.00    +0.000 NA
ATOM     10  C   UNL     1      -6.592  13.222  20.099  0.00  0.00    +0.000 C 
ATOM     11  C   UNL     1      -5.558  13.350  18.960  0.00  0.00    +0.000 C 
ATOM     12  N   UNL     1      -3.702  10.113  18.678  0.00  0.00    +0.000 NA
ATOM     13  C   UNL     1      -2.794  10.010  17.718  0.00  0.00    +0.000 A 
ATOM     14  C   UNL     1      -3.159   9.148  16.711  0.00  0.00    +0.000 A 
ATOM     15  C   UNL     1      -3.348   9.686  15.444  0.00  0.00    +0.000 A 
ATOM     16  C   UNL     1      -3.014  11.020  15.231  0.00  0.00    +0.000 A 
ATOM     17  C   UNL     1      -2.279  11.720  16.212  0.00  0.00    +0.000 A 
ATOM     18  C   UNL     1      -1.969  11.113  17.459  0.00  0.00    +0.000 A 
ATOM     19  C   UNL     1      -1.726  11.872  18.644  0.00  0.00    +0.000 A 
ATOM     20  H   UNL     1      -8.281  12.169  20.611  0.00  0.00    +0.000 HD
ENDROOT
BRANCH   1  22
ATOM     21  O   UNL     1       1.155  11.866  21.119  0.00  0.00    +0.000 OA
ATOM     22  S   UNL     1       0.903  11.718  19.685  0.00  0.00    +0.000 S 
ATOM     23  O   UNL     1       1.608  12.560  18.734  0.00  0.00    +0.000 OA
BRANCH  22  24
ATOM     24  C   UNL     1       1.230  10.038  19.315  0.00  0.00    +0.000 A 
ATOM     25  C   UNL     1       1.280   9.063  20.310  0.00  0.00    +0.000 A 
ATOM     26  C   UNL     1       1.759   7.779  19.993  0.00  0.00    +0.000 A 
ATOM     27  C   UNL     1       2.208   7.469  18.694  0.00  0.00    +0.000 A 
ATOM     28  C   UNL     1       2.209   8.479  17.724  0.00  0.00    +0.000 A 
ATOM     29  C   UNL     1       1.731   9.753  18.034  0.00  0.00    +0.000 A 
BRANCH  27  30
ATOM     30  C   UNL     1       2.693   6.084  18.327  0.00  0.00    +0.000 C 
ATOM     31  F   UNL     1       3.108   5.351  19.397  0.00  0.00    +0.000 F 
ATOM     32  F   UNL     1       1.722   5.344  17.721  0.00  0.00    +0.000 F 
ATOM     33  F   UNL     1       3.741   6.106  17.458  0.00  0.00    +0.000 F 
ENDBRANCH  27  30
ENDBRANCH  22  24
ENDBRANCH   1  22
TORSDOF 3
ENDMDL
MODEL 5
REMARK VINA RESULT:      -7.5      4.269      5.759
REMARK  Name = 
REMARK  3 active torsions:
REMARK  status: ('A' for Active; 'I' for Inactive)
REMARK    1  A    between atoms: S_2  and  C_4
REMARK    2  A    between atoms: S_2  and  N_14
REMARK    3  A    between atoms: C_7  and  C_8
REMARK                            x       y       z     vdW  Elec       q    Type
REMARK                         _______ _______ _______ _____ _____    ______ ____
ROOT
ATOM      1  N   UNL     1       1.044  12.677  18.948  0.00  0.00    +0.000 N 
ATOM      2  C   UNL     1       2.259  12.412  18.326  0.00  0.00    +0.000 A 
ATOM      3  C   UNL     1       3.078  13.478  18.562  0.00  0.00    +0.000 A 
ATOM      4  C   UNL     1       2.305  14.394  19.315  0.00  0.00    +0.000 A 
ATOM      5  C   UNL     1       2.513  15.589  20.016  0.00  0.00    +0.000 A 
ATOM      6  N   UNL     1       3.011  16.730  19.410  0.00  0.00    +0.000 N 
ATOM      7  C   UNL     1       3.130  17.926  20.245  0.00  0.00    +0.000 C 
ATOM      8  C   UNL     1       4.550  17.966  20.832  0.00  0.00    +0.000 C 
ATOM      9  N   UNL     1       5.598  17.954  19.785  0.00  0.00    +0.000 NA
ATOM     10  C   UNL     1       5.406  16.798  18.879  0.00  0.00    +0.000 C 
ATOM     11  C   UNL     1       3.975  16.694  18.309  0.00  0.00    +0.000 C 
ATOM     12  N   UNL     1       1.666  15.702  21.081  0.00  0.00    +0.000 NA
ATOM     13  C   UNL     1       0.375  15.604  20.796  0.00  0.00    +0.000 A 
ATOM     14  C   UNL     1      -0.388  16.589  21.377  0.00  0.00    +0.000 A 
ATOM     15  C   UNL     1      -1.036  17.480  20.531  0.00  0.00    +0.000 A 
ATOM     16  C   UNL     1      -1.003  17.241  19.161  0.00  0.00    +0.000 A 
ATOM     17  C   UNL     1      -0.534  15.998  18.681  0.00  0.00    +0.000 A 
ATOM     18  C   UNL     1       0.003  15.031  19.573  0.00  0.00    +0.000 A 
ATOM     19  C   UNL     1       0.941  14.039  19.155  0.00  0.00    +0.000 A 
ATOM     20  H   UNL     1       6.510  17.879  20.232  0.00  0.00    +0.000 HD
ENDROOT
BRANCH   1  22
ATOM     21  O   UNL     1      -0.964  11.418  18.201  0.00  0.00    +0.000 OA
ATOM     22  S   UNL     1       0.031  11.359  19.273  0.00  0.00    +0.000 S 
ATOM     23  O   UNL     1      -0.371  11.592  20.649  0.00  0.00    +0.000 OA
BRANCH  22  24
ATOM     24  C   UNL     1       0.772   9.777  19.151  0.00  0.00    +0.000 A 
ATOM     25  C   UNL     1       1.088   9.025  20.282  0.00  0.00    +0.000 A 
ATOM     26  C   UNL     1       1.874   7.868  20.142  0.00  0.00    +0.000 A 
ATOM     27  C   UNL     1       2.364   7.468  18.883  0.00  0.00    +0.000 A 
ATOM     28  C   UNL     1       2.088   8.270  17.769  0.00  0.00    +0.000 A 
ATOM     29  C   UNL     1       1.305   9.417  17.903  0.00  0.00    +0.000 A 
BRANCH  27  30
ATOM     30  C   UNL     1       3.181   6.207  18.709  0.00  0.00    +0.000 C 
ATOM     31  F   UNL     1       3.716   5.740  19.871  0.00  0.00    +0.000 F 
ATOM     32  F   UNL     1       2.441   5.182  18.201  0.00  0.00    +0.000 F 
ATOM     33  F   UNL     1       4.228   6.371  17.853  0.00  0.00    +0.000 F 
ENDBRANCH  27  30
ENDBRANCH  22  24
ENDBRANCH   1  22
TORSDOF 3
ENDMDL
MODEL 6
REMARK VINA RESULT:      -7.5      4.195      5.759
REMARK  Name = 
REMARK  3 active torsions:
REMARK  status: ('A' for Active; 'I' for Inactive)
REMARK    1  A    between atoms: S_2  and  C_4
REMARK    2  A    between atoms: S_2  and  N_14
REMARK    3  A    between atoms: C_7  and  C_8
REMARK                            x       y       z     vdW  Elec       q    Type
REMARK                         _______ _______ _______ _____ _____    ______ ____
ROOT
ATOM      1  N   UNL     1       1.199  12.442  18.960  0.00  0.00    +0.000 N 
ATOM      2  C   UNL     1       2.354  12.297  18.201  0.00  0.00    +0.000 A 
ATOM      3  C   UNL     1       3.134  13.395  18.432  0.00  0.00    +0.000 A 
ATOM      4  C   UNL     1       2.394  14.205  19.325  0.00  0.00    +0.000 A 
ATOM      5  C   UNL     1       2.608  15.360  20.089  0.00  0.00    +0.000 A 
ATOM      6  N   UNL     1       2.974  16.570  19.523  0.00  0.00    +0.000 N 
ATOM      7  C   UNL     1       3.114  17.711  20.429  0.00  0.00    +0.000 C 
ATOM      8  C   UNL     1       4.584  17.800  20.871  0.00  0.00    +0.000 C 
ATOM      9  N   UNL     1       5.515  17.927  19.725  0.00  0.00    +0.000 NA
ATOM     10  C   UNL     1       5.293  16.826  18.759  0.00  0.00    +0.000 C 
ATOM     11  C   UNL     1       3.818  16.671  18.331  0.00  0.00    +0.000 C 
ATOM     12  N   UNL     1       1.872  15.346  21.240  0.00  0.00    +0.000 NA
ATOM     13  C   UNL     1       0.566  15.186  21.081  0.00  0.00    +0.000 A 
ATOM     14  C   UNL     1      -0.185  16.079  21.808  0.00  0.00    +0.000 A 
ATOM     15  C   UNL     1      -0.967  16.984  21.101  0.00  0.00    +0.000 A 
ATOM     16  C   UNL     1      -1.065  16.842  19.720  0.00  0.00    +0.000 A 
ATOM     17  C   UNL     1      -0.582  15.667  19.104  0.00  0.00    +0.000 A 
ATOM     18  C   UNL     1       0.100  14.676  19.862  0.00  0.00    +0.000 A 
ATOM     19  C   UNL     1       1.043  13.777  19.278  0.00  0.00    +0.000 A 
ATOM     20  H   UNL     1       6.471  17.879  20.071  0.00  0.00    +0.000 HD
ENDROOT
BRANCH   1  22
ATOM     21  O   UNL     1      -0.546  10.895  18.102  0.00  0.00    +0.000 OA
ATOM     22  S   UNL     1       0.302  11.043  19.286  0.00  0.00    +0.000 S 
ATOM     23  O   UNL     1      -0.299  11.337  20.576  0.00  0.00    +0.000 OA
BRANCH  22  24
ATOM     24  C   UNL     1       1.218   9.556  19.406  0.00  0.00    +0.000 A 
ATOM     25  C   UNL     1       1.776   8.945  18.284  0.00  0.00    +0.000 A 
ATOM     26  C   UNL     1       2.310   7.650  18.400  0.00  0.00    +0.000 A 
ATOM     27  C   UNL     1       2.272   6.952  19.624  0.00  0.00    +0.000 A 
ATOM     28  C   UNL     1       1.651   7.558  20.723  0.00  0.00    +0.000 A 
ATOM     29  C   UNL     1       1.123   8.845  20.613  0.00  0.00    +0.000 A 
BRANCH  27  30
ATOM     30  C   UNL     1       2.873   5.572  19.775  0.00  0.00    +0.000 C 
ATOM     31  F   UNL     1       2.470   4.923  20.902  0.00  0.00    +0.000 F 
ATOM     32  F   UNL     1       2.545   4.753  18.736  0.00  0.00    +0.000 F 
ATOM     33  F   UNL     1       4.234   5.592  19.819  0.00  0.00    +0.000 F 
ENDBRANCH  27  30
ENDBRANCH  22  24
ENDBRANCH   1  22
TORSDOF 3
ENDMDL
MODEL 7
REMARK VINA RESULT:      -7.5      1.038      1.629
REMARK  Name = 
REMARK  3 active torsions:
REMARK  status: ('A' for Active; 'I' for Inactive)
REMARK    1  A    between atoms: S_2  and  C_4
REMARK    2  A    between atoms: S_2  and  N_14
REMARK    3  A    between atoms: C_7  and  C_8
REMARK                            x       y       z     vdW  Elec       q    Type
REMARK                         _______ _______ _______ _____ _____    ______ ____
ROOT
ATOM      1  N   UNL     1      -0.834  11.333  19.854  0.00  0.00    +0.000 N 
ATOM      2  C   UNL     1      -1.511  10.821  18.754  0.00  0.00    +0.000 A 
ATOM      3  C   UNL     1      -2.692  11.499  18.650  0.00  0.00    +0.000 A 
ATOM      4  C   UNL     1      -2.707  12.405  19.737  0.00  0.00    +0.000 A 
ATOM      5  C   UNL     1      -3.491  13.481  20.174  0.00  0.00    +0.000 A 
ATOM      6  N   UNL     1      -4.842  13.355  20.448  0.00  0.00    +0.000 N 
ATOM      7  C   UNL     1      -5.532  14.545  20.947  0.00  0.00    +0.000 C 
ATOM      8  C   UNL     1      -6.138  15.291  19.747  0.00  0.00    +0.000 C 
ATOM      9  N   UNL     1      -7.064  14.443  18.960  0.00  0.00    +0.000 NA
ATOM     10  C   UNL     1      -6.389  13.190  18.549  0.00  0.00    +0.000 C 
ATOM     11  C   UNL     1      -5.722  12.438  19.721  0.00  0.00    +0.000 C 
ATOM     12  N   UNL     1      -2.746  14.404  20.850  0.00  0.00    +0.000 NA
ATOM     13  C   UNL     1      -2.062  13.939  21.886  0.00  0.00    +0.000 A 
ATOM     14  C   UNL     1      -2.195  14.708  23.018  0.00  0.00    +0.000 A 
ATOM     15  C   UNL     1      -2.811  14.127  24.118  0.00  0.00    +0.000 A 
ATOM     16  C   UNL     1      -3.119  12.771  24.070  0.00  0.00    +0.000 A 
ATOM     17  C   UNL     1      -2.593  11.973  23.030  0.00  0.00    +0.000 A 
ATOM     18  C   UNL     1      -1.843  12.558  21.974  0.00  0.00    +0.000 A 
ATOM     19  C   UNL     1      -1.744  11.962  20.681  0.00  0.00    +0.000 A 
ATOM     20  H   UNL     1      -7.352  14.955  18.128  0.00  0.00    +0.000 HD
ENDROOT
BRANCH   1  22
ATOM     21  O   UNL     1       1.232  11.726  21.179  0.00  0.00    +0.000 OA
ATOM     22  S   UNL     1       0.838  11.071  19.931  0.00  0.00    +0.000 S 
ATOM     23  O   UNL     1       1.306  11.593  18.659  0.00  0.00    +0.000 OA
BRANCH  22  24
ATOM     24  C   UNL     1       1.344   9.402  20.087  0.00  0.00    +0.000 A 
ATOM     25  C   UNL     1       1.938   8.713  19.030  0.00  0.00    +0.000 A 
ATOM     26  C   UNL     1       2.126   7.323  19.133  0.00  0.00    +0.000 A 
ATOM     27  C   UNL     1       1.704   6.614  20.275  0.00  0.00    +0.000 A 
ATOM     28  C   UNL     1       1.053   7.313  21.299  0.00  0.00    +0.000 A 
ATOM     29  C   UNL     1       0.869   8.693  21.202  0.00  0.00    +0.000 A 
BRANCH  27  30
ATOM     30  C   UNL     1       1.929   5.125  20.417  0.00  0.00    +0.000 C 
ATOM     31  F   UNL     1       0.798   4.385  20.255  0.00  0.00    +0.000 F 
ATOM     32  F   UNL     1       2.819   4.651  19.501  0.00  0.00    +0.000 F 
ATOM     33  F   UNL     1       2.430   4.781  21.636  0.00  0.00    +0.000 F 
ENDBRANCH  27  30
ENDBRANCH  22  24
ENDBRANCH   1  22
TORSDOF 3
ENDMDL
MODEL 8
REMARK VINA RESULT:      -7.4      2.493      4.021
REMARK  Name = 
REMARK  3 active torsions:
REMARK  status: ('A' for Active; 'I' for Inactive)
REMARK    1  A    between atoms: S_2  and  C_4
REMARK    2  A    between atoms: S_2  and  N_14
REMARK    3  A    between atoms: C_7  and  C_8
REMARK                            x       y       z     vdW  Elec       q    Type
REMARK                         _______ _______ _______ _____ _____    ______ ____
ROOT
ATOM      1  N   UNL     1       0.882  10.108  19.451  0.00  0.00    +0.000 N 
ATOM      2  C   UNL     1       0.384   9.272  20.444  0.00  0.00    +0.000 A 
ATOM      3  C   UNL     1      -0.518   9.994  21.171  0.00  0.00    +0.000 A 
ATOM      4  C   UNL     1      -0.518  11.289  20.599  0.00  0.00    +0.000 A 
ATOM      5  C   UNL     1      -1.266  12.468  20.713  0.00  0.00    +0.000 A 
ATOM      6  N   UNL     1      -1.396  13.154  21.909  0.00  0.00    +0.000 N 
ATOM      7  C   UNL     1      -2.161  14.401  21.879  0.00  0.00    +0.000 C 
ATOM      8  C   UNL     1      -3.622  14.080  22.235  0.00  0.00    +0.000 C 
ATOM      9  N   UNL     1      -3.753  13.420  23.555  0.00  0.00    +0.000 NA
ATOM     10  C   UNL     1      -2.891  12.216  23.615  0.00  0.00    +0.000 C 
ATOM     11  C   UNL     1      -1.425  12.488  23.212  0.00  0.00    +0.000 C 
ATOM     12  N   UNL     1      -1.311  13.152  19.532  0.00  0.00    +0.000 NA
ATOM     13  C   UNL     1      -0.135  13.453  19.000  0.00  0.00    +0.000 A 
ATOM     14  C   UNL     1      -0.041  14.762  18.588  0.00  0.00    +0.000 A 
ATOM     15  C   UNL     1       0.883  15.572  19.234  0.00  0.00    +0.000 A 
ATOM     16  C   UNL     1       1.759  14.988  20.145  0.00  0.00    +0.000 A 
ATOM     17  C   UNL     1       1.857  13.581  20.214  0.00  0.00    +0.000 A 
ATOM     18  C   UNL     1       0.995  12.754  19.443  0.00  0.00    +0.000 A 
ATOM     19  C   UNL     1       0.665  11.419  19.828  0.00  0.00    +0.000 A 
ATOM     20  H   UNL     1      -4.723  13.142  23.690  0.00  0.00    +0.000 HD
ENDROOT
BRANCH   1  22
ATOM     21  O   UNL     1       2.528  10.398  17.612  0.00  0.00    +0.000 OA
ATOM     22  S   UNL     1       1.605   9.375  18.107  0.00  0.00    +0.000 S 
ATOM     23  O   UNL     1       0.463   8.979  17.301  0.00  0.00    +0.000 OA
BRANCH  22  24
ATOM     24  C   UNL     1       2.589   7.966  18.439  0.00  0.00    +0.000 A 
ATOM     25  C   UNL     1       3.542   7.504  17.532  0.00  0.00    +0.000 A 
ATOM     26  C   UNL     1       4.147   6.253  17.746  0.00  0.00    +0.000 A 
ATOM     27  C   UNL     1       3.791   5.451  18.848  0.00  0.00    +0.000 A 
ATOM     28  C   UNL     1       2.787   5.903  19.713  0.00  0.00    +0.000 A 
ATOM     29  C   UNL     1       2.187   7.146  19.506  0.00  0.00    +0.000 A 
BRANCH  27  30
ATOM     30  C   UNL     1       4.457   4.118  19.112  0.00  0.00    +0.000 C 
ATOM     31  F   UNL     1       4.454   3.285  18.035  0.00  0.00    +0.000 F 
ATOM     32  F   UNL     1       5.764   4.260  19.471  0.00  0.00    +0.000 F 
ATOM     33  F   UNL     1       3.866   3.425  20.124  0.00  0.00    +0.000 F 
ENDBRANCH  27  30
ENDBRANCH  22  24
ENDBRANCH   1  22
TORSDOF 3
ENDMDL
MODEL 9
REMARK VINA RESULT:      -7.3      4.197      4.978
REMARK  Name = 
REMARK  3 active torsions:
REMARK  status: ('A' for Active; 'I' for Inactive)
REMARK    1  A    between atoms: S_2  and  C_4
REMARK    2  A    between atoms: S_2  and  N_14
REMARK    3  A    between atoms: C_7  and  C_8
REMARK                            x       y       z     vdW  Elec       q    Type
REMARK                         _______ _______ _______ _____ _____    ______ ____
ROOT
ATOM      1  N   UNL     1      -1.118  11.700  20.076  0.00  0.00    +0.000 N 
ATOM      2  C   UNL     1      -1.681  11.030  18.996  0.00  0.00    +0.000 A 
ATOM      3  C   UNL     1      -2.967  11.471  18.870  0.00  0.00    +0.000 A 
ATOM      4  C   UNL     1      -3.157  12.398  19.923  0.00  0.00    +0.000 A 
ATOM      5  C   UNL     1      -4.131  13.323  20.320  0.00  0.00    +0.000 A 
ATOM      6  N   UNL     1      -5.437  12.957  20.600  0.00  0.00    +0.000 N 
ATOM      7  C   UNL     1      -6.340  14.015  21.056  0.00  0.00    +0.000 C 
ATOM      8  C   UNL     1      -7.067  14.591  19.830  0.00  0.00    +0.000 C 
ATOM      9  N   UNL     1      -7.814  13.556  19.076  0.00  0.00    +0.000 NA
ATOM     10  C   UNL     1      -6.915  12.437  18.711  0.00  0.00    +0.000 C 
ATOM     11  C   UNL     1      -6.126  11.866  19.909  0.00  0.00    +0.000 C 
ATOM     12  N   UNL     1      -3.575  14.394  20.961  0.00  0.00    +0.000 NA
ATOM     13  C   UNL     1      -2.823  14.103  22.012  0.00  0.00    +0.000 A 
ATOM     14  C   UNL     1      -3.103  14.875  23.115  0.00  0.00    +0.000 A 
ATOM     15  C   UNL     1      -3.606  14.229  24.237  0.00  0.00    +0.000 A 
ATOM     16  C   UNL     1      -3.655  12.838  24.239  0.00  0.00    +0.000 A 
ATOM     17  C   UNL     1      -2.984  12.115  23.229  0.00  0.00    +0.000 A 
ATOM     18  C   UNL     1      -2.350  12.792  22.151  0.00  0.00    +0.000 A 
ATOM     19  C   UNL     1      -2.135  12.177  20.880  0.00  0.00    +0.000 A 
ATOM     20  H   UNL     1      -8.188  13.975  18.226  0.00  0.00    +0.000 HD
ENDROOT
BRANCH   1  22
ATOM     21  O   UNL     1       1.000  10.711  19.231  0.00  0.00    +0.000 OA
ATOM     22  S   UNL     1       0.573  11.758  20.161  0.00  0.00    +0.000 S 
ATOM     23  O   UNL     1       0.831  11.614  21.583  0.00  0.00    +0.000 OA
BRANCH  22  24
ATOM     24  C   UNL     1       1.317  13.236  19.589  0.00  0.00    +0.000 A 
ATOM     25  C   UNL     1       0.669  14.467  19.679  0.00  0.00    +0.000 A 
ATOM     26  C   UNL     1       1.210  15.581  19.013  0.00  0.00    +0.000 A 
ATOM     27  C   UNL     1       2.383  15.468  18.241  0.00  0.00    +0.000 A 
ATOM     28  C   UNL     1       2.985  14.211  18.112  0.00  0.00    +0.000 A 
ATOM     29  C   UNL     1       2.453  13.104  18.774  0.00  0.00    +0.000 A 
BRANCH  27  30
ATOM     30  C   UNL     1       2.999  16.663  17.547  0.00  0.00    +0.000 C 
ATOM     31  F   UNL     1       2.205  17.769  17.558  0.00  0.00    +0.000 F 
ATOM     32  F   UNL     1       4.174  17.042  18.124  0.00  0.00    +0.000 F 
ATOM     33  F   UNL     1       3.288  16.422  16.238  0.00  0.00    +0.000 F 
ENDBRANCH  27  30
ENDBRANCH  22  24
ENDBRANCH   1  22
TORSDOF 3
ENDMDL
