MODEL 1
REMARK VINA RESULT:      -6.9      0.000      0.000
REMARK  Name = 
REMARK  6 active torsions:
REMARK  status: ('A' for Active; 'I' for Inactive)
REMARK    1  A    between atoms: C_1  and  N_2
REMARK    2  A    between atoms: N_5  and  C_6
REMARK    3  A    between atoms: C_6  and  C_7
REMARK    4  A    between atoms: C_7  and  C_8
REMARK    5  A    between atoms: C_14  and  S_15
REMARK    6  A    between atoms: S_15  and  N_16
REMARK                            x       y       z     vdW  Elec       q    Type
REMARK                         _______ _______ _______ _____ _____    ______ ____
ROOT
ATOM      1  C   UNL     1       2.228   7.172  19.655  0.00  0.00    +0.000 C 
ATOM      2  O   UNL     1       2.284   7.791  18.593  0.00  0.00    +0.000 OA
ATOM      3  N   UNL     1       3.008   6.102  20.020  0.00  0.00    +0.000 N 
ATOM      4  C   UNL     1       3.996   5.504  19.287  0.00  0.00    +0.000 A 
ATOM      5  N   UNL     1       4.539   4.356  19.634  0.00  0.00    +0.000 NA
ATOM      6  N   UNL     1       5.496   3.941  18.728  0.00  0.00    +0.000 NA
ATOM      7  C   UNL     1       5.637   4.829  17.765  0.00  0.00    +0.000 A 
ATOM      8  S   UNL     1       4.656   6.210  17.883  0.00  0.00    +0.000 S 
ATOM      9  H   UNL     1       2.711   5.566  20.834  0.00  0.00    +0.000 HD
ENDROOT
BRANCH   7  10
ATOM     10  S   UNL     1       6.738   4.676  16.405  0.00  0.00    +0.000 S 
ATOM     11  O   UNL     1       6.510   5.834  15.571  0.00  0.00    +0.000 OA
ATOM     12  O   UNL     1       8.028   4.349  16.971  0.00  0.00    +0.000 OA
BRANCH  10  13
ATOM     13  N   UNL     1       6.247   3.329  15.508  0.00  0.00    +0.000 NA
ATOM     14  H   UNL     1       6.754   3.271  14.625  0.00  0.00    +0.000 HD
ATOM     15  H   UNL     1       5.234   3.316  15.396  0.00  0.00    +0.000 HD
ENDBRANCH  10  13
ENDBRANCH   7  10
BRANCH   1  16
ATOM     16  C   UNL     1       1.269   7.621  20.746  0.00  0.00    +0.000 C 
BRANCH  16  17
ATOM     17  C   UNL     1       0.770   9.059  20.584  0.00  0.00    +0.000 C 
BRANCH  17  22
ATOM     18  C   UNL     1      -2.340  11.773  23.157  0.00  0.00    +0.000 C 
ATOM     19  N   UNL     1      -0.939  11.435  22.942  0.00  0.00    +0.000 NA
ATOM     20  C   UNL     1      -0.518  11.786  21.577  0.00  0.00    +0.000 C 
ATOM     21  C   UNL     1       0.957  11.416  21.336  0.00  0.00    +0.000 C 
ATOM     22  N   UNL     1       1.304   9.997  21.594  0.00  0.00    +0.000 NA
ATOM     23  C   UNL     1       0.806   9.644  22.949  0.00  0.00    +0.000 C 
ATOM     24  C   UNL     1      -0.676  10.011  23.210  0.00  0.00    +0.000 C 
ENDBRANCH  17  22
ENDBRANCH  16  17
ENDBRANCH   1  16
TORSDOF 5
ENDMDL
MODEL 2
REMARK VINA RESULT:      -6.8      6.765      8.238
REMARK  Name = 
REMARK  6 active torsions:
REMARK  status: ('A' for Active; 'I' for Inactive)
REMARK    1  A    between atoms: C_1  and  N_2
REMARK    2  A    between atoms: N_5  and  C_6
REMARK    3  A    between atoms: C_6  and  C_7
REMARK    4  A    between atoms: C_7  and  C_8
REMARK    5  A    between atoms: C_14  and  S_15
REMARK    6  A    between atoms: S_15  and  N_16
REMARK                            x       y       z     vdW  Elec       q    Type
REMARK                         _______ _______ _______ _____ _____    ______ ____
ROOT
ATOM      1  C   UNL     1       8.377   9.003  18.374  0.00  0.00    +0.000 C 
ATOM      2  O   UNL     1       7.498   9.431  17.627  0.00  0.00    +0.000 OA
ATOM      3  N   UNL     1       8.511   7.713  18.825  0.00  0.00    +0.000 N 
ATOM      4  C   UNL     1       7.701   6.645  18.546  0.00  0.00    +0.000 A 
ATOM      5  N   UNL     1       7.788   5.503  19.193  0.00  0.00    +0.000 NA
ATOM      6  N   UNL     1       6.853   4.586  18.753  0.00  0.00    +0.000 NA
ATOM      7  C   UNL     1       6.138   5.091  17.768  0.00  0.00    +0.000 A 
ATOM      8  S   UNL     1       6.538   6.673  17.299  0.00  0.00    +0.000 S 
ATOM      9  H   UNL     1       9.158   7.554  19.595  0.00  0.00    +0.000 HD
ENDROOT
BRANCH   7  10
ATOM     10  S   UNL     1       4.832   4.258  16.939  0.00  0.00    +0.000 S 
ATOM     11  O   UNL     1       3.635   5.020  17.209  0.00  0.00    +0.000 OA
ATOM     12  O   UNL     1       5.316   3.989  15.603  0.00  0.00    +0.000 OA
BRANCH  10  13
ATOM     13  N   UNL     1       4.633   2.758  17.694  0.00  0.00    +0.000 NA
ATOM     14  H   UNL     1       3.863   2.784  18.363  0.00  0.00    +0.000 HD
ATOM     15  H   UNL     1       5.511   2.434  18.098  0.00  0.00    +0.000 HD
ENDBRANCH  10  13
ENDBRANCH   7  10
BRANCH   1  16
ATOM     16  C   UNL     1       9.499   9.922  18.830  0.00  0.00    +0.000 C 
BRANCH  16  17
ATOM     17  C   UNL     1       9.571  11.245  18.065  0.00  0.00    +0.000 C 
BRANCH  17  22
ATOM     18  C   UNL     1      11.415  15.331  19.954  0.00  0.00    +0.000 C 
ATOM     19  N   UNL     1      11.674  14.188  19.088  0.00  0.00    +0.000 NA
ATOM     20  C   UNL     1      10.762  14.186  17.935  0.00  0.00    +0.000 C 
ATOM     21  C   UNL     1      11.016  12.972  17.023  0.00  0.00    +0.000 C 
ATOM     22  N   UNL     1      10.943  11.651  17.693  0.00  0.00    +0.000 NA
ATOM     23  C   UNL     1      11.816  11.699  18.895  0.00  0.00    +0.000 C 
ATOM     24  C   UNL     1      11.575  12.915  19.823  0.00  0.00    +0.000 C 
ENDBRANCH  17  22
ENDBRANCH  16  17
ENDBRANCH   1  16
TORSDOF 5
ENDMDL
MODEL 3
REMARK VINA RESULT:      -6.7      6.737      8.143
REMARK  Name = 
REMARK  6 active torsions:
REMARK  status: ('A' for Active; 'I' for Inactive)
REMARK    1  A    between atoms: C_1  and  N_2
REMARK    2  A    between atoms: N_5  and  C_6
REMARK    3  A    between atoms: C_6  and  C_7
REMARK    4  A    between atoms: C_7  and  C_8
REMARK    5  A    between atoms: C_14  and  S_15
REMARK    6  A    between atoms: S_15  and  N_16
REMARK                            x       y       z     vdW  Elec       q    Type
REMARK                         _______ _______ _______ _____ _____    ______ ____
ROOT
ATOM      1  C   UNL     1       8.457   9.045  18.491  0.00  0.00    +0.000 C 
ATOM      2  O   UNL     1       7.693   9.437  17.610  0.00  0.00    +0.000 OA
ATOM      3  N   UNL     1       8.583   7.757  18.950  0.00  0.00    +0.000 N 
ATOM      4  C   UNL     1       7.891   6.652  18.533  0.00  0.00    +0.000 A 
ATOM      5  N   UNL     1       7.930   5.506  19.179  0.00  0.00    +0.000 NA
ATOM      6  N   UNL     1       7.133   4.548  18.583  0.00  0.00    +0.000 NA
ATOM      7  C   UNL     1       6.565   5.030  17.496  0.00  0.00    +0.000 A 
ATOM      8  S   UNL     1       6.952   6.638  17.111  0.00  0.00    +0.000 S 
ATOM      9  H   UNL     1       9.101   7.620  19.816  0.00  0.00    +0.000 HD
ENDROOT
BRANCH   7  10
ATOM     10  S   UNL     1       5.463   4.142  16.456  0.00  0.00    +0.000 S 
ATOM     11  O   UNL     1       4.458   5.091  16.033  0.00  0.00    +0.000 OA
ATOM     12  O   UNL     1       6.294   3.405  15.531  0.00  0.00    +0.000 OA
BRANCH  10  13
ATOM     13  N   UNL     1       4.674   2.998  17.418  0.00  0.00    +0.000 NA
ATOM     14  H   UNL     1       5.267   2.184  17.581  0.00  0.00    +0.000 HD
ATOM     15  H   UNL     1       3.760   2.763  17.031  0.00  0.00    +0.000 HD
ENDBRANCH  10  13
ENDBRANCH   7  10
BRANCH   1  16
ATOM     16  C   UNL     1       9.436  10.014  19.134  0.00  0.00    +0.000 C 
BRANCH  16  17
ATOM     17  C   UNL     1       9.910  11.130  18.200  0.00  0.00    +0.000 C 
BRANCH  17  22
ATOM     18  C   UNL     1      10.204  15.928  17.453  0.00  0.00    +0.000 C 
ATOM     19  N   UNL     1      10.856  14.765  18.042  0.00  0.00    +0.000 NA
ATOM     20  C   UNL     1      11.199  13.777  17.008  0.00  0.00    +0.000 C 
ATOM     21  C   UNL     1      11.872  12.536  17.623  0.00  0.00    +0.000 C 
ATOM     22  N   UNL     1      11.098  11.861  18.693  0.00  0.00    +0.000 NA
ATOM     23  C   UNL     1      10.701  12.890  19.689  0.00  0.00    +0.000 C 
ATOM     24  C   UNL     1      10.023  14.146  19.088  0.00  0.00    +0.000 C 
ENDBRANCH  17  22
ENDBRANCH  16  17
ENDBRANCH   1  16
TORSDOF 5
ENDMDL
MODEL 4
REMARK VINA RESULT:      -6.6      2.005      2.532
REMARK  Name = 
REMARK  6 active torsions:
REMARK  status: ('A' for Active; 'I' for Inactive)
REMARK    1  A    between atoms: C_1  and  N_2
REMARK    2  A    between atoms: N_5  and  C_6
REMARK    3  A    between atoms: C_6  and  C_7
REMARK    4  A    between atoms: C_7  and  C_8
REMARK    5  A    between atoms: C_14  and  S_15
REMARK    6  A    between atoms: S_15  and  N_16
REMARK                            x       y       z     vdW  Elec       q    Type
REMARK                         _______ _______ _______ _____ _____    ______ ____
ROOT
ATOM      1  C   UNL     1       1.904   8.807  18.278  0.00  0.00    +0.000 C 
ATOM      2  O   UNL     1       2.495   8.592  17.221  0.00  0.00    +0.000 OA
ATOM      3  N   UNL     1       1.842   7.972  19.366  0.00  0.00    +0.000 N 
ATOM      4  C   UNL     1       2.414   6.736  19.500  0.00  0.00    +0.000 A 
ATOM      5  N   UNL     1       2.122   5.925  20.494  0.00  0.00    +0.000 NA
ATOM      6  N   UNL     1       2.806   4.728  20.404  0.00  0.00    +0.000 NA
ATOM      7  C   UNL     1       3.603   4.729  19.354  0.00  0.00    +0.000 A 
ATOM      8  S   UNL     1       3.599   6.149  18.424  0.00  0.00    +0.000 S 
ATOM      9  H   UNL     1       1.151   8.190  20.082  0.00  0.00    +0.000 HD
ENDROOT
BRANCH   7  10
ATOM     10  S   UNL     1       4.635   3.392  18.870  0.00  0.00    +0.000 S 
ATOM     11  O   UNL     1       4.799   2.566  20.044  0.00  0.00    +0.000 OA
ATOM     12  O   UNL     1       4.090   2.899  17.625  0.00  0.00    +0.000 OA
BRANCH  10  13
ATOM     13  N   UNL     1       6.157   4.035  18.512  0.00  0.00    +0.000 NA
ATOM     14  H   UNL     1       6.812   3.877  19.279  0.00  0.00    +0.000 HD
ATOM     15  H   UNL     1       6.085   5.014  18.238  0.00  0.00    +0.000 HD
ENDBRANCH  10  13
ENDBRANCH   7  10
BRANCH   1  16
ATOM     16  C   UNL     1       1.204  10.139  18.499  0.00  0.00    +0.000 C 
BRANCH  16  17
ATOM     17  C   UNL     1       0.329  10.182  19.754  0.00  0.00    +0.000 C 
BRANCH  17  22
ATOM     18  C   UNL     1      -2.354  11.898  23.431  0.00  0.00    +0.000 C 
ATOM     19  N   UNL     1      -1.001  11.647  22.950  0.00  0.00    +0.000 NA
ATOM     20  C   UNL     1      -0.723  12.429  21.736  0.00  0.00    +0.000 C 
ATOM     21  C   UNL     1       0.698  12.157  21.210  0.00  0.00    +0.000 C 
ATOM     22  N   UNL     1       1.012  10.732  20.945  0.00  0.00    +0.000 NA
ATOM     23  C   UNL     1       0.656   9.951  22.158  0.00  0.00    +0.000 C 
ATOM     24  C   UNL     1      -0.770  10.214  22.702  0.00  0.00    +0.000 C 
ENDBRANCH  17  22
ENDBRANCH  16  17
ENDBRANCH   1  16
TORSDOF 5
ENDMDL
MODEL 5
REMARK VINA RESULT:      -6.6      6.045      7.720
REMARK  Name = 
REMARK  6 active torsions:
REMARK  status: ('A' for Active; 'I' for Inactive)
REMARK    1  A    between atoms: C_1  and  N_2
REMARK    2  A    between atoms: N_5  and  C_6
REMARK    3  A    between atoms: C_6  and  C_7
REMARK    4  A    between atoms: C_7  and  C_8
REMARK    5  A    between atoms: C_14  and  S_15
REMARK    6  A    between atoms: S_15  and  N_16
REMARK                            x       y       z     vdW  Elec       q    Type
REMARK                         _______ _______ _______ _____ _____    ______ ____
ROOT
ATOM      1  C   UNL     1       7.467   7.325  18.038  0.00  0.00    +0.000 C 
ATOM      2  O   UNL     1       7.980   6.698  18.964  0.00  0.00    +0.000 OA
ATOM      3  N   UNL     1       6.312   6.999  17.370  0.00  0.00    +0.000 N 
ATOM      4  C   UNL     1       5.502   5.918  17.587  0.00  0.00    +0.000 A 
ATOM      5  N   UNL     1       4.539   5.577  16.758  0.00  0.00    +0.000 NA
ATOM      6  N   UNL     1       3.875   4.439  17.175  0.00  0.00    +0.000 NA
ATOM      7  C   UNL     1       4.365   4.012  18.321  0.00  0.00    +0.000 A 
ATOM      8  S   UNL     1       5.628   4.938  18.976  0.00  0.00    +0.000 S 
ATOM      9  H   UNL     1       6.123   7.492  16.499  0.00  0.00    +0.000 HD
ENDROOT
BRANCH   7  10
ATOM     10  S   UNL     1       3.812   2.585  19.185  0.00  0.00    +0.000 S 
ATOM     11  O   UNL     1       2.932   3.063  20.227  0.00  0.00    +0.000 OA
ATOM     12  O   UNL     1       3.401   1.640  18.171  0.00  0.00    +0.000 OA
BRANCH  10  13
ATOM     13  N   UNL     1       5.157   1.913  19.958  0.00  0.00    +0.000 NA
ATOM     14  H   UNL     1       5.711   2.633  20.424  0.00  0.00    +0.000 HD
ATOM     15  H   UNL     1       5.700   1.339  19.313  0.00  0.00    +0.000 HD
ENDBRANCH  10  13
ENDBRANCH   7  10
BRANCH   1  16
ATOM     16  C   UNL     1       8.080   8.639  17.579  0.00  0.00    +0.000 C 
BRANCH  16  17
ATOM     17  C   UNL     1       9.009   9.286  18.608  0.00  0.00    +0.000 C 
BRANCH  17  22
ATOM     18  C   UNL     1      12.333  12.822  18.945  0.00  0.00    +0.000 C 
ATOM     19  N   UNL     1      10.922  12.487  19.087  0.00  0.00    +0.000 NA
ATOM     20  C   UNL     1      10.727  11.476  20.138  0.00  0.00    +0.000 C 
ATOM     21  C   UNL     1       9.241  11.102  20.283  0.00  0.00    +0.000 C 
ATOM     22  N   UNL     1       8.581  10.634  19.040  0.00  0.00    +0.000 NA
ATOM     23  C   UNL     1       8.852  11.634  17.974  0.00  0.00    +0.000 C 
ATOM     24  C   UNL     1      10.342  12.023  17.815  0.00  0.00    +0.000 C 
ENDBRANCH  17  22
ENDBRANCH  16  17
ENDBRANCH   1  16
TORSDOF 5
ENDMDL
MODEL 6
REMARK VINA RESULT:      -6.6      1.329      1.593
REMARK  Name = 
REMARK  6 active torsions:
REMARK  status: ('A' for Active; 'I' for Inactive)
REMARK    1  A    between atoms: C_1  and  N_2
REMARK    2  A    between atoms: N_5  and  C_6
REMARK    3  A    between atoms: C_6  and  C_7
REMARK    4  A    between atoms: C_7  and  C_8
REMARK    5  A    between atoms: C_14  and  S_15
REMARK    6  A    between atoms: S_15  and  N_16
REMARK                            x       y       z     vdW  Elec       q    Type
REMARK                         _______ _______ _______ _____ _____    ______ ____
ROOT
ATOM      1  C   UNL     1       1.933   8.656  18.169  0.00  0.00    +0.000 C 
ATOM      2  O   UNL     1       2.408   8.956  17.075  0.00  0.00    +0.000 OA
ATOM      3  N   UNL     1       2.337   7.626  18.982  0.00  0.00    +0.000 N 
ATOM      4  C   UNL     1       3.338   6.723  18.747  0.00  0.00    +0.000 A 
ATOM      5  N   UNL     1       3.509   5.647  19.484  0.00  0.00    +0.000 NA
ATOM      6  N   UNL     1       4.567   4.877  19.040  0.00  0.00    +0.000 NA
ATOM      7  C   UNL     1       5.152   5.448  18.006  0.00  0.00    +0.000 A 
ATOM      8  S   UNL     1       4.493   6.932  17.510  0.00  0.00    +0.000 S 
ATOM      9  H   UNL     1       1.721   7.372  19.753  0.00  0.00    +0.000 HD
ENDROOT
BRANCH   7  10
ATOM     10  S   UNL     1       6.526   4.788  17.133  0.00  0.00    +0.000 S 
ATOM     11  O   UNL     1       7.469   4.356  18.139  0.00  0.00    +0.000 OA
ATOM     12  O   UNL     1       5.975   3.904  16.132  0.00  0.00    +0.000 OA
BRANCH  10  13
ATOM     13  N   UNL     1       7.256   6.067  16.302  0.00  0.00    +0.000 NA
ATOM     14  H   UNL     1       7.960   6.527  16.881  0.00  0.00    +0.000 HD
ATOM     15  H   UNL     1       6.555   6.708  15.931  0.00  0.00    +0.000 HD
ENDBRANCH  10  13
ENDBRANCH   7  10
BRANCH   1  16
ATOM     16  C   UNL     1       0.829   9.507  18.777  0.00  0.00    +0.000 C 
BRANCH  16  17
ATOM     17  C   UNL     1       0.448   9.107  20.205  0.00  0.00    +0.000 C 
BRANCH  17  22
ATOM     18  C   UNL     1      -2.013  11.930  23.309  0.00  0.00    +0.000 C 
ATOM     19  N   UNL     1      -0.700  11.422  22.935  0.00  0.00    +0.000 NA
ATOM     20  C   UNL     1      -0.334  11.861  21.580  0.00  0.00    +0.000 C 
ATOM     21  C   UNL     1       1.046  11.313  21.170  0.00  0.00    +0.000 C 
ATOM     22  N   UNL     1       1.192   9.840  21.252  0.00  0.00    +0.000 NA
ATOM     23  C   UNL     1       0.749   9.410  22.604  0.00  0.00    +0.000 C 
ATOM     24  C   UNL     1      -0.636   9.953  23.034  0.00  0.00    +0.000 C 
ENDBRANCH  17  22
ENDBRANCH  16  17
ENDBRANCH   1  16
TORSDOF 5
ENDMDL
MODEL 7
REMARK VINA RESULT:      -6.6      1.523      2.202
REMARK  Name = 
REMARK  6 active torsions:
REMARK  status: ('A' for Active; 'I' for Inactive)
REMARK    1  A    between atoms: C_1  and  N_2
REMARK    2  A    between atoms: N_5  and  C_6
REMARK    3  A    between atoms: C_6  and  C_7
REMARK    4  A    between atoms: C_7  and  C_8
REMARK    5  A    between atoms: C_14  and  S_15
REMARK    6  A    between atoms: S_15  and  N_16
REMARK                            x       y       z     vdW  Elec       q    Type
REMARK                         _______ _______ _______ _____ _____    ______ ____
ROOT
ATOM      1  C   UNL     1       2.164   7.253  19.798  0.00  0.00    +0.000 C 
ATOM      2  O   UNL     1       2.282   7.924  18.774  0.00  0.00    +0.000 OA
ATOM      3  N   UNL     1       2.878   6.126  20.125  0.00  0.00    +0.000 N 
ATOM      4  C   UNL     1       3.854   5.516  19.385  0.00  0.00    +0.000 A 
ATOM      5  N   UNL     1       4.328   4.325  19.682  0.00  0.00    +0.000 NA
ATOM      6  N   UNL     1       5.287   3.908  18.779  0.00  0.00    +0.000 NA
ATOM      7  C   UNL     1       5.499   4.837  17.869  0.00  0.00    +0.000 A 
ATOM      8  S   UNL     1       4.588   6.259  18.038  0.00  0.00    +0.000 S 
ATOM      9  H   UNL     1       2.532   5.564  20.901  0.00  0.00    +0.000 HD
ENDROOT
BRANCH   7  10
ATOM     10  S   UNL     1       6.629   4.698  16.531  0.00  0.00    +0.000 S 
ATOM     11  O   UNL     1       6.121   3.641  15.686  0.00  0.00    +0.000 OA
ATOM     12  O   UNL     1       6.859   6.045  16.062  0.00  0.00    +0.000 OA
BRANCH  10  13
ATOM     13  N   UNL     1       8.096   4.148  17.166  0.00  0.00    +0.000 NA
ATOM     14  H   UNL     1       8.768   4.911  17.252  0.00  0.00    +0.000 HD
ATOM     15  H   UNL     1       8.450   3.354  16.632  0.00  0.00    +0.000 HD
ENDBRANCH  10  13
ENDBRANCH   7  10
BRANCH   1  16
ATOM     16  C   UNL     1       1.200   7.694  20.888  0.00  0.00    +0.000 C 
BRANCH  16  17
ATOM     17  C   UNL     1       1.130   9.211  21.082  0.00  0.00    +0.000 C 
BRANCH  17  22
ATOM     18  C   UNL     1       0.850  13.724  19.289  0.00  0.00    +0.000 C 
ATOM     19  N   UNL     1       0.092  12.550  19.704  0.00  0.00    +0.000 NA
ATOM     20  C   UNL     1       0.294  12.274  21.134  0.00  0.00    +0.000 C 
ATOM     21  C   UNL     1      -0.489  11.024  21.577  0.00  0.00    +0.000 C 
ATOM     22  N   UNL     1      -0.201   9.791  20.805  0.00  0.00    +0.000 NA
ATOM     23  C   UNL     1      -0.341  10.112  19.360  0.00  0.00    +0.000 C 
ATOM     24  C   UNL     1       0.439  11.367  18.898  0.00  0.00    +0.000 C 
ENDBRANCH  17  22
ENDBRANCH  16  17
ENDBRANCH   1  16
TORSDOF 5
ENDMDL
MODEL 8
REMARK VINA RESULT:      -6.5      3.607      8.162
REMARK  Name = 
REMARK  6 active torsions:
REMARK  status: ('A' for Active; 'I' for Inactive)
REMARK    1  A    between atoms: C_1  and  N_2
REMARK    2  A    between atoms: N_5  and  C_6
REMARK    3  A    between atoms: C_6  and  C_7
REMARK    4  A    between atoms: C_7  and  C_8
REMARK    5  A    between atoms: C_14  and  S_15
REMARK    6  A    between atoms: S_15  and  N_16
REMARK                            x       y       z     vdW  Elec       q    Type
REMARK                         _______ _______ _______ _____ _____    ______ ____
ROOT
ATOM      1  C   UNL     1       2.549   7.991  18.149  0.00  0.00    +0.000 C 
ATOM      2  O   UNL     1       2.297   9.000  17.492  0.00  0.00    +0.000 OA
ATOM      3  N   UNL     1       2.183   7.750  19.450  0.00  0.00    +0.000 N 
ATOM      4  C   UNL     1       1.473   8.572  20.282  0.00  0.00    +0.000 A 
ATOM      5  N   UNL     1       1.356   8.345  21.573  0.00  0.00    +0.000 NA
ATOM      6  N   UNL     1       0.615   9.324  22.206  0.00  0.00    +0.000 NA
ATOM      7  C   UNL     1       0.188  10.216  21.336  0.00  0.00    +0.000 A 
ATOM      8  S   UNL     1       0.628   9.942  19.719  0.00  0.00    +0.000 S 
ATOM      9  H   UNL     1       2.636   6.970  19.925  0.00  0.00    +0.000 HD
ENDROOT
BRANCH   7  10
ATOM     10  S   UNL     1      -0.774  11.632  21.732  0.00  0.00    +0.000 S 
ATOM     11  O   UNL     1       0.167  12.665  22.103  0.00  0.00    +0.000 OA
ATOM     12  O   UNL     1      -1.729  11.779  20.657  0.00  0.00    +0.000 OA
BRANCH  10  13
ATOM     13  N   UNL     1      -1.662  11.263  23.123  0.00  0.00    +0.000 NA
ATOM     14  H   UNL     1      -1.389  11.863  23.903  0.00  0.00    +0.000 HD
ATOM     15  H   UNL     1      -1.606  10.268  23.339  0.00  0.00    +0.000 HD
ENDBRANCH  10  13
ENDBRANCH   7  10
BRANCH   1  16
ATOM     16  C   UNL     1       3.279   6.825  17.500  0.00  0.00    +0.000 C 
BRANCH  16  17
ATOM     17  C   UNL     1       3.587   5.673  18.460  0.00  0.00    +0.000 C 
BRANCH  17  22
ATOM     18  C   UNL     1       1.546   2.595  21.626  0.00  0.00    +0.000 C 
ATOM     19  N   UNL     1       1.926   2.805  20.235  0.00  0.00    +0.000 NA
ATOM     20  C   UNL     1       3.383   2.966  20.109  0.00  0.00    +0.000 C 
ATOM     21  C   UNL     1       3.793   3.207  18.644  0.00  0.00    +0.000 C 
ATOM     22  N   UNL     1       3.125   4.352  17.980  0.00  0.00    +0.000 NA
ATOM     23  C   UNL     1       1.659   4.207  18.182  0.00  0.00    +0.000 C 
ATOM     24  C   UNL     1       1.229   3.963  19.649  0.00  0.00    +0.000 C 
ENDBRANCH  17  22
ENDBRANCH  16  17
ENDBRANCH   1  16
TORSDOF 5
ENDMDL
MODEL 9
REMARK VINA RESULT:      -6.5      3.679      8.637
REMARK  Name = 
REMARK  6 active torsions:
REMARK  status: ('A' for Active; 'I' for Inactive)
REMARK    1  A    between atoms: C_1  and  N_2
REMARK    2  A    between atoms: N_5  and  C_6
REMARK    3  A    between atoms: C_6  and  C_7
REMARK    4  A    between atoms: C_7  and  C_8
REMARK    5  A    between atoms: C_14  and  S_15
REMARK    6  A    between atoms: S_15  and  N_16
REMARK                            x       y       z     vdW  Elec       q    Type
REMARK                         _______ _______ _______ _____ _____    ______ ____
ROOT
ATOM      1  C   UNL     1       2.329   5.770  19.784  0.00  0.00    +0.000 C 
ATOM      2  O   UNL     1       1.766   5.599  20.864  0.00  0.00    +0.000 OA
ATOM      3  N   UNL     1       2.395   6.942  19.072  0.00  0.00    +0.000 N 
ATOM      4  C   UNL     1       1.849   8.151  19.407  0.00  0.00    +0.000 A 
ATOM      5  N   UNL     1       1.783   9.158  18.562  0.00  0.00    +0.000 NA
ATOM      6  N   UNL     1       1.170  10.263  19.119  0.00  0.00    +0.000 NA
ATOM      7  C   UNL     1       0.841  10.026  20.373  0.00  0.00    +0.000 A 
ATOM      8  S   UNL     1       1.249   8.489  20.967  0.00  0.00    +0.000 S 
ATOM      9  H   UNL     1       2.712   6.883  18.106  0.00  0.00    +0.000 HD
ENDROOT
BRANCH   7  10
ATOM     10  S   UNL     1       0.027  11.165  21.435  0.00  0.00    +0.000 S 
ATOM     11  O   UNL     1       0.925  12.288  21.581  0.00  0.00    +0.000 OA
ATOM     12  O   UNL     1      -1.321  11.289  20.927  0.00  0.00    +0.000 OA
BRANCH  10  13
ATOM     13  N   UNL     1      -0.092  10.438  22.956  0.00  0.00    +0.000 NA
ATOM     14  H   UNL     1       0.078  11.115  23.701  0.00  0.00    +0.000 HD
ATOM     15  H   UNL     1       0.504   9.613  23.014  0.00  0.00    +0.000 HD
ENDBRANCH  10  13
ENDBRANCH   7  10
BRANCH   1  16
ATOM     16  C   UNL     1       3.109   4.631  19.145  0.00  0.00    +0.000 C 
BRANCH  16  17
ATOM     17  C   UNL     1       3.723   4.982  17.788  0.00  0.00    +0.000 C 
BRANCH  17  22
ATOM     18  C   UNL     1       6.954   4.780  14.157  0.00  0.00    +0.000 C 
ATOM     19  N   UNL     1       6.633   5.387  15.443  0.00  0.00    +0.000 NA
ATOM     20  C   UNL     1       6.560   4.366  16.500  0.00  0.00    +0.000 C 
ATOM     21  C   UNL     1       6.203   4.996  17.859  0.00  0.00    +0.000 C 
ATOM     22  N   UNL     1       4.954   5.796  17.878  0.00  0.00    +0.000 NA
ATOM     23  C   UNL     1       5.018   6.771  16.758  0.00  0.00    +0.000 C 
ATOM     24  C   UNL     1       5.378   6.155  15.383  0.00  0.00    +0.000 C 
ENDBRANCH  17  22
ENDBRANCH  16  17
ENDBRANCH   1  16
TORSDOF 5
ENDMDL
