MODEL 1
REMARK VINA RESULT:      -7.6      0.000      0.000
REMARK  Name = 
REMARK  7 active torsions:
REMARK  status: ('A' for Active; 'I' for Inactive)
REMARK    1  A    between atoms: C_1  and  N_2
REMARK    2  A    between atoms: C_4  and  C_5
REMARK    3  A    between atoms: C_7  and  S_8
REMARK    4  A    between atoms: S_8  and  C_9
REMARK    5  A    between atoms: C_14  and  O_15
REMARK    6  A    between atoms: O_15  and  C_16
REMARK    7  A    between atoms: C_16  and  C_17
REMARK                            x       y       z     vdW  Elec       q    Type
REMARK                         _______ _______ _______ _____ _____    ______ ____
ROOT
ATOM      1  C   UNL     1       3.152   6.904  18.250  0.00  0.00    +0.000 A 
ATOM      2  C   UNL     1       4.546   7.150  18.101  0.00  0.00    +0.000 A 
ATOM      3  C   UNL     1       5.443   6.178  17.651  0.00  0.00    +0.000 A 
ATOM      4  C   UNL     1       5.006   4.889  17.419  0.00  0.00    +0.000 A 
ATOM      5  C   UNL     1       3.653   4.602  17.607  0.00  0.00    +0.000 A 
ATOM      6  C   UNL     1       2.709   5.592  17.967  0.00  0.00    +0.000 A 
ENDROOT
BRANCH   1  10
ATOM      7  C   UNL     1       2.224  11.632  17.573  0.00  0.00    +0.000 C 
ATOM      8  N   UNL     1       1.839  10.432  18.291  0.00  0.00    +0.000 N 
ATOM      9  C   UNL     1       2.421   9.211  17.946  0.00  0.00    +0.000 A 
ATOM     10  C   UNL     1       2.350   8.088  18.725  0.00  0.00    +0.000 A 
ATOM     11  C   UNL     1       1.542   8.184  19.910  0.00  0.00    +0.000 A 
ATOM     12  C   UNL     1       1.239   7.294  20.962  0.00  0.00    +0.000 A 
ATOM     13  C   UNL     1       0.236   7.881  21.710  0.00  0.00    +0.000 A 
ATOM     14  N   UNL     1       0.037   9.152  21.234  0.00  0.00    +0.000 N 
ATOM     15  C   UNL     1       0.853   9.356  20.156  0.00  0.00    +0.000 A 
ATOM     16  C   UNL     1       0.990  10.572  19.395  0.00  0.00    +0.000 A 
ATOM     17  O   UNL     1       0.435  11.621  19.709  0.00  0.00    +0.000 OA
ATOM     18  H   UNL     1      -0.616   9.838  21.598  0.00  0.00    +0.000 HD
ENDBRANCH   1  10
BRANCH   3  19
ATOM     19  S   UNL     1       7.100   6.673  17.237  0.00  0.00    +0.000 S 
ATOM     20  C   UNL     1       8.049   6.245  18.668  0.00  0.00    +0.000 C 
ATOM     21  O   UNL     1       7.541   5.844  16.132  0.00  0.00    +0.000 OA
ATOM     22  O   UNL     1       7.093   8.120  17.120  0.00  0.00    +0.000 OA
ENDBRANCH   3  19
BRANCH   6  23
ATOM     23  O   UNL     1       1.449   5.051  17.994  0.00  0.00    +0.000 OA
BRANCH  23  24
ATOM     24  C   UNL     1       1.265   3.649  17.855  0.00  0.00    +0.000 C 
BRANCH  24  25
ATOM     25  C   UNL     1       0.809   3.039  19.166  0.00  0.00    +0.000 C 
ATOM     26  C   UNL     1       1.951   2.219  19.826  0.00  0.00    +0.000 C 
ATOM     27  C   UNL     1       1.449   2.741  21.181  0.00  0.00    +0.000 C 
ATOM     28  C   UNL     1       0.839   3.939  20.423  0.00  0.00    +0.000 C 
ENDBRANCH  24  25
ENDBRANCH  23  24
ENDBRANCH   6  23
TORSDOF 5
ENDMDL
MODEL 2
REMARK VINA RESULT:      -7.3      0.814      1.064
REMARK  Name = 
REMARK  7 active torsions:
REMARK  status: ('A' for Active; 'I' for Inactive)
REMARK    1  A    between atoms: C_1  and  N_2
REMARK    2  A    between atoms: C_4  and  C_5
REMARK    3  A    between atoms: C_7  and  S_8
REMARK    4  A    between atoms: S_8  and  C_9
REMARK    5  A    between atoms: C_14  and  O_15
REMARK    6  A    between atoms: O_15  and  C_16
REMARK    7  A    between atoms: C_16  and  C_17
REMARK                            x       y       z     vdW  Elec       q    Type
REMARK                         _______ _______ _______ _____ _____    ______ ____
ROOT
ATOM      1  C   UNL     1       3.107   6.498  18.159  0.00  0.00    +0.000 A 
ATOM      2  C   UNL     1       4.495   6.656  17.885  0.00  0.00    +0.000 A 
ATOM      3  C   UNL     1       5.295   5.617  17.405  0.00  0.00    +0.000 A 
ATOM      4  C   UNL     1       4.770   4.348  17.265  0.00  0.00    +0.000 A 
ATOM      5  C   UNL     1       3.424   4.147  17.577  0.00  0.00    +0.000 A 
ATOM      6  C   UNL     1       2.570   5.204  17.970  0.00  0.00    +0.000 A 
ENDROOT
BRANCH   1  10
ATOM      7  C   UNL     1       2.495  11.271  17.440  0.00  0.00    +0.000 C 
ATOM      8  N   UNL     1       2.056  10.113  18.195  0.00  0.00    +0.000 N 
ATOM      9  C   UNL     1       2.532   8.848  17.846  0.00  0.00    +0.000 A 
ATOM     10  C   UNL     1       2.415   7.744  18.647  0.00  0.00    +0.000 A 
ATOM     11  C   UNL     1       1.667   7.916  19.864  0.00  0.00    +0.000 A 
ATOM     12  C   UNL     1       1.348   7.065  20.943  0.00  0.00    +0.000 A 
ATOM     13  C   UNL     1       0.424   7.735  21.723  0.00  0.00    +0.000 A 
ATOM     14  N   UNL     1       0.296   9.010  21.234  0.00  0.00    +0.000 N 
ATOM     15  C   UNL     1       1.077   9.138  20.119  0.00  0.00    +0.000 A 
ATOM     16  C   UNL     1       1.269  10.330  19.331  0.00  0.00    +0.000 A 
ATOM     17  O   UNL     1       0.805  11.421  19.650  0.00  0.00    +0.000 OA
ATOM     18  H   UNL     1      -0.289   9.747  21.613  0.00  0.00    +0.000 HD
ENDBRANCH   1  10
BRANCH   3  19
ATOM     19  S   UNL     1       6.936   5.998  16.834  0.00  0.00    +0.000 S 
ATOM     20  C   UNL     1       7.023   5.244  15.236  0.00  0.00    +0.000 C 
ATOM     21  O   UNL     1       7.018   7.436  16.665  0.00  0.00    +0.000 OA
ATOM     22  O   UNL     1       7.861   5.302  17.709  0.00  0.00    +0.000 OA
ENDBRANCH   3  19
BRANCH   6  23
ATOM     23  O   UNL     1       1.289   4.739  18.125  0.00  0.00    +0.000 OA
BRANCH  23  24
ATOM     24  C   UNL     1       1.032   3.342  18.173  0.00  0.00    +0.000 C 
BRANCH  24  25
ATOM     25  C   UNL     1       0.780   2.895  19.600  0.00  0.00    +0.000 C 
ATOM     26  C   UNL     1       1.995   2.110  20.161  0.00  0.00    +0.000 C 
ATOM     27  C   UNL     1       1.727   2.794  21.511  0.00  0.00    +0.000 C 
ATOM     28  C   UNL     1       1.028   3.926  20.726  0.00  0.00    +0.000 C 
ENDBRANCH  24  25
ENDBRANCH  23  24
ENDBRANCH   6  23
TORSDOF 5
ENDMDL
MODEL 3
REMARK VINA RESULT:      -7.2      2.994      5.992
REMARK  Name = 
REMARK  7 active torsions:
REMARK  status: ('A' for Active; 'I' for Inactive)
REMARK    1  A    between atoms: C_1  and  N_2
REMARK    2  A    between atoms: C_4  and  C_5
REMARK    3  A    between atoms: C_7  and  S_8
REMARK    4  A    between atoms: S_8  and  C_9
REMARK    5  A    between atoms: C_14  and  O_15
REMARK    6  A    between atoms: O_15  and  C_16
REMARK    7  A    between atoms: C_16  and  C_17
REMARK                            x       y       z     vdW  Elec       q    Type
REMARK                         _______ _______ _______ _____ _____    ______ ____
ROOT
ATOM      1  C   UNL     1       3.554   6.283  18.724  0.00  0.00    +0.000 A 
ATOM      2  C   UNL     1       2.962   7.481  18.236  0.00  0.00    +0.000 A 
ATOM      3  C   UNL     1       1.867   8.091  18.852  0.00  0.00    +0.000 A 
ATOM      4  C   UNL     1       1.252   7.482  19.928  0.00  0.00    +0.000 A 
ATOM      5  C   UNL     1       1.777   6.277  20.399  0.00  0.00    +0.000 A 
ATOM      6  C   UNL     1       2.943   5.693  19.854  0.00  0.00    +0.000 A 
ENDROOT
BRANCH   1  10
ATOM      7  C   UNL     1       5.070   4.599  14.419  0.00  0.00    +0.000 C 
ATOM      8  N   UNL     1       5.481   5.052  15.733  0.00  0.00    +0.000 N 
ATOM      9  C   UNL     1       4.532   5.604  16.595  0.00  0.00    +0.000 A 
ATOM     10  C   UNL     1       4.742   5.799  17.933  0.00  0.00    +0.000 A 
ATOM     11  C   UNL     1       6.060   5.494  18.423  0.00  0.00    +0.000 A 
ATOM     12  C   UNL     1       6.660   5.527  19.700  0.00  0.00    +0.000 A 
ATOM     13  C   UNL     1       8.014   5.325  19.512  0.00  0.00    +0.000 A 
ATOM     14  N   UNL     1       8.222   5.021  18.190  0.00  0.00    +0.000 N 
ATOM     15  C   UNL     1       7.029   5.090  17.526  0.00  0.00    +0.000 A 
ATOM     16  C   UNL     1       6.797   4.795  16.134  0.00  0.00    +0.000 A 
ATOM     17  O   UNL     1       7.667   4.343  15.396  0.00  0.00    +0.000 OA
ATOM     18  H   UNL     1       9.110   4.795  17.755  0.00  0.00    +0.000 HD
ENDBRANCH   1  10
BRANCH   3  19
ATOM     19  S   UNL     1       1.390   9.721  18.326  0.00  0.00    +0.000 S 
ATOM     20  C   UNL     1       1.167  10.615  19.837  0.00  0.00    +0.000 C 
ATOM     21  O   UNL     1       2.515  10.299  17.616  0.00  0.00    +0.000 OA
ATOM     22  O   UNL     1       0.095   9.597  17.683  0.00  0.00    +0.000 OA
ENDBRANCH   3  19
BRANCH   6  23
ATOM     23  O   UNL     1       3.280   4.568  20.563  0.00  0.00    +0.000 OA
BRANCH  23  24
ATOM     24  C   UNL     1       2.303   3.572  20.838  0.00  0.00    +0.000 C 
BRANCH  24  25
ATOM     25  C   UNL     1       2.346   2.480  19.788  0.00  0.00    +0.000 C 
ATOM     26  C   UNL     1       1.646   2.937  18.480  0.00  0.00    +0.000 C 
ATOM     27  C   UNL     1       2.736   2.174  17.711  0.00  0.00    +0.000 C 
ATOM     28  C   UNL     1       3.639   2.341  18.952  0.00  0.00    +0.000 C 
ENDBRANCH  24  25
ENDBRANCH  23  24
ENDBRANCH   6  23
TORSDOF 5
ENDMDL
MODEL 4
REMARK VINA RESULT:      -7.2      3.267      6.521
REMARK  Name = 
REMARK  7 active torsions:
REMARK  status: ('A' for Active; 'I' for Inactive)
REMARK    1  A    between atoms: C_1  and  N_2
REMARK    2  A    between atoms: C_4  and  C_5
REMARK    3  A    between atoms: C_7  and  S_8
REMARK    4  A    between atoms: S_8  and  C_9
REMARK    5  A    between atoms: C_14  and  O_15
REMARK    6  A    between atoms: O_15  and  C_16
REMARK    7  A    between atoms: C_16  and  C_17
REMARK                            x       y       z     vdW  Elec       q    Type
REMARK                         _______ _______ _______ _____ _____    ______ ____
ROOT
ATOM      1  C   UNL     1       2.589   7.027  19.161  0.00  0.00    +0.000 A 
ATOM      2  C   UNL     1       1.860   7.667  20.202  0.00  0.00    +0.000 A 
ATOM      3  C   UNL     1       1.273   8.926  20.053  0.00  0.00    +0.000 A 
ATOM      4  C   UNL     1       1.467   9.645  18.889  0.00  0.00    +0.000 A 
ATOM      5  C   UNL     1       2.223   9.066  17.869  0.00  0.00    +0.000 A 
ATOM      6  C   UNL     1       2.744   7.754  17.960  0.00  0.00    +0.000 A 
ENDROOT
BRANCH   1  10
ATOM      7  C   UNL     1       6.503   4.136  19.131  0.00  0.00    +0.000 C 
ATOM      8  N   UNL     1       5.129   4.278  19.572  0.00  0.00    +0.000 N 
ATOM      9  C   UNL     1       4.477   5.500  19.400  0.00  0.00    +0.000 A 
ATOM     10  C   UNL     1       3.123   5.662  19.513  0.00  0.00    +0.000 A 
ATOM     11  C   UNL     1       2.375   4.506  19.930  0.00  0.00    +0.000 A 
ATOM     12  C   UNL     1       1.002   4.252  20.133  0.00  0.00    +0.000 A 
ATOM     13  C   UNL     1       0.909   3.011  20.737  0.00  0.00    +0.000 A 
ATOM     14  N   UNL     1       2.161   2.452  20.761  0.00  0.00    +0.000 N 
ATOM     15  C   UNL     1       3.056   3.346  20.240  0.00  0.00    +0.000 A 
ATOM     16  C   UNL     1       4.468   3.135  20.038  0.00  0.00    +0.000 A 
ATOM     17  O   UNL     1       5.015   2.054  20.234  0.00  0.00    +0.000 OA
ATOM     18  H   UNL     1       2.407   1.535  21.117  0.00  0.00    +0.000 HD
ENDBRANCH   1  10
BRANCH   3  19
ATOM     19  S   UNL     1       0.156   9.502  21.310  0.00  0.00    +0.000 S 
ATOM     20  C   UNL     1      -0.811  10.740  20.496  0.00  0.00    +0.000 C 
ATOM     21  O   UNL     1      -0.716   8.398  21.660  0.00  0.00    +0.000 OA
ATOM     22  O   UNL     1       0.962  10.158  22.324  0.00  0.00    +0.000 OA
ENDBRANCH   3  19
BRANCH   6  23
ATOM     23  O   UNL     1       3.363   7.413  16.785  0.00  0.00    +0.000 OA
BRANCH  23  24
ATOM     24  C   UNL     1       4.761   7.157  16.756  0.00  0.00    +0.000 C 
BRANCH  24  25
ATOM     25  C   UNL     1       5.092   6.120  15.701  0.00  0.00    +0.000 C 
ATOM     26  C   UNL     1       6.563   5.640  15.833  0.00  0.00    +0.000 C 
ATOM     27  C   UNL     1       6.065   4.235  15.459  0.00  0.00    +0.000 C 
ATOM     28  C   UNL     1       4.675   4.657  15.980  0.00  0.00    +0.000 C 
ENDBRANCH  24  25
ENDBRANCH  23  24
ENDBRANCH   6  23
TORSDOF 5
ENDMDL
MODEL 5
REMARK VINA RESULT:      -7.1      3.259      6.748
REMARK  Name = 
REMARK  7 active torsions:
REMARK  status: ('A' for Active; 'I' for Inactive)
REMARK    1  A    between atoms: C_1  and  N_2
REMARK    2  A    between atoms: C_4  and  C_5
REMARK    3  A    between atoms: C_7  and  S_8
REMARK    4  A    between atoms: S_8  and  C_9
REMARK    5  A    between atoms: C_14  and  O_15
REMARK    6  A    between atoms: O_15  and  C_16
REMARK    7  A    between atoms: C_16  and  C_17
REMARK                            x       y       z     vdW  Elec       q    Type
REMARK                         _______ _______ _______ _____ _____    ______ ____
ROOT
ATOM      1  C   UNL     1       2.514   6.931  18.744  0.00  0.00    +0.000 A 
ATOM      2  C   UNL     1       1.798   7.478  19.846  0.00  0.00    +0.000 A 
ATOM      3  C   UNL     1       1.410   8.818  19.907  0.00  0.00    +0.000 A 
ATOM      4  C   UNL     1       1.799   9.696  18.915  0.00  0.00    +0.000 A 
ATOM      5  C   UNL     1       2.548   9.202  17.846  0.00  0.00    +0.000 A 
ATOM      6  C   UNL     1       2.869   7.831  17.714  0.00  0.00    +0.000 A 
ENDROOT
BRANCH   1  10
ATOM      7  C   UNL     1       0.604   2.469  19.078  0.00  0.00    +0.000 C 
ATOM      8  N   UNL     1       1.826   3.234  18.924  0.00  0.00    +0.000 N 
ATOM      9  C   UNL     1       1.750   4.614  18.733  0.00  0.00    +0.000 A 
ATOM     10  C   UNL     1       2.819   5.460  18.859  0.00  0.00    +0.000 A 
ATOM     11  C   UNL     1       4.094   4.843  19.109  0.00  0.00    +0.000 A 
ATOM     12  C   UNL     1       5.396   5.341  19.324  0.00  0.00    +0.000 A 
ATOM     13  C   UNL     1       6.251   4.256  19.300  0.00  0.00    +0.000 A 
ATOM     14  N   UNL     1       5.492   3.115  19.231  0.00  0.00    +0.000 N 
ATOM     15  C   UNL     1       4.173   3.464  19.147  0.00  0.00    +0.000 A 
ATOM     16  C   UNL     1       3.043   2.569  19.106  0.00  0.00    +0.000 A 
ATOM     17  O   UNL     1       3.152   1.354  19.244  0.00  0.00    +0.000 OA
ATOM     18  H   UNL     1       5.835   2.161  19.225  0.00  0.00    +0.000 HD
ENDBRANCH   1  10
BRANCH   3  19
ATOM     19  S   UNL     1       0.285   9.323  21.188  0.00  0.00    +0.000 S 
ATOM     20  C   UNL     1      -0.692  10.590  20.431  0.00  0.00    +0.000 C 
ATOM     21  O   UNL     1      -0.579   8.196  21.482  0.00  0.00    +0.000 OA
ATOM     22  O   UNL     1       1.082   9.937  22.234  0.00  0.00    +0.000 OA
ENDBRANCH   3  19
BRANCH   6  23
ATOM     23  O   UNL     1       3.529   7.615  16.531  0.00  0.00    +0.000 OA
BRANCH  23  24
ATOM     24  C   UNL     1       4.916   7.301  16.529  0.00  0.00    +0.000 C 
BRANCH  24  25
ATOM     25  C   UNL     1       5.213   6.210  15.518  0.00  0.00    +0.000 C 
ATOM     26  C   UNL     1       6.618   5.596  15.758  0.00  0.00    +0.000 C 
ATOM     27  C   UNL     1       6.013   4.236  15.379  0.00  0.00    +0.000 C 
ATOM     28  C   UNL     1       4.639   4.802  15.796  0.00  0.00    +0.000 C 
ENDBRANCH  24  25
ENDBRANCH  23  24
ENDBRANCH   6  23
TORSDOF 5
ENDMDL
MODEL 6
REMARK VINA RESULT:      -7.1      3.265      6.766
REMARK  Name = 
REMARK  7 active torsions:
REMARK  status: ('A' for Active; 'I' for Inactive)
REMARK    1  A    between atoms: C_1  and  N_2
REMARK    2  A    between atoms: C_4  and  C_5
REMARK    3  A    between atoms: C_7  and  S_8
REMARK    4  A    between atoms: S_8  and  C_9
REMARK    5  A    between atoms: C_14  and  O_15
REMARK    6  A    between atoms: O_15  and  C_16
REMARK    7  A    between atoms: C_16  and  C_17
REMARK                            x       y       z     vdW  Elec       q    Type
REMARK                         _______ _______ _______ _____ _____    ______ ____
ROOT
ATOM      1  C   UNL     1       3.820   5.713  18.591  0.00  0.00    +0.000 A 
ATOM      2  C   UNL     1       3.683   4.500  19.323  0.00  0.00    +0.000 A 
ATOM      3  C   UNL     1       2.728   4.324  20.327  0.00  0.00    +0.000 A 
ATOM      4  C   UNL     1       1.927   5.382  20.711  0.00  0.00    +0.000 A 
ATOM      5  C   UNL     1       2.073   6.602  20.048  0.00  0.00    +0.000 A 
ATOM      6  C   UNL     1       2.964   6.775  18.964  0.00  0.00    +0.000 A 
ENDROOT
BRANCH   1  10
ATOM      7  C   UNL     1       5.353   3.590  14.490  0.00  0.00    +0.000 C 
ATOM      8  N   UNL     1       5.577   4.674  15.427  0.00  0.00    +0.000 N 
ATOM      9  C   UNL     1       4.649   4.902  16.445  0.00  0.00    +0.000 A 
ATOM     10  C   UNL     1       4.893   5.694  17.534  0.00  0.00    +0.000 A 
ATOM     11  C   UNL     1       6.152   6.390  17.546  0.00  0.00    +0.000 A 
ATOM     12  C   UNL     1       6.783   7.253  18.467  0.00  0.00    +0.000 A 
ATOM     13  C   UNL     1       7.895   7.773  17.832  0.00  0.00    +0.000 A 
ATOM     14  N   UNL     1       8.036   7.137  16.626  0.00  0.00    +0.000 N 
ATOM     15  C   UNL     1       6.994   6.267  16.458  0.00  0.00    +0.000 A 
ATOM     16  C   UNL     1       6.790   5.367  15.350  0.00  0.00    +0.000 A 
ATOM     17  O   UNL     1       7.614   5.218  14.453  0.00  0.00    +0.000 OA
ATOM     18  H   UNL     1       8.776   7.284  15.947  0.00  0.00    +0.000 HD
ENDBRANCH   1  10
BRANCH   3  19
ATOM     19  S   UNL     1       2.462   2.690  20.975  0.00  0.00    +0.000 S 
ATOM     20  C   UNL     1       1.901   1.758  19.579  0.00  0.00    +0.000 C 
ATOM     21  O   UNL     1       3.750   2.167  21.386  0.00  0.00    +0.000 OA
ATOM     22  O   UNL     1       1.365   2.784  21.921  0.00  0.00    +0.000 OA
ENDBRANCH   3  19
BRANCH   6  23
ATOM     23  O   UNL     1       2.837   8.039  18.449  0.00  0.00    +0.000 OA
BRANCH  23  24
ATOM     24  C   UNL     1       1.676   8.403  17.713  0.00  0.00    +0.000 C 
BRANCH  24  25
ATOM     25  C   UNL     1       1.167   9.760  18.156  0.00  0.00    +0.000 C 
ATOM     26  C   UNL     1      -0.367   9.875  17.948  0.00  0.00    +0.000 C 
ATOM     27  C   UNL     1      -0.416  10.671  19.262  0.00  0.00    +0.000 C 
ATOM     28  C   UNL     1       0.896   9.965  19.665  0.00  0.00    +0.000 C 
ENDBRANCH  24  25
ENDBRANCH  23  24
ENDBRANCH   6  23
TORSDOF 5
ENDMDL
MODEL 7
REMARK VINA RESULT:      -6.9      2.995      6.078
REMARK  Name = 
REMARK  7 active torsions:
REMARK  status: ('A' for Active; 'I' for Inactive)
REMARK    1  A    between atoms: C_1  and  N_2
REMARK    2  A    between atoms: C_4  and  C_5
REMARK    3  A    between atoms: C_7  and  S_8
REMARK    4  A    between atoms: S_8  and  C_9
REMARK    5  A    between atoms: C_14  and  O_15
REMARK    6  A    between atoms: O_15  and  C_16
REMARK    7  A    between atoms: C_16  and  C_17
REMARK                            x       y       z     vdW  Elec       q    Type
REMARK                         _______ _______ _______ _____ _____    ______ ____
ROOT
ATOM      1  C   UNL     1       3.385   6.066  19.303  0.00  0.00    +0.000 A 
ATOM      2  C   UNL     1       2.941   7.289  18.726  0.00  0.00    +0.000 A 
ATOM      3  C   UNL     1       1.812   7.975  19.179  0.00  0.00    +0.000 A 
ATOM      4  C   UNL     1       1.020   7.425  20.168  0.00  0.00    +0.000 A 
ATOM      5  C   UNL     1       1.399   6.200  20.719  0.00  0.00    +0.000 A 
ATOM      6  C   UNL     1       2.590   5.535  20.344  0.00  0.00    +0.000 A 
ENDROOT
BRANCH   1  10
ATOM      7  C   UNL     1       8.235   5.823  19.606  0.00  0.00    +0.000 C 
ATOM      8  N   UNL     1       7.056   5.317  18.930  0.00  0.00    +0.000 N 
ATOM      9  C   UNL     1       5.791   5.675  19.400  0.00  0.00    +0.000 A 
ATOM     10  C   UNL     1       4.636   5.496  18.687  0.00  0.00    +0.000 A 
ATOM     11  C   UNL     1       4.763   4.809  17.430  0.00  0.00    +0.000 A 
ATOM     12  C   UNL     1       3.852   4.459  16.411  0.00  0.00    +0.000 A 
ATOM     13  C   UNL     1       4.525   3.621  15.541  0.00  0.00    +0.000 A 
ATOM     14  N   UNL     1       5.843   3.581  15.919  0.00  0.00    +0.000 N 
ATOM     15  C   UNL     1       6.003   4.330  17.052  0.00  0.00    +0.000 A 
ATOM     16  C   UNL     1       7.238   4.591  17.748  0.00  0.00    +0.000 A 
ATOM     17  O   UNL     1       8.331   4.229  17.322  0.00  0.00    +0.000 OA
ATOM     18  H   UNL     1       6.589   3.073  15.457  0.00  0.00    +0.000 HD
ENDBRANCH   1  10
BRANCH   3  19
ATOM     19  S   UNL     1       1.515   9.621  18.577  0.00  0.00    +0.000 S 
ATOM     20  C   UNL     1      -0.125   9.550  17.916  0.00  0.00    +0.000 C 
ATOM     21  O   UNL     1       1.507  10.512  19.721  0.00  0.00    +0.000 OA
ATOM     22  O   UNL     1       2.433   9.841  17.474  0.00  0.00    +0.000 OA
ENDBRANCH   3  19
BRANCH   6  23
ATOM     23  O   UNL     1       2.756   4.406  21.105  0.00  0.00    +0.000 OA
BRANCH  23  24
ATOM     24  C   UNL     1       1.670   3.513  21.312  0.00  0.00    +0.000 C 
BRANCH  24  25
ATOM     25  C   UNL     1       1.689   2.401  20.282  0.00  0.00    +0.000 C 
ATOM     26  C   UNL     1       0.976   2.840  18.975  0.00  0.00    +0.000 C 
ATOM     27  C   UNL     1       2.050   2.054  18.206  0.00  0.00    +0.000 C 
ATOM     28  C   UNL     1       2.971   2.236  19.432  0.00  0.00    +0.000 C 
ENDBRANCH  24  25
ENDBRANCH  23  24
ENDBRANCH   6  23
TORSDOF 5
ENDMDL
MODEL 8
REMARK VINA RESULT:      -6.9      2.815      5.827
REMARK  Name = 
REMARK  7 active torsions:
REMARK  status: ('A' for Active; 'I' for Inactive)
REMARK    1  A    between atoms: C_1  and  N_2
REMARK    2  A    between atoms: C_4  and  C_5
REMARK    3  A    between atoms: C_7  and  S_8
REMARK    4  A    between atoms: S_8  and  C_9
REMARK    5  A    between atoms: C_14  and  O_15
REMARK    6  A    between atoms: O_15  and  C_16
REMARK    7  A    between atoms: C_16  and  C_17
REMARK                            x       y       z     vdW  Elec       q    Type
REMARK                         _______ _______ _______ _____ _____    ______ ____
ROOT
ATOM      1  C   UNL     1       3.213   6.587  18.940  0.00  0.00    +0.000 A 
ATOM      2  C   UNL     1       2.637   7.814  18.506  0.00  0.00    +0.000 A 
ATOM      3  C   UNL     1       1.578   8.433  19.174  0.00  0.00    +0.000 A 
ATOM      4  C   UNL     1       0.982   7.808  20.252  0.00  0.00    +0.000 A 
ATOM      5  C   UNL     1       1.489   6.576  20.670  0.00  0.00    +0.000 A 
ATOM      6  C   UNL     1       2.622   5.979  20.071  0.00  0.00    +0.000 A 
ENDROOT
BRANCH   1  10
ATOM      7  C   UNL     1       7.558   7.714  17.063  0.00  0.00    +0.000 C 
ATOM      8  N   UNL     1       6.580   6.661  17.257  0.00  0.00    +0.000 N 
ATOM      9  C   UNL     1       5.470   6.898  18.071  0.00  0.00    +0.000 A 
ATOM     10  C   UNL     1       4.362   6.096  18.097  0.00  0.00    +0.000 A 
ATOM     11  C   UNL     1       4.420   4.900  17.300  0.00  0.00    +0.000 A 
ATOM     12  C   UNL     1       3.509   3.856  17.037  0.00  0.00    +0.000 A 
ATOM     13  C   UNL     1       4.208   2.874  16.360  0.00  0.00    +0.000 A 
ATOM     14  N   UNL     1       5.459   3.359  16.076  0.00  0.00    +0.000 N 
ATOM     15  C   UNL     1       5.585   4.608  16.619  0.00  0.00    +0.000 A 
ATOM     16  C   UNL     1       6.723   5.486  16.510  0.00  0.00    +0.000 A 
ATOM     17  O   UNL     1       7.698   5.228  15.811  0.00  0.00    +0.000 OA
ATOM     18  H   UNL     1       6.191   2.879  15.564  0.00  0.00    +0.000 HD
ENDBRANCH   1  10
BRANCH   3  19
ATOM     19  S   UNL     1       1.129  10.090  18.712  0.00  0.00    +0.000 S 
ATOM     20  C   UNL     1       0.950  10.936  20.256  0.00  0.00    +0.000 C 
ATOM     21  O   UNL     1       2.254  10.667  18.003  0.00  0.00    +0.000 OA
ATOM     22  O   UNL     1      -0.180  10.015  18.088  0.00  0.00    +0.000 OA
ENDBRANCH   3  19
BRANCH   6  23
ATOM     23  O   UNL     1       2.951   4.825  20.736  0.00  0.00    +0.000 OA
BRANCH  23  24
ATOM     24  C   UNL     1       1.979   4.144  21.518  0.00  0.00    +0.000 C 
BRANCH  24  25
ATOM     25  C   UNL     1       1.590   2.833  20.863  0.00  0.00    +0.000 C 
ATOM     26  C   UNL     1       0.672   3.075  19.635  0.00  0.00    +0.000 C 
ATOM     27  C   UNL     1       1.406   1.915  18.944  0.00  0.00    +0.000 C 
ATOM     28  C   UNL     1       2.601   2.197  19.880  0.00  0.00    +0.000 C 
ENDBRANCH  24  25
ENDBRANCH  23  24
ENDBRANCH   6  23
TORSDOF 5
ENDMDL
MODEL 9
REMARK VINA RESULT:      -6.9      1.917      4.714
REMARK  Name = 
REMARK  7 active torsions:
REMARK  status: ('A' for Active; 'I' for Inactive)
REMARK    1  A    between atoms: C_1  and  N_2
REMARK    2  A    between atoms: C_4  and  C_5
REMARK    3  A    between atoms: C_7  and  S_8
REMARK    4  A    between atoms: S_8  and  C_9
REMARK    5  A    between atoms: C_14  and  O_15
REMARK    6  A    between atoms: O_15  and  C_16
REMARK    7  A    between atoms: C_16  and  C_17
REMARK                            x       y       z     vdW  Elec       q    Type
REMARK                         _______ _______ _______ _____ _____    ______ ____
ROOT
ATOM      1  C   UNL     1       2.781   6.520  18.393  0.00  0.00    +0.000 A 
ATOM      2  C   UNL     1       1.989   5.382  18.717  0.00  0.00    +0.000 A 
ATOM      3  C   UNL     1       2.381   4.076  18.415  0.00  0.00    +0.000 A 
ATOM      4  C   UNL     1       3.536   3.850  17.693  0.00  0.00    +0.000 A 
ATOM      5  C   UNL     1       4.309   4.949  17.314  0.00  0.00    +0.000 A 
ATOM      6  C   UNL     1       3.984   6.272  17.693  0.00  0.00    +0.000 A 
ENDROOT
BRANCH   1  10
ATOM      7  C   UNL     1       2.546  11.287  17.449  0.00  0.00    +0.000 C 
ATOM      8  N   UNL     1       2.023  10.205  18.260  0.00  0.00    +0.000 N 
ATOM      9  C   UNL     1       2.394   8.891  17.971  0.00  0.00    +0.000 A 
ATOM     10  C   UNL     1       2.195   7.839  18.823  0.00  0.00    +0.000 A 
ATOM     11  C   UNL     1       1.474   8.127  20.034  0.00  0.00    +0.000 A 
ATOM     12  C   UNL     1       1.097   7.357  21.154  0.00  0.00    +0.000 A 
ATOM     13  C   UNL     1       0.235   8.135  21.905  0.00  0.00    +0.000 A 
ATOM     14  N   UNL     1       0.206   9.392  21.357  0.00  0.00    +0.000 N 
ATOM     15  C   UNL     1       0.985   9.404  20.233  0.00  0.00    +0.000 A 
ATOM     16  C   UNL     1       1.265  10.538  19.388  0.00  0.00    +0.000 A 
ATOM     17  O   UNL     1       0.892  11.676  19.657  0.00  0.00    +0.000 OA
ATOM     18  H   UNL     1      -0.315  10.190  21.703  0.00  0.00    +0.000 HD
ENDBRANCH   1  10
BRANCH   3  19
ATOM     19  S   UNL     1       1.456   2.726  19.111  0.00  0.00    +0.000 S 
ATOM     20  C   UNL     1       1.098   3.252  20.762  0.00  0.00    +0.000 C 
ATOM     21  O   UNL     1       0.207   2.629  18.382  0.00  0.00    +0.000 OA
ATOM     22  O   UNL     1       2.358   1.591  19.189  0.00  0.00    +0.000 OA
ENDBRANCH   3  19
BRANCH   6  23
ATOM     23  O   UNL     1       4.958   7.136  17.262  0.00  0.00    +0.000 OA
BRANCH  23  24
ATOM     24  C   UNL     1       5.957   6.697  16.351  0.00  0.00    +0.000 C 
BRANCH  24  25
ATOM     25  C   UNL     1       7.337   6.840  16.963  0.00  0.00    +0.000 C 
ATOM     26  C   UNL     1       7.534   8.257  17.566  0.00  0.00    +0.000 C 
ATOM     27  C   UNL     1       8.322   7.588  18.703  0.00  0.00    +0.000 C 
ATOM     28  C   UNL     1       7.545   6.290  18.393  0.00  0.00    +0.000 C 
ENDBRANCH  24  25
ENDBRANCH  23  24
ENDBRANCH   6  23
TORSDOF 5
ENDMDL
