MODEL 1
REMARK VINA RESULT:      -7.3      0.000      0.000
REMARK  Name = 
REMARK  2 active torsions:
REMARK  status: ('A' for Active; 'I' for Inactive)
REMARK    1  A    between atoms: C_8  and  C_9
REMARK    2  A    between atoms: C_9  and  C_10
REMARK                            x       y       z     vdW  Elec       q    Type
REMARK                         _______ _______ _______ _____ _____    ______ ____
ROOT
ATOM      1  O   UNL     1       8.067   4.377  17.908  0.00  0.00    +0.000 OA
ATOM      2  C   UNL     1       7.307   4.532  16.960  0.00  0.00    +0.000 A 
ATOM      3  O   UNL     1       7.787   4.720  15.693  0.00  0.00    +0.000 OA
ATOM      4  C   UNL     1       6.910   4.818  14.596  0.00  0.00    +0.000 A 
ATOM      5 CL   UNL     1       7.594   5.033  13.026  0.00  0.00    +0.000 Cl
ATOM      6  C   UNL     1       5.584   4.739  14.746  0.00  0.00    +0.000 A 
ATOM      7  C   UNL     1       5.035   4.583  16.061  0.00  0.00    +0.000 A 
ATOM      8  C   UNL     1       5.829   4.514  17.140  0.00  0.00    +0.000 A 
ENDROOT
BRANCH   8   9
ATOM      9  C   UNL     1       5.300   4.313  18.533  0.00  0.00    +0.000 C 
BRANCH   9  10
ATOM     10  C   UNL     1       3.894   3.757  18.610  0.00  0.00    +0.000 A 
ATOM     11  C   UNL     1       2.795   4.623  18.712  0.00  0.00    +0.000 A 
ATOM     12  C   UNL     1       1.489   4.129  18.655  0.00  0.00    +0.000 A 
ATOM     13  C   UNL     1       1.266   2.762  18.510  0.00  0.00    +0.000 A 
ATOM     14  C   UNL     1       2.347   1.886  18.445  0.00  0.00    +0.000 A 
ATOM     15  C   UNL     1       3.654   2.379  18.495  0.00  0.00    +0.000 A 
ENDBRANCH   9  10
ENDBRANCH   8   9
TORSDOF 2
ENDMDL
MODEL 2
REMARK VINA RESULT:      -7.2      2.272      2.839
REMARK  Name = 
REMARK  2 active torsions:
REMARK  status: ('A' for Active; 'I' for Inactive)
REMARK    1  A    between atoms: C_8  and  C_9
REMARK    2  A    between atoms: C_9  and  C_10
REMARK                            x       y       z     vdW  Elec       q    Type
REMARK                         _______ _______ _______ _____ _____    ______ ____
ROOT
ATOM      1  O   UNL     1       5.392   6.137  15.079  0.00  0.00    +0.000 OA
ATOM      2  C   UNL     1       6.013   6.075  16.132  0.00  0.00    +0.000 A 
ATOM      3  O   UNL     1       6.800   7.112  16.551  0.00  0.00    +0.000 OA
ATOM      4  C   UNL     1       7.448   7.068  17.800  0.00  0.00    +0.000 A 
ATOM      5 CL   UNL     1       8.406   8.425  18.266  0.00  0.00    +0.000 Cl
ATOM      6  C   UNL     1       7.329   6.017  18.618  0.00  0.00    +0.000 A 
ATOM      7  C   UNL     1       6.546   4.891  18.202  0.00  0.00    +0.000 A 
ATOM      8  C   UNL     1       5.934   4.874  17.009  0.00  0.00    +0.000 A 
ENDROOT
BRANCH   8   9
ATOM      9  C   UNL     1       5.073   3.731  16.547  0.00  0.00    +0.000 C 
BRANCH   9  10
ATOM     10  C   UNL     1       3.804   3.522  17.345  0.00  0.00    +0.000 A 
ATOM     11  C   UNL     1       2.895   4.577  17.519  0.00  0.00    +0.000 A 
ATOM     12  C   UNL     1       1.665   4.363  18.144  0.00  0.00    +0.000 A 
ATOM     13  C   UNL     1       1.332   3.095  18.615  0.00  0.00    +0.000 A 
ATOM     14  C   UNL     1       2.239   2.047  18.483  0.00  0.00    +0.000 A 
ATOM     15  C   UNL     1       3.468   2.258  17.852  0.00  0.00    +0.000 A 
ENDBRANCH   9  10
ENDBRANCH   8   9
TORSDOF 2
ENDMDL
MODEL 3
REMARK VINA RESULT:      -7.2      2.301      3.122
REMARK  Name = 
REMARK  2 active torsions:
REMARK  status: ('A' for Active; 'I' for Inactive)
REMARK    1  A    between atoms: C_8  and  C_9
REMARK    2  A    between atoms: C_9  and  C_10
REMARK                            x       y       z     vdW  Elec       q    Type
REMARK                         _______ _______ _______ _____ _____    ______ ____
ROOT
ATOM      1  O   UNL     1       5.235   6.315  15.186  0.00  0.00    +0.000 OA
ATOM      2  C   UNL     1       5.913   6.168  16.195  0.00  0.00    +0.000 A 
ATOM      3  O   UNL     1       6.731   7.166  16.648  0.00  0.00    +0.000 OA
ATOM      4  C   UNL     1       7.446   7.022  17.852  0.00  0.00    +0.000 A 
ATOM      5 CL   UNL     1       8.441   8.335  18.368  0.00  0.00    +0.000 Cl
ATOM      6  C   UNL     1       7.364   5.911  18.591  0.00  0.00    +0.000 A 
ATOM      7  C   UNL     1       6.550   4.824  18.134  0.00  0.00    +0.000 A 
ATOM      8  C   UNL     1       5.872   4.903  16.979  0.00  0.00    +0.000 A 
ENDROOT
BRANCH   8   9
ATOM      9  C   UNL     1       4.978   3.803  16.479  0.00  0.00    +0.000 C 
BRANCH   9  10
ATOM     10  C   UNL     1       3.708   3.596  17.279  0.00  0.00    +0.000 A 
ATOM     11  C   UNL     1       3.383   2.325  17.774  0.00  0.00    +0.000 A 
ATOM     12  C   UNL     1       2.284   2.147  18.618  0.00  0.00    +0.000 A 
ATOM     13  C   UNL     1       1.488   3.236  18.966  0.00  0.00    +0.000 A 
ATOM     14  C   UNL     1       1.778   4.498  18.452  0.00  0.00    +0.000 A 
ATOM     15  C   UNL     1       2.880   4.678  17.613  0.00  0.00    +0.000 A 
ENDBRANCH   9  10
ENDBRANCH   8   9
TORSDOF 2
ENDMDL
MODEL 4
REMARK VINA RESULT:      -7.1      0.893      1.499
REMARK  Name = 
REMARK  2 active torsions:
REMARK  status: ('A' for Active; 'I' for Inactive)
REMARK    1  A    between atoms: C_8  and  C_9
REMARK    2  A    between atoms: C_9  and  C_10
REMARK                            x       y       z     vdW  Elec       q    Type
REMARK                         _______ _______ _______ _____ _____    ______ ____
ROOT
ATOM      1  O   UNL     1       7.272   6.446  17.565  0.00  0.00    +0.000 OA
ATOM      2  C   UNL     1       6.869   5.773  16.624  0.00  0.00    +0.000 A 
ATOM      3  O   UNL     1       7.470   5.843  15.398  0.00  0.00    +0.000 OA
ATOM      4  C   UNL     1       7.055   5.009  14.342  0.00  0.00    +0.000 A 
ATOM      5 CL   UNL     1       7.877   5.141  12.831  0.00  0.00    +0.000 Cl
ATOM      6  C   UNL     1       6.060   4.128  14.491  0.00  0.00    +0.000 A 
ATOM      7  C   UNL     1       5.375   4.050  15.747  0.00  0.00    +0.000 A 
ATOM      8  C   UNL     1       5.715   4.844  16.774  0.00  0.00    +0.000 A 
ENDROOT
BRANCH   8   9
ATOM      9  C   UNL     1       5.050   4.771  18.120  0.00  0.00    +0.000 C 
BRANCH   9  10
ATOM     10  C   UNL     1       3.763   3.972  18.156  0.00  0.00    +0.000 A 
ATOM     11  C   UNL     1       3.788   2.605  18.467  0.00  0.00    +0.000 A 
ATOM     12  C   UNL     1       2.599   1.888  18.627  0.00  0.00    +0.000 A 
ATOM     13  C   UNL     1       1.372   2.527  18.464  0.00  0.00    +0.000 A 
ATOM     14  C   UNL     1       1.333   3.875  18.119  0.00  0.00    +0.000 A 
ATOM     15  C   UNL     1       2.521   4.595  17.964  0.00  0.00    +0.000 A 
ENDBRANCH   9  10
ENDBRANCH   8   9
TORSDOF 2
ENDMDL
MODEL 5
REMARK VINA RESULT:      -7.0      1.660      2.102
REMARK  Name = 
REMARK  2 active torsions:
REMARK  status: ('A' for Active; 'I' for Inactive)
REMARK    1  A    between atoms: C_8  and  C_9
REMARK    2  A    between atoms: C_9  and  C_10
REMARK                            x       y       z     vdW  Elec       q    Type
REMARK                         _______ _______ _______ _____ _____    ______ ____
ROOT
ATOM      1  O   UNL     1       5.719   3.916  19.157  0.00  0.00    +0.000 OA
ATOM      2  C   UNL     1       5.602   4.626  18.166  0.00  0.00    +0.000 A 
ATOM      3  O   UNL     1       6.398   4.446  17.069  0.00  0.00    +0.000 OA
ATOM      4  C   UNL     1       6.205   5.211  15.903  0.00  0.00    +0.000 A 
ATOM      5 CL   UNL     1       7.236   4.909  14.553  0.00  0.00    +0.000 Cl
ATOM      6  C   UNL     1       5.252   6.145  15.824  0.00  0.00    +0.000 A 
ATOM      7  C   UNL     1       4.421   6.397  16.965  0.00  0.00    +0.000 A 
ATOM      8  C   UNL     1       4.585   5.712  18.107  0.00  0.00    +0.000 A 
ENDROOT
BRANCH   8   9
ATOM      9  C   UNL     1       3.713   5.916  19.315  0.00  0.00    +0.000 C 
BRANCH   9  10
ATOM     10  C   UNL     1       2.604   4.899  19.483  0.00  0.00    +0.000 A 
ATOM     11  C   UNL     1       2.011   4.307  18.358  0.00  0.00    +0.000 A 
ATOM     12  C   UNL     1       1.078   3.278  18.501  0.00  0.00    +0.000 A 
ATOM     13  C   UNL     1       0.715   2.837  19.772  0.00  0.00    +0.000 A 
ATOM     14  C   UNL     1       1.268   3.441  20.899  0.00  0.00    +0.000 A 
ATOM     15  C   UNL     1       2.206   4.466  20.756  0.00  0.00    +0.000 A 
ENDBRANCH   9  10
ENDBRANCH   8   9
TORSDOF 2
ENDMDL
MODEL 6
REMARK VINA RESULT:      -6.9      1.274      1.797
REMARK  Name = 
REMARK  2 active torsions:
REMARK  status: ('A' for Active; 'I' for Inactive)
REMARK    1  A    between atoms: C_8  and  C_9
REMARK    2  A    between atoms: C_9  and  C_10
REMARK                            x       y       z     vdW  Elec       q    Type
REMARK                         _______ _______ _______ _____ _____    ______ ____
ROOT
ATOM      1  O   UNL     1       7.651   4.531  18.743  0.00  0.00    +0.000 OA
ATOM      2  C   UNL     1       6.949   4.817  17.781  0.00  0.00    +0.000 A 
ATOM      3  O   UNL     1       7.426   4.720  16.504  0.00  0.00    +0.000 OA
ATOM      4  C   UNL     1       6.591   4.972  15.400  0.00  0.00    +0.000 A 
ATOM      5 CL   UNL     1       7.262   4.807  13.818  0.00  0.00    +0.000 Cl
ATOM      6  C   UNL     1       5.310   5.322  15.552  0.00  0.00    +0.000 A 
ATOM      7  C   UNL     1       4.777   5.476  16.874  0.00  0.00    +0.000 A 
ATOM      8  C   UNL     1       5.542   5.275  17.957  0.00  0.00    +0.000 A 
ENDROOT
BRANCH   8   9
ATOM      9  C   UNL     1       5.018   5.388  19.362  0.00  0.00    +0.000 C 
BRANCH   9  10
ATOM     10  C   UNL     1       3.719   4.653  19.621  0.00  0.00    +0.000 A 
ATOM     11  C   UNL     1       3.682   3.251  19.595  0.00  0.00    +0.000 A 
ATOM     12  C   UNL     1       2.522   2.561  19.956  0.00  0.00    +0.000 A 
ATOM     13  C   UNL     1       1.381   3.264  20.334  0.00  0.00    +0.000 A 
ATOM     14  C   UNL     1       1.392   4.657  20.329  0.00  0.00    +0.000 A 
ATOM     15  C   UNL     1       2.553   5.349  19.974  0.00  0.00    +0.000 A 
ENDBRANCH   9  10
ENDBRANCH   8   9
TORSDOF 2
ENDMDL
MODEL 7
REMARK VINA RESULT:      -6.9      2.244      2.843
REMARK  Name = 
REMARK  2 active torsions:
REMARK  status: ('A' for Active; 'I' for Inactive)
REMARK    1  A    between atoms: C_8  and  C_9
REMARK    2  A    between atoms: C_9  and  C_10
REMARK                            x       y       z     vdW  Elec       q    Type
REMARK                         _______ _______ _______ _____ _____    ______ ____
ROOT
ATOM      1  O   UNL     1       5.739   3.714  19.231  0.00  0.00    +0.000 OA
ATOM      2  C   UNL     1       5.723   4.672  18.468  0.00  0.00    +0.000 A 
ATOM      3  O   UNL     1       6.661   5.663  18.558  0.00  0.00    +0.000 OA
ATOM      4  C   UNL     1       6.686   6.720  17.628  0.00  0.00    +0.000 A 
ATOM      5 CL   UNL     1       7.915   7.920  17.796  0.00  0.00    +0.000 Cl
ATOM      6  C   UNL     1       5.798   6.803  16.633  0.00  0.00    +0.000 A 
ATOM      7  C   UNL     1       4.772   5.808  16.524  0.00  0.00    +0.000 A 
ATOM      8  C   UNL     1       4.689   4.798  17.403  0.00  0.00    +0.000 A 
ENDROOT
BRANCH   8   9
ATOM      9  C   UNL     1       3.654   3.712  17.307  0.00  0.00    +0.000 C 
BRANCH   9  10
ATOM     10  C   UNL     1       2.692   3.640  18.474  0.00  0.00    +0.000 A 
ATOM     11  C   UNL     1       2.401   2.406  19.076  0.00  0.00    +0.000 A 
ATOM     12  C   UNL     1       1.616   2.343  20.230  0.00  0.00    +0.000 A 
ATOM     13  C   UNL     1       1.101   3.511  20.788  0.00  0.00    +0.000 A 
ATOM     14  C   UNL     1       1.351   4.738  20.180  0.00  0.00    +0.000 A 
ATOM     15  C   UNL     1       2.141   4.804  19.029  0.00  0.00    +0.000 A 
ENDBRANCH   9  10
ENDBRANCH   8   9
TORSDOF 2
ENDMDL
MODEL 8
REMARK VINA RESULT:      -6.8      1.630      1.966
REMARK  Name = 
REMARK  2 active torsions:
REMARK  status: ('A' for Active; 'I' for Inactive)
REMARK    1  A    between atoms: C_8  and  C_9
REMARK    2  A    between atoms: C_9  and  C_10
REMARK                            x       y       z     vdW  Elec       q    Type
REMARK                         _______ _______ _______ _____ _____    ______ ____
ROOT
ATOM      1  O   UNL     1       5.890   3.950  19.102  0.00  0.00    +0.000 OA
ATOM      2  C   UNL     1       5.726   4.640  18.103  0.00  0.00    +0.000 A 
ATOM      3  O   UNL     1       6.517   4.484  16.999  0.00  0.00    +0.000 OA
ATOM      4  C   UNL     1       6.272   5.223  15.826  0.00  0.00    +0.000 A 
ATOM      5 CL   UNL     1       7.301   4.955  14.467  0.00  0.00    +0.000 Cl
ATOM      6  C   UNL     1       5.271   6.106  15.746  0.00  0.00    +0.000 A 
ATOM      7  C   UNL     1       4.442   6.331  16.893  0.00  0.00    +0.000 A 
ATOM      8  C   UNL     1       4.654   5.672  18.042  0.00  0.00    +0.000 A 
ENDROOT
BRANCH   8   9
ATOM      9  C   UNL     1       3.787   5.848  19.258  0.00  0.00    +0.000 C 
BRANCH   9  10
ATOM     10  C   UNL     1       2.759   4.757  19.474  0.00  0.00    +0.000 A 
ATOM     11  C   UNL     1       2.356   4.412  20.773  0.00  0.00    +0.000 A 
ATOM     12  C   UNL     1       1.319   3.500  20.979  0.00  0.00    +0.000 A 
ATOM     13  C   UNL     1       0.680   2.910  19.891  0.00  0.00    +0.000 A 
ATOM     14  C   UNL     1       1.094   3.216  18.596  0.00  0.00    +0.000 A 
ATOM     15  C   UNL     1       2.128   4.133  18.388  0.00  0.00    +0.000 A 
ENDBRANCH   9  10
ENDBRANCH   8   9
TORSDOF 2
ENDMDL
MODEL 9
REMARK VINA RESULT:      -6.8      1.027      1.041
REMARK  Name = 
REMARK  2 active torsions:
REMARK  status: ('A' for Active; 'I' for Inactive)
REMARK    1  A    between atoms: C_8  and  C_9
REMARK    2  A    between atoms: C_9  and  C_10
REMARK                            x       y       z     vdW  Elec       q    Type
REMARK                         _______ _______ _______ _____ _____    ______ ____
ROOT
ATOM      1  O   UNL     1       7.590   4.753  18.864  0.00  0.00    +0.000 OA
ATOM      2  C   UNL     1       6.901   4.875  17.859  0.00  0.00    +0.000 A 
ATOM      3  O   UNL     1       7.460   4.851  16.612  0.00  0.00    +0.000 OA
ATOM      4  C   UNL     1       6.655   4.911  15.459  0.00  0.00    +0.000 A 
ATOM      5 CL   UNL     1       7.434   4.852  13.920  0.00  0.00    +0.000 Cl
ATOM      6  C   UNL     1       5.324   5.003  15.534  0.00  0.00    +0.000 A 
ATOM      7  C   UNL     1       4.698   5.073  16.821  0.00  0.00    +0.000 A 
ATOM      8  C   UNL     1       5.425   5.048  17.949  0.00  0.00    +0.000 A 
ENDROOT
BRANCH   8   9
ATOM      9  C   UNL     1       4.810   5.082  19.320  0.00  0.00    +0.000 C 
BRANCH   9  10
ATOM     10  C   UNL     1       3.569   4.228  19.486  0.00  0.00    +0.000 A 
ATOM     11  C   UNL     1       2.372   4.801  19.941  0.00  0.00    +0.000 A 
ATOM     12  C   UNL     1       1.193   4.054  19.977  0.00  0.00    +0.000 A 
ATOM     13  C   UNL     1       1.198   2.721  19.572  0.00  0.00    +0.000 A 
ATOM     14  C   UNL     1       2.387   2.129  19.154  0.00  0.00    +0.000 A 
ATOM     15  C   UNL     1       3.566   2.877  19.111  0.00  0.00    +0.000 A 
ENDBRANCH   9  10
ENDBRANCH   8   9
TORSDOF 2
ENDMDL
