MODEL 1
REMARK VINA RESULT:      -7.1      0.000      0.000
REMARK  Name = 
REMARK  10 active torsions:
REMARK  status: ('A' for Active; 'I' for Inactive)
REMARK    1  A    between atoms: C_1  and  C_2
REMARK    2  A    between atoms: C_2  and  O_3
REMARK    3  A    between atoms: O_3  and  C_4
REMARK    4  A    between atoms: C_6  and  C_7
REMARK    5  A    between atoms: C_7  and  O_9
REMARK    6  A    between atoms: C_11  and  C_12
REMARK    7  A    between atoms: C_21  and  C_22
REMARK    8  A    between atoms: C_22  and  C_23
REMARK    9  A    between atoms: C_23  and  C_24
REMARK   10  A    between atoms: C_24  and  O_25
REMARK                            x       y       z     vdW  Elec       q    Type
REMARK                         _______ _______ _______ _____ _____    ______ ____
ROOT
ATOM      1  C   UNL     1       6.375   5.963  17.653  0.00  0.00    +0.000 C 
ATOM      2  O   UNL     1       6.836   5.790  16.312  0.00  0.00    +0.000 OA
ATOM      3  C   UNL     1       6.093   4.979  15.494  0.00  0.00    +0.000 C 
ATOM      4  C   UNL     1       4.846   4.546  15.745  0.00  0.00    +0.000 C 
ATOM      5  C   UNL     1       4.082   4.929  16.977  0.00  0.00    +0.000 C 
ATOM      6  C   UNL     1       4.821   6.051  17.774  0.00  0.00    +0.000 C 
ENDROOT
BRANCH   5   7
ATOM      7  C   UNL     1       3.699   3.700  17.799  0.00  0.00    +0.000 A 
ATOM      8  C   UNL     1       4.140   2.421  17.522  0.00  0.00    +0.000 A 
ATOM      9  S   UNL     1       3.806   1.307  18.760  0.00  0.00    +0.000 S 
ATOM     10  C   UNL     1       2.801   2.426  19.586  0.00  0.00    +0.000 A 
ATOM     11  C   UNL     1       2.067   2.167  20.762  0.00  0.00    +0.000 A 
ATOM     12  C   UNL     1       1.173   3.125  21.229  0.00  0.00    +0.000 A 
ATOM     13  C   UNL     1       1.046   4.336  20.564  0.00  0.00    +0.000 A 
ATOM     14  C   UNL     1       1.853   4.628  19.451  0.00  0.00    +0.000 A 
ATOM     15  C   UNL     1       2.760   3.663  18.927  0.00  0.00    +0.000 A 
ENDBRANCH   5   7
BRANCH   3  16
ATOM     16  C   UNL     1       6.722   4.591  14.192  0.00  0.00    +0.000 C 
ATOM     17  O   UNL     1       7.489   5.275  13.536  0.00  0.00    +0.000 OA
BRANCH  16  18
ATOM     18  O   UNL     1       6.335   3.345  13.841  0.00  0.00    +0.000 OA
ATOM     19  H   UNL     1       5.780   2.948  14.541  0.00  0.00    +0.000 HD
ENDBRANCH  16  18
ENDBRANCH   3  16
BRANCH   1  20
ATOM     20  O   UNL     1       7.023   5.039  18.543  0.00  0.00    +0.000 OA
BRANCH  20  22
ATOM     21  C   UNL     1       8.287   7.120  18.866  0.00  0.00    +0.000 C 
ATOM     22  C   UNL     1       7.935   5.747  19.405  0.00  0.00    +0.000 C 
ENDBRANCH  20  22
ENDBRANCH   1  20
BRANCH   6  23
ATOM     23  C   UNL     1       4.462   7.478  17.235  0.00  0.00    +0.000 C 
BRANCH  23  24
ATOM     24  C   UNL     1       2.992   7.823  17.022  0.00  0.00    +0.000 C 
BRANCH  24  25
ATOM     25  C   UNL     1       2.434   8.793  18.051  0.00  0.00    +0.000 C 
BRANCH  25  26
ATOM     26  O   UNL     1       1.808   9.878  17.383  0.00  0.00    +0.000 OA
ATOM     27  H   UNL     1       1.032  10.144  17.905  0.00  0.00    +0.000 HD
ENDBRANCH  25  26
ENDBRANCH  24  25
ENDBRANCH  23  24
ENDBRANCH   6  23
TORSDOF 9
ENDMDL
MODEL 2
REMARK VINA RESULT:      -6.9      2.854      5.148
REMARK  Name = 
REMARK  10 active torsions:
REMARK  status: ('A' for Active; 'I' for Inactive)
REMARK    1  A    between atoms: C_1  and  C_2
REMARK    2  A    between atoms: C_2  and  O_3
REMARK    3  A    between atoms: O_3  and  C_4
REMARK    4  A    between atoms: C_6  and  C_7
REMARK    5  A    between atoms: C_7  and  O_9
REMARK    6  A    between atoms: C_11  and  C_12
REMARK    7  A    between atoms: C_21  and  C_22
REMARK    8  A    between atoms: C_22  and  C_23
REMARK    9  A    between atoms: C_23  and  C_24
REMARK   10  A    between atoms: C_24  and  O_25
REMARK                            x       y       z     vdW  Elec       q    Type
REMARK                         _______ _______ _______ _____ _____    ______ ____
ROOT
ATOM      1  C   UNL     1       4.576   4.597  16.727  0.00  0.00    +0.000 C 
ATOM      2  O   UNL     1       5.792   4.409  17.451  0.00  0.00    +0.000 OA
ATOM      3  C   UNL     1       5.894   5.022  18.674  0.00  0.00    +0.000 C 
ATOM      4  C   UNL     1       4.875   5.557  19.367  0.00  0.00    +0.000 C 
ATOM      5  C   UNL     1       3.456   5.528  18.886  0.00  0.00    +0.000 C 
ATOM      6  C   UNL     1       3.303   4.609  17.632  0.00  0.00    +0.000 C 
ENDROOT
BRANCH   5   7
ATOM      7  C   UNL     1       2.893   6.939  18.724  0.00  0.00    +0.000 A 
ATOM      8  C   UNL     1       3.217   7.781  17.679  0.00  0.00    +0.000 A 
ATOM      9  S   UNL     1       2.227   9.158  17.588  0.00  0.00    +0.000 S 
ATOM     10  C   UNL     1       1.516   8.829  19.115  0.00  0.00    +0.000 A 
ATOM     11  C   UNL     1       0.572   9.639  19.779  0.00  0.00    +0.000 A 
ATOM     12  C   UNL     1       0.204   9.322  21.083  0.00  0.00    +0.000 A 
ATOM     13  C   UNL     1       0.730   8.195  21.696  0.00  0.00    +0.000 A 
ATOM     14  C   UNL     1       1.592   7.336  20.994  0.00  0.00    +0.000 A 
ATOM     15  C   UNL     1       2.014   7.640  19.668  0.00  0.00    +0.000 A 
ENDBRANCH   5   7
BRANCH   3  16
ATOM     16  C   UNL     1       7.256   5.045  19.295  0.00  0.00    +0.000 C 
ATOM     17  O   UNL     1       7.526   5.458  20.410  0.00  0.00    +0.000 OA
BRANCH  16  18
ATOM     18  O   UNL     1       8.165   4.519  18.446  0.00  0.00    +0.000 OA
ATOM     19  H   UNL     1       8.785   5.209  18.137  0.00  0.00    +0.000 HD
ENDBRANCH  16  18
ENDBRANCH   3  16
BRANCH   1  20
ATOM     20  O   UNL     1       4.694   5.685  15.795  0.00  0.00    +0.000 OA
BRANCH  20  22
ATOM     21  C   UNL     1       5.682   4.176  14.128  0.00  0.00    +0.000 C 
ATOM     22  C   UNL     1       5.818   5.461  14.921  0.00  0.00    +0.000 C 
ENDBRANCH  20  22
ENDBRANCH   1  20
BRANCH   6  23
ATOM     23  C   UNL     1       3.088   3.110  18.034  0.00  0.00    +0.000 C 
BRANCH  23  24
ATOM     24  C   UNL     1       2.549   2.803  19.427  0.00  0.00    +0.000 C 
BRANCH  24  25
ATOM     25  C   UNL     1       1.094   2.364  19.439  0.00  0.00    +0.000 C 
BRANCH  25  26
ATOM     26  O   UNL     1       0.344   3.249  20.259  0.00  0.00    +0.000 OA
ATOM     27  H   UNL     1      -0.272   3.738  19.686  0.00  0.00    +0.000 HD
ENDBRANCH  25  26
ENDBRANCH  24  25
ENDBRANCH  23  24
ENDBRANCH   6  23
TORSDOF 9
ENDMDL
MODEL 3
REMARK VINA RESULT:      -6.8      2.531      5.064
REMARK  Name = 
REMARK  10 active torsions:
REMARK  status: ('A' for Active; 'I' for Inactive)
REMARK    1  A    between atoms: C_1  and  C_2
REMARK    2  A    between atoms: C_2  and  O_3
REMARK    3  A    between atoms: O_3  and  C_4
REMARK    4  A    between atoms: C_6  and  C_7
REMARK    5  A    between atoms: C_7  and  O_9
REMARK    6  A    between atoms: C_11  and  C_12
REMARK    7  A    between atoms: C_21  and  C_22
REMARK    8  A    between atoms: C_22  and  C_23
REMARK    9  A    between atoms: C_23  and  C_24
REMARK   10  A    between atoms: C_24  and  O_25
REMARK                            x       y       z     vdW  Elec       q    Type
REMARK                         _______ _______ _______ _____ _____    ______ ____
ROOT
ATOM      1  C   UNL     1       5.476   5.186  18.225  0.00  0.00    +0.000 C 
ATOM      2  O   UNL     1       5.112   3.810  18.100  0.00  0.00    +0.000 OA
ATOM      3  C   UNL     1       3.773   3.514  18.113  0.00  0.00    +0.000 C 
ATOM      4  C   UNL     1       2.774   4.401  17.968  0.00  0.00    +0.000 C 
ATOM      5  C   UNL     1       3.008   5.864  17.743  0.00  0.00    +0.000 C 
ATOM      6  C   UNL     1       4.518   6.159  17.469  0.00  0.00    +0.000 C 
ENDROOT
BRANCH   5   7
ATOM      7  C   UNL     1       2.377   6.706  18.851  0.00  0.00    +0.000 A 
ATOM      8  C   UNL     1       2.051   6.214  20.100  0.00  0.00    +0.000 A 
ATOM      9  S   UNL     1       1.648   7.426  21.219  0.00  0.00    +0.000 S 
ATOM     10  C   UNL     1       1.610   8.632  20.000  0.00  0.00    +0.000 A 
ATOM     11  C   UNL     1       1.259   9.986  20.186  0.00  0.00    +0.000 A 
ATOM     12  C   UNL     1       1.122  10.810  19.074  0.00  0.00    +0.000 A 
ATOM     13  C   UNL     1       1.374  10.310  17.805  0.00  0.00    +0.000 A 
ATOM     14  C   UNL     1       1.821   8.989  17.634  0.00  0.00    +0.000 A 
ATOM     15  C   UNL     1       1.948   8.106  18.745  0.00  0.00    +0.000 A 
ENDBRANCH   5   7
BRANCH   3  16
ATOM     16  C   UNL     1       3.413   2.067  18.254  0.00  0.00    +0.000 C 
ATOM     17  O   UNL     1       2.459   1.624  18.871  0.00  0.00    +0.000 OA
BRANCH  16  18
ATOM     18  O   UNL     1       4.294   1.299  17.576  0.00  0.00    +0.000 OA
ATOM     19  H   UNL     1       4.561   1.737  16.744  0.00  0.00    +0.000 HD
ENDBRANCH  16  18
ENDBRANCH   3  16
BRANCH   1  20
ATOM     20  O   UNL     1       5.760   5.520  19.594  0.00  0.00    +0.000 OA
BRANCH  20  22
ATOM     21  C   UNL     1       7.905   6.378  18.760  0.00  0.00    +0.000 C 
ATOM     22  C   UNL     1       7.185   5.549  19.806  0.00  0.00    +0.000 C 
ENDBRANCH  20  22
ENDBRANCH   1  20
BRANCH   6  23
ATOM     23  C   UNL     1       4.879   5.976  15.956  0.00  0.00    +0.000 C 
BRANCH  23  24
ATOM     24  C   UNL     1       6.248   5.406  15.601  0.00  0.00    +0.000 C 
BRANCH  24  25
ATOM     25  C   UNL     1       6.189   4.163  14.727  0.00  0.00    +0.000 C 
BRANCH  25  26
ATOM     26  O   UNL     1       6.073   3.014  15.554  0.00  0.00    +0.000 OA
ATOM     27  H   UNL     1       5.971   3.315  16.473  0.00  0.00    +0.000 HD
ENDBRANCH  25  26
ENDBRANCH  24  25
ENDBRANCH  23  24
ENDBRANCH   6  23
TORSDOF 9
ENDMDL
MODEL 4
REMARK VINA RESULT:      -6.8      2.832      5.391
REMARK  Name = 
REMARK  10 active torsions:
REMARK  status: ('A' for Active; 'I' for Inactive)
REMARK    1  A    between atoms: C_1  and  C_2
REMARK    2  A    between atoms: C_2  and  O_3
REMARK    3  A    between atoms: O_3  and  C_4
REMARK    4  A    between atoms: C_6  and  C_7
REMARK    5  A    between atoms: C_7  and  O_9
REMARK    6  A    between atoms: C_11  and  C_12
REMARK    7  A    between atoms: C_21  and  C_22
REMARK    8  A    between atoms: C_22  and  C_23
REMARK    9  A    between atoms: C_23  and  C_24
REMARK   10  A    between atoms: C_24  and  O_25
REMARK                            x       y       z     vdW  Elec       q    Type
REMARK                         _______ _______ _______ _____ _____    ______ ____
ROOT
ATOM      1  C   UNL     1       3.734   4.025  17.546  0.00  0.00    +0.000 C 
ATOM      2  O   UNL     1       5.083   3.907  18.002  0.00  0.00    +0.000 OA
ATOM      3  C   UNL     1       5.509   4.814  18.938  0.00  0.00    +0.000 C 
ATOM      4  C   UNL     1       4.716   5.628  19.655  0.00  0.00    +0.000 C 
ATOM      5  C   UNL     1       3.222   5.627  19.535  0.00  0.00    +0.000 C 
ATOM      6  C   UNL     1       2.726   4.424  18.669  0.00  0.00    +0.000 C 
ENDROOT
BRANCH   5   7
ATOM      7  C   UNL     1       2.697   6.994  19.100  0.00  0.00    +0.000 A 
ATOM      8  C   UNL     1       3.082   7.631  17.936  0.00  0.00    +0.000 A 
ATOM      9  S   UNL     1       2.127   8.983  17.558  0.00  0.00    +0.000 S 
ATOM     10  C   UNL     1       1.347   8.943  19.086  0.00  0.00    +0.000 A 
ATOM     11  C   UNL     1       0.394   9.872  19.553  0.00  0.00    +0.000 A 
ATOM     12  C   UNL     1      -0.034   9.798  20.875  0.00  0.00    +0.000 A 
ATOM     13  C   UNL     1       0.442   8.791  21.702  0.00  0.00    +0.000 A 
ATOM     14  C   UNL     1       1.313   7.808  21.202  0.00  0.00    +0.000 A 
ATOM     15  C   UNL     1       1.795   7.865  19.863  0.00  0.00    +0.000 A 
ENDBRANCH   5   7
BRANCH   3  16
ATOM     16  C   UNL     1       6.981   4.854  19.204  0.00  0.00    +0.000 C 
ATOM     17  O   UNL     1       7.518   5.335  20.187  0.00  0.00    +0.000 OA
BRANCH  16  18
ATOM     18  O   UNL     1       7.654   4.255  18.196  0.00  0.00    +0.000 OA
ATOM     19  H   UNL     1       7.668   4.830  17.405  0.00  0.00    +0.000 HD
ENDBRANCH  16  18
ENDBRANCH   3  16
BRANCH   1  20
ATOM     20  O   UNL     1       3.665   4.797  16.336  0.00  0.00    +0.000 OA
BRANCH  20  22
ATOM     21  C   UNL     1       5.497   6.143  15.407  0.00  0.00    +0.000 C 
ATOM     22  C   UNL     1       4.934   4.757  15.655  0.00  0.00    +0.000 C 
ENDBRANCH  20  22
ENDBRANCH   1  20
BRANCH   6  23
ATOM     23  C   UNL     1       2.553   3.125  19.528  0.00  0.00    +0.000 C 
BRANCH  23  24
ATOM     24  C   UNL     1       1.249   2.930  20.294  0.00  0.00    +0.000 C 
BRANCH  24  25
ATOM     25  C   UNL     1       1.445   2.520  21.745  0.00  0.00    +0.000 C 
BRANCH  25  26
ATOM     26  O   UNL     1       2.827   2.573  22.065  0.00  0.00    +0.000 OA
ATOM     27  H   UNL     1       2.952   3.260  22.742  0.00  0.00    +0.000 HD
ENDBRANCH  25  26
ENDBRANCH  24  25
ENDBRANCH  23  24
ENDBRANCH   6  23
TORSDOF 9
ENDMDL
MODEL 5
REMARK VINA RESULT:      -6.7      1.419      4.300
REMARK  Name = 
REMARK  10 active torsions:
REMARK  status: ('A' for Active; 'I' for Inactive)
REMARK    1  A    between atoms: C_1  and  C_2
REMARK    2  A    between atoms: C_2  and  O_3
REMARK    3  A    between atoms: O_3  and  C_4
REMARK    4  A    between atoms: C_6  and  C_7
REMARK    5  A    between atoms: C_7  and  O_9
REMARK    6  A    between atoms: C_11  and  C_12
REMARK    7  A    between atoms: C_21  and  C_22
REMARK    8  A    between atoms: C_22  and  C_23
REMARK    9  A    between atoms: C_23  and  C_24
REMARK   10  A    between atoms: C_24  and  O_25
REMARK                            x       y       z     vdW  Elec       q    Type
REMARK                         _______ _______ _______ _____ _____    ______ ____
ROOT
ATOM      1  C   UNL     1       4.942   6.639  16.961  0.00  0.00    +0.000 C 
ATOM      2  O   UNL     1       6.151   6.756  17.713  0.00  0.00    +0.000 OA
ATOM      3  C   UNL     1       6.566   5.649  18.406  0.00  0.00    +0.000 C 
ATOM      4  C   UNL     1       6.098   4.400  18.238  0.00  0.00    +0.000 C 
ATOM      5  C   UNL     1       5.050   4.050  17.225  0.00  0.00    +0.000 C 
ATOM      6  C   UNL     1       4.768   5.251  16.266  0.00  0.00    +0.000 C 
ENDROOT
BRANCH   5   7
ATOM      7  C   UNL     1       3.812   3.451  17.889  0.00  0.00    +0.000 A 
ATOM      8  C   UNL     1       3.256   2.239  17.529  0.00  0.00    +0.000 A 
ATOM      9  S   UNL     1       2.080   1.684  18.621  0.00  0.00    +0.000 S 
ATOM     10  C   UNL     1       2.059   3.179  19.462  0.00  0.00    +0.000 A 
ATOM     11  C   UNL     1       1.213   3.509  20.541  0.00  0.00    +0.000 A 
ATOM     12  C   UNL     1       1.202   4.816  21.020  0.00  0.00    +0.000 A 
ATOM     13  C   UNL     1       2.050   5.763  20.466  0.00  0.00    +0.000 A 
ATOM     14  C   UNL     1       2.963   5.404  19.460  0.00  0.00    +0.000 A 
ATOM     15  C   UNL     1       2.986   4.084  18.925  0.00  0.00    +0.000 A 
ENDBRANCH   5   7
BRANCH   3  16
ATOM     16  C   UNL     1       7.669   5.858  19.396  0.00  0.00    +0.000 C 
ATOM     17  O   UNL     1       7.863   5.197  20.402  0.00  0.00    +0.000 OA
BRANCH  16  18
ATOM     18  O   UNL     1       8.453   6.889  19.010  0.00  0.00    +0.000 OA
ATOM     19  H   UNL     1       8.044   7.742  19.257  0.00  0.00    +0.000 HD
ENDBRANCH  16  18
ENDBRANCH   3  16
BRANCH   1  20
ATOM     20  O   UNL     1       3.815   7.108  17.719  0.00  0.00    +0.000 OA
BRANCH  20  22
ATOM     21  C   UNL     1       2.045   8.806  17.834  0.00  0.00    +0.000 C 
ATOM     22  C   UNL     1       3.184   8.206  17.033  0.00  0.00    +0.000 C 
ENDBRANCH  20  22
ENDBRANCH   1  20
BRANCH   6  23
ATOM     23  C   UNL     1       5.772   5.280  15.064  0.00  0.00    +0.000 C 
BRANCH  23  24
ATOM     24  C   UNL     1       6.232   3.953  14.471  0.00  0.00    +0.000 C 
BRANCH  24  25
ATOM     25  C   UNL     1       6.401   3.981  12.960  0.00  0.00    +0.000 C 
BRANCH  25  26
ATOM     26  O   UNL     1       6.380   2.653  12.461  0.00  0.00    +0.000 OA
ATOM     27  H   UNL     1       5.851   2.648  11.644  0.00  0.00    +0.000 HD
ENDBRANCH  25  26
ENDBRANCH  24  25
ENDBRANCH  23  24
ENDBRANCH   6  23
TORSDOF 9
ENDMDL
MODEL 6
REMARK VINA RESULT:      -6.7      2.079      2.867
REMARK  Name = 
REMARK  10 active torsions:
REMARK  status: ('A' for Active; 'I' for Inactive)
REMARK    1  A    between atoms: C_1  and  C_2
REMARK    2  A    between atoms: C_2  and  O_3
REMARK    3  A    between atoms: O_3  and  C_4
REMARK    4  A    between atoms: C_6  and  C_7
REMARK    5  A    between atoms: C_7  and  O_9
REMARK    6  A    between atoms: C_11  and  C_12
REMARK    7  A    between atoms: C_21  and  C_22
REMARK    8  A    between atoms: C_22  and  C_23
REMARK    9  A    between atoms: C_23  and  C_24
REMARK   10  A    between atoms: C_24  and  O_25
REMARK                            x       y       z     vdW  Elec       q    Type
REMARK                         _______ _______ _______ _____ _____    ______ ____
ROOT
ATOM      1  C   UNL     1       7.397   5.559  17.309  0.00  0.00    +0.000 C 
ATOM      2  O   UNL     1       7.678   5.294  15.933  0.00  0.00    +0.000 OA
ATOM      3  C   UNL     1       6.605   5.173  15.088  0.00  0.00    +0.000 C 
ATOM      4  C   UNL     1       5.342   5.537  15.370  0.00  0.00    +0.000 C 
ATOM      5  C   UNL     1       4.944   6.161  16.673  0.00  0.00    +0.000 C 
ATOM      6  C   UNL     1       6.198   6.535  17.527  0.00  0.00    +0.000 C 
ENDROOT
BRANCH   5   7
ATOM      7  C   UNL     1       3.899   5.316  17.399  0.00  0.00    +0.000 A 
ATOM      8  C   UNL     1       3.555   4.031  17.026  0.00  0.00    +0.000 A 
ATOM      9  S   UNL     1       2.597   3.227  18.176  0.00  0.00    +0.000 S 
ATOM     10  C   UNL     1       2.361   4.665  19.082  0.00  0.00    +0.000 A 
ATOM     11  C   UNL     1       1.558   4.794  20.234  0.00  0.00    +0.000 A 
ATOM     12  C   UNL     1       1.339   6.059  20.770  0.00  0.00    +0.000 A 
ATOM     13  C   UNL     1       1.946   7.168  20.199  0.00  0.00    +0.000 A 
ATOM     14  C   UNL     1       2.826   7.021  19.114  0.00  0.00    +0.000 A 
ATOM     15  C   UNL     1       3.054   5.746  18.520  0.00  0.00    +0.000 A 
ENDBRANCH   5   7
BRANCH   3  16
ATOM     16  C   UNL     1       6.892   4.632  13.722  0.00  0.00    +0.000 C 
ATOM     17  O   UNL     1       6.369   3.654  13.215  0.00  0.00    +0.000 OA
BRANCH  16  18
ATOM     18  O   UNL     1       7.814   5.400  13.100  0.00  0.00    +0.000 OA
ATOM     19  H   UNL     1       7.469   6.305  12.962  0.00  0.00    +0.000 HD
ENDBRANCH  16  18
ENDBRANCH   3  16
BRANCH   1  20
ATOM     20  O   UNL     1       7.363   4.341  18.071  0.00  0.00    +0.000 OA
BRANCH  20  22
ATOM     21  C   UNL     1       8.058   5.459  20.144  0.00  0.00    +0.000 C 
ATOM     22  C   UNL     1       7.006   4.627  19.437  0.00  0.00    +0.000 C 
ENDBRANCH  20  22
ENDBRANCH   1  20
BRANCH   6  23
ATOM     23  C   UNL     1       6.761   7.946  17.143  0.00  0.00    +0.000 C 
BRANCH  23  24
ATOM     24  C   UNL     1       8.080   8.393  17.763  0.00  0.00    +0.000 C 
BRANCH  24  25
ATOM     25  C   UNL     1       8.179   9.895  17.979  0.00  0.00    +0.000 C 
BRANCH  25  26
ATOM     26  O   UNL     1       9.283  10.176  18.826  0.00  0.00    +0.000 OA
ATOM     27  H   UNL     1       8.955  10.686  19.586  0.00  0.00    +0.000 HD
ENDBRANCH  25  26
ENDBRANCH  24  25
ENDBRANCH  23  24
ENDBRANCH   6  23
TORSDOF 9
ENDMDL
MODEL 7
REMARK VINA RESULT:      -6.7      2.586      5.298
REMARK  Name = 
REMARK  10 active torsions:
REMARK  status: ('A' for Active; 'I' for Inactive)
REMARK    1  A    between atoms: C_1  and  C_2
REMARK    2  A    between atoms: C_2  and  O_3
REMARK    3  A    between atoms: O_3  and  C_4
REMARK    4  A    between atoms: C_6  and  C_7
REMARK    5  A    between atoms: C_7  and  O_9
REMARK    6  A    between atoms: C_11  and  C_12
REMARK    7  A    between atoms: C_21  and  C_22
REMARK    8  A    between atoms: C_22  and  C_23
REMARK    9  A    between atoms: C_23  and  C_24
REMARK   10  A    between atoms: C_24  and  O_25
REMARK                            x       y       z     vdW  Elec       q    Type
REMARK                         _______ _______ _______ _____ _____    ______ ____
ROOT
ATOM      1  C   UNL     1       4.431   4.337  16.876  0.00  0.00    +0.000 C 
ATOM      2  O   UNL     1       5.712   4.192  17.489  0.00  0.00    +0.000 OA
ATOM      3  C   UNL     1       5.948   4.920  18.626  0.00  0.00    +0.000 C 
ATOM      4  C   UNL     1       5.013   5.547  19.361  0.00  0.00    +0.000 C 
ATOM      5  C   UNL     1       3.552   5.505  19.031  0.00  0.00    +0.000 C 
ATOM      6  C   UNL     1       3.258   4.470  17.898  0.00  0.00    +0.000 C 
ENDROOT
BRANCH   5   7
ATOM      7  C   UNL     1       2.996   6.906  18.784  0.00  0.00    +0.000 A 
ATOM      8  C   UNL     1       3.385   7.715  17.734  0.00  0.00    +0.000 A 
ATOM      9  S   UNL     1       2.398   9.082  17.532  0.00  0.00    +0.000 S 
ATOM     10  C   UNL     1       1.590   8.801  19.019  0.00  0.00    +0.000 A 
ATOM     11  C   UNL     1       0.602   9.628  19.592  0.00  0.00    +0.000 A 
ATOM     12  C   UNL     1       0.150   9.353  20.880  0.00  0.00    +0.000 A 
ATOM     13  C   UNL     1       0.639   8.251  21.564  0.00  0.00    +0.000 A 
ATOM     14  C   UNL     1       1.548   7.373  20.949  0.00  0.00    +0.000 A 
ATOM     15  C   UNL     1       2.054   7.635  19.644  0.00  0.00    +0.000 A 
ENDBRANCH   5   7
BRANCH   3  16
ATOM     16  C   UNL     1       7.366   4.972  19.102  0.00  0.00    +0.000 C 
ATOM     17  O   UNL     1       8.335   4.525  18.513  0.00  0.00    +0.000 OA
BRANCH  16  18
ATOM     18  O   UNL     1       7.437   5.612  20.290  0.00  0.00    +0.000 OA
ATOM     19  H   UNL     1       7.913   5.065  20.946  0.00  0.00    +0.000 HD
ENDBRANCH  16  18
ENDBRANCH   3  16
BRANCH   1  20
ATOM     20  O   UNL     1       4.469   5.323  15.831  0.00  0.00    +0.000 OA
BRANCH  20  22
ATOM     21  C   UNL     1       5.646   4.122  14.041  0.00  0.00    +0.000 C 
ATOM     22  C   UNL     1       5.702   5.211  15.095  0.00  0.00    +0.000 C 
ENDBRANCH  20  22
ENDBRANCH   1  20
BRANCH   6  23
ATOM     23  C   UNL     1       3.064   3.025  18.469  0.00  0.00    +0.000 C 
BRANCH  23  24
ATOM     24  C   UNL     1       2.955   2.851  19.980  0.00  0.00    +0.000 C 
BRANCH  24  25
ATOM     25  C   UNL     1       4.083   2.032  20.587  0.00  0.00    +0.000 C 
BRANCH  25  26
ATOM     26  O   UNL     1       5.154   1.950  19.659  0.00  0.00    +0.000 OA
ATOM     27  H   UNL     1       5.700   1.180  19.898  0.00  0.00    +0.000 HD
ENDBRANCH  25  26
ENDBRANCH  24  25
ENDBRANCH  23  24
ENDBRANCH   6  23
TORSDOF 9
ENDMDL
MODEL 8
REMARK VINA RESULT:      -6.7      2.889      5.797
REMARK  Name = 
REMARK  10 active torsions:
REMARK  status: ('A' for Active; 'I' for Inactive)
REMARK    1  A    between atoms: C_1  and  C_2
REMARK    2  A    between atoms: C_2  and  O_3
REMARK    3  A    between atoms: O_3  and  C_4
REMARK    4  A    between atoms: C_6  and  C_7
REMARK    5  A    between atoms: C_7  and  O_9
REMARK    6  A    between atoms: C_11  and  C_12
REMARK    7  A    between atoms: C_21  and  C_22
REMARK    8  A    between atoms: C_22  and  C_23
REMARK    9  A    between atoms: C_23  and  C_24
REMARK   10  A    between atoms: C_24  and  O_25
REMARK                            x       y       z     vdW  Elec       q    Type
REMARK                         _______ _______ _______ _____ _____    ______ ____
ROOT
ATOM      1  C   UNL     1       1.862   4.730  17.790  0.00  0.00    +0.000 C 
ATOM      2  O   UNL     1       1.405   4.206  19.038  0.00  0.00    +0.000 OA
ATOM      3  C   UNL     1       2.264   4.288  20.103  0.00  0.00    +0.000 C 
ATOM      4  C   UNL     1       3.376   5.041  20.154  0.00  0.00    +0.000 C 
ATOM      5  C   UNL     1       3.813   5.929  19.029  0.00  0.00    +0.000 C 
ATOM      6  C   UNL     1       2.708   6.035  17.930  0.00  0.00    +0.000 C 
ENDROOT
BRANCH   5   7
ATOM      7  C   UNL     1       5.197   5.536  18.515  0.00  0.00    +0.000 A 
ATOM      8  C   UNL     1       6.301   5.369  19.328  0.00  0.00    +0.000 A 
ATOM      9  S   UNL     1       7.619   4.647  18.538  0.00  0.00    +0.000 S 
ATOM     10  C   UNL     1       6.868   4.798  17.003  0.00  0.00    +0.000 A 
ATOM     11  C   UNL     1       7.437   4.439  15.764  0.00  0.00    +0.000 A 
ATOM     12  C   UNL     1       6.767   4.765  14.589  0.00  0.00    +0.000 A 
ATOM     13  C   UNL     1       5.533   5.395  14.648  0.00  0.00    +0.000 A 
ATOM     14  C   UNL     1       4.924   5.658  15.886  0.00  0.00    +0.000 A 
ATOM     15  C   UNL     1       5.589   5.364  17.111  0.00  0.00    +0.000 A 
ENDBRANCH   5   7
BRANCH   3  16
ATOM     16  C   UNL     1       1.891   3.502  21.321  0.00  0.00    +0.000 C 
ATOM     17  O   UNL     1       2.541   3.425  22.350  0.00  0.00    +0.000 OA
BRANCH  16  18
ATOM     18  O   UNL     1       0.702   2.889  21.135  0.00  0.00    +0.000 OA
ATOM     19  H   UNL     1       0.535   2.240  21.847  0.00  0.00    +0.000 HD
ENDBRANCH  16  18
ENDBRANCH   3  16
BRANCH   1  20
ATOM     20  O   UNL     1       2.434   3.694  16.975  0.00  0.00    +0.000 OA
BRANCH  20  22
ATOM     21  C   UNL     1       3.671   1.817  17.964  0.00  0.00    +0.000 C 
ATOM     22  C   UNL     1       2.319   2.423  17.643  0.00  0.00    +0.000 C 
ENDBRANCH  20  22
ENDBRANCH   1  20
BRANCH   6  23
ATOM     23  C   UNL     1       1.661   7.151  18.266  0.00  0.00    +0.000 C 
BRANCH  23  24
ATOM     24  C   UNL     1       1.887   8.550  17.702  0.00  0.00    +0.000 C 
BRANCH  24  25
ATOM     25  C   UNL     1       1.133   9.641  18.446  0.00  0.00    +0.000 C 
BRANCH  25  26
ATOM     26  O   UNL     1       1.652  10.908  18.071  0.00  0.00    +0.000 OA
ATOM     27  H   UNL     1       2.608  10.905  18.247  0.00  0.00    +0.000 HD
ENDBRANCH  25  26
ENDBRANCH  24  25
ENDBRANCH  23  24
ENDBRANCH   6  23
TORSDOF 9
ENDMDL
MODEL 9
REMARK VINA RESULT:      -6.7      2.763      5.120
REMARK  Name = 
REMARK  10 active torsions:
REMARK  status: ('A' for Active; 'I' for Inactive)
REMARK    1  A    between atoms: C_1  and  C_2
REMARK    2  A    between atoms: C_2  and  O_3
REMARK    3  A    between atoms: O_3  and  C_4
REMARK    4  A    between atoms: C_6  and  C_7
REMARK    5  A    between atoms: C_7  and  O_9
REMARK    6  A    between atoms: C_11  and  C_12
REMARK    7  A    between atoms: C_21  and  C_22
REMARK    8  A    between atoms: C_22  and  C_23
REMARK    9  A    between atoms: C_23  and  C_24
REMARK   10  A    between atoms: C_24  and  O_25
REMARK                            x       y       z     vdW  Elec       q    Type
REMARK                         _______ _______ _______ _____ _____    ______ ____
ROOT
ATOM      1  C   UNL     1       5.727   4.659  18.537  0.00  0.00    +0.000 C 
ATOM      2  O   UNL     1       5.172   3.576  19.285  0.00  0.00    +0.000 OA
ATOM      3  C   UNL     1       3.815   3.580  19.479  0.00  0.00    +0.000 C 
ATOM      4  C   UNL     1       2.932   4.350  18.820  0.00  0.00    +0.000 C 
ATOM      5  C   UNL     1       3.334   5.310  17.741  0.00  0.00    +0.000 C 
ATOM      6  C   UNL     1       4.832   5.118  17.342  0.00  0.00    +0.000 C 
ENDROOT
BRANCH   5   7
ATOM      7  C   UNL     1       2.940   6.742  18.095  0.00  0.00    +0.000 A 
ATOM      8  C   UNL     1       3.321   7.850  17.363  0.00  0.00    +0.000 A 
ATOM      9  S   UNL     1       2.502   9.269  17.807  0.00  0.00    +0.000 S 
ATOM     10  C   UNL     1       1.819   8.522  19.191  0.00  0.00    +0.000 A 
ATOM     11  C   UNL     1       1.007   9.153  20.156  0.00  0.00    +0.000 A 
ATOM     12  C   UNL     1       0.656   8.455  21.308  0.00  0.00    +0.000 A 
ATOM     13  C   UNL     1       1.065   7.141  21.474  0.00  0.00    +0.000 A 
ATOM     14  C   UNL     1       1.788   6.485  20.464  0.00  0.00    +0.000 A 
ATOM     15  C   UNL     1       2.190   7.172  19.282  0.00  0.00    +0.000 A 
ENDBRANCH   5   7
BRANCH   3  16
ATOM     16  C   UNL     1       3.283   2.604  20.482  0.00  0.00    +0.000 C 
ATOM     17  O   UNL     1       3.919   2.087  21.384  0.00  0.00    +0.000 OA
BRANCH  16  18
ATOM     18  O   UNL     1       1.969   2.380  20.263  0.00  0.00    +0.000 OA
ATOM     19  H   UNL     1       1.720   1.482  20.561  0.00  0.00    +0.000 HD
ENDBRANCH  16  18
ENDBRANCH   3  16
BRANCH   1  20
ATOM     20  O   UNL     1       6.195   5.701  19.408  0.00  0.00    +0.000 OA
BRANCH  20  22
ATOM     21  C   UNL     1       7.867   7.038  18.206  0.00  0.00    +0.000 C 
ATOM     22  C   UNL     1       7.603   5.921  19.197  0.00  0.00    +0.000 C 
ENDBRANCH  20  22
ENDBRANCH   1  20
BRANCH   6  23
ATOM     23  C   UNL     1       5.005   3.995  16.263  0.00  0.00    +0.000 C 
BRANCH  23  24
ATOM     24  C   UNL     1       5.344   4.408  14.835  0.00  0.00    +0.000 C 
BRANCH  24  25
ATOM     25  C   UNL     1       6.828   4.331  14.509  0.00  0.00    +0.000 C 
BRANCH  25  26
ATOM     26  O   UNL     1       7.486   5.467  15.049  0.00  0.00    +0.000 OA
ATOM     27  H   UNL     1       7.054   6.262  14.691  0.00  0.00    +0.000 HD
ENDBRANCH  25  26
ENDBRANCH  24  25
ENDBRANCH  23  24
ENDBRANCH   6  23
TORSDOF 9
ENDMDL
