MODEL 1
REMARK VINA RESULT:      -8.7      0.000      0.000
REMARK  Name = 
REMARK  5 active torsions:
REMARK  status: ('A' for Active; 'I' for Inactive)
REMARK    1  A    between atoms: C_1  and  O_2
REMARK    2  A    between atoms: O_2  and  C_3
REMARK    3  A    between atoms: C_11  and  C_12
REMARK    4  A    between atoms: C_12  and  C_13
REMARK    5  A    between atoms: C_15  and  C_16
REMARK                            x       y       z     vdW  Elec       q    Type
REMARK                         _______ _______ _______ _____ _____    ______ ____
ROOT
ATOM      1  C   UNL     1       3.646   4.011  19.575  0.00  0.00    +0.000 A 
ATOM      2  C   UNL     1       2.309   4.260  19.241  0.00  0.00    +0.000 A 
ATOM      3  C   UNL     1       1.966   5.248  18.322  0.00  0.00    +0.000 A 
ATOM      4  C   UNL     1       2.964   5.974  17.683  0.00  0.00    +0.000 A 
ATOM      5  C   UNL     1       4.310   5.719  17.973  0.00  0.00    +0.000 A 
ATOM      6  C   UNL     1       4.653   4.782  18.971  0.00  0.00    +0.000 A 
ATOM      7  O   UNL     1       5.961   4.563  19.325  0.00  0.00    +0.000 OA
ATOM      8  C   UNL     1       6.920   5.485  18.803  0.00  0.00    +0.000 C 
ATOM      9  C   UNL     1       6.718   5.723  17.310  0.00  0.00    +0.000 C 
ATOM     10  C   UNL     1       5.373   6.441  17.185  0.00  0.00    +0.000 C 
ENDROOT
BRANCH   1  12
ATOM     11  C   UNL     1       2.663   2.638  21.281  0.00  0.00    +0.000 C 
ATOM     12  O   UNL     1       3.781   2.991  20.481  0.00  0.00    +0.000 OA
ENDBRANCH   1  12
BRANCH   9  13
ATOM     13  C   UNL     1       6.777   4.381  16.544  0.00  0.00    +0.000 C 
BRANCH  13  14
ATOM     14  C   UNL     1       6.890   4.525  15.049  0.00  0.00    +0.000 A 
ATOM     15  C   UNL     1       6.112   3.737  14.208  0.00  0.00    +0.000 A 
ATOM     16  C   UNL     1       6.294   3.830  12.826  0.00  0.00    +0.000 A 
ATOM     17  C   UNL     1       7.239   4.723  12.330  0.00  0.00    +0.000 A 
ATOM     18  C   UNL     1       7.962   5.480  13.240  0.00  0.00    +0.000 A 
ATOM     19  N   UNL     1       7.810   5.396  14.579  0.00  0.00    +0.000 NA
BRANCH  16  20
ATOM     20  C   UNL     1       5.470   2.936  11.961  0.00  0.00    +0.000 C 
ATOM     21  N   UNL     1       5.980   1.720  11.598  0.00  0.00    +0.000 N 
ATOM     22  O   UNL     1       4.353   3.264  11.587  0.00  0.00    +0.000 OA
ATOM     23  H   UNL     1       6.873   1.348  11.876  0.00  0.00    +0.000 HD
ATOM     24  H   UNL     1       5.375   1.130  11.042  0.00  0.00    +0.000 HD
ENDBRANCH  16  20
ENDBRANCH  13  14
ENDBRANCH   9  13
TORSDOF 4
ENDMDL
MODEL 2
REMARK VINA RESULT:      -8.6      1.175      1.278
REMARK  Name = 
REMARK  5 active torsions:
REMARK  status: ('A' for Active; 'I' for Inactive)
REMARK    1  A    between atoms: C_1  and  O_2
REMARK    2  A    between atoms: O_2  and  C_3
REMARK    3  A    between atoms: C_11  and  C_12
REMARK    4  A    between atoms: C_12  and  C_13
REMARK    5  A    between atoms: C_15  and  C_16
REMARK                            x       y       z     vdW  Elec       q    Type
REMARK                         _______ _______ _______ _____ _____    ______ ____
ROOT
ATOM      1  C   UNL     1       4.427   2.658  19.296  0.00  0.00    +0.000 A 
ATOM      2  C   UNL     1       3.237   2.025  18.915  0.00  0.00    +0.000 A 
ATOM      3  C   UNL     1       2.444   2.533  17.889  0.00  0.00    +0.000 A 
ATOM      4  C   UNL     1       2.857   3.661  17.192  0.00  0.00    +0.000 A 
ATOM      5  C   UNL     1       4.062   4.292  17.529  0.00  0.00    +0.000 A 
ATOM      6  C   UNL     1       4.817   3.830  18.628  0.00  0.00    +0.000 A 
ATOM      7  O   UNL     1       5.964   4.470  19.025  0.00  0.00    +0.000 OA
ATOM      8  C   UNL     1       6.220   5.741  18.422  0.00  0.00    +0.000 C 
ATOM      9  C   UNL     1       6.033   5.693  16.909  0.00  0.00    +0.000 C 
ATOM     10  C   UNL     1       4.540   5.444  16.685  0.00  0.00    +0.000 C 
ENDROOT
BRANCH   1  12
ATOM     11  C   UNL     1       4.315   1.552  21.424  0.00  0.00    +0.000 C 
ATOM     12  O   UNL     1       5.072   1.997  20.309  0.00  0.00    +0.000 OA
ENDBRANCH   1  12
BRANCH   9  13
ATOM     13  C   UNL     1       6.941   4.603  16.294  0.00  0.00    +0.000 C 
BRANCH  13  14
ATOM     14  C   UNL     1       7.010   4.629  14.789  0.00  0.00    +0.000 A 
ATOM     15  C   UNL     1       6.197   3.789  14.036  0.00  0.00    +0.000 A 
ATOM     16  C   UNL     1       6.337   3.772  12.646  0.00  0.00    +0.000 A 
ATOM     17  C   UNL     1       7.276   4.611  12.054  0.00  0.00    +0.000 A 
ATOM     18  C   UNL     1       8.035   5.426  12.880  0.00  0.00    +0.000 A 
ATOM     19  N   UNL     1       7.924   5.449  14.225  0.00  0.00    +0.000 NA
BRANCH  16  20
ATOM     20  C   UNL     1       5.477   2.825  11.879  0.00  0.00    +0.000 C 
ATOM     21  N   UNL     1       5.975   1.591  11.566  0.00  0.00    +0.000 N 
ATOM     22  O   UNL     1       4.341   3.126  11.541  0.00  0.00    +0.000 OA
ATOM     23  H   UNL     1       6.882   1.238  11.822  0.00  0.00    +0.000 HD
ATOM     24  H   UNL     1       5.347   0.966  11.077  0.00  0.00    +0.000 HD
ENDBRANCH  16  20
ENDBRANCH  13  14
ENDBRANCH   9  13
TORSDOF 4
ENDMDL
MODEL 3
REMARK VINA RESULT:      -8.4      1.025      1.062
REMARK  Name = 
REMARK  5 active torsions:
REMARK  status: ('A' for Active; 'I' for Inactive)
REMARK    1  A    between atoms: C_1  and  O_2
REMARK    2  A    between atoms: O_2  and  C_3
REMARK    3  A    between atoms: C_11  and  C_12
REMARK    4  A    between atoms: C_12  and  C_13
REMARK    5  A    between atoms: C_15  and  C_16
REMARK                            x       y       z     vdW  Elec       q    Type
REMARK                         _______ _______ _______ _____ _____    ______ ____
ROOT
ATOM      1  C   UNL     1       3.736   5.057  19.531  0.00  0.00    +0.000 A 
ATOM      2  C   UNL     1       2.544   5.750  19.285  0.00  0.00    +0.000 A 
ATOM      3  C   UNL     1       2.498   6.813  18.387  0.00  0.00    +0.000 A 
ATOM      4  C   UNL     1       3.640   7.170  17.681  0.00  0.00    +0.000 A 
ATOM      5  C   UNL     1       4.836   6.470  17.882  0.00  0.00    +0.000 A 
ATOM      6  C   UNL     1       4.904   5.454  18.859  0.00  0.00    +0.000 A 
ATOM      7  O   UNL     1       6.080   4.799  19.126  0.00  0.00    +0.000 OA
ATOM      8  C   UNL     1       7.260   5.352  18.538  0.00  0.00    +0.000 C 
ATOM      9  C   UNL     1       7.055   5.672  17.061  0.00  0.00    +0.000 C 
ATOM     10  C   UNL     1       6.027   6.805  17.022  0.00  0.00    +0.000 C 
ENDROOT
BRANCH   1  12
ATOM     11  C   UNL     1       3.418   2.713  19.939  0.00  0.00    +0.000 C 
ATOM     12  O   UNL     1       3.575   4.035  20.430  0.00  0.00    +0.000 OA
ENDBRANCH   1  12
BRANCH   9  13
ATOM     13  C   UNL     1       6.608   4.404  16.298  0.00  0.00    +0.000 C 
BRANCH  13  14
ATOM     14  C   UNL     1       6.781   4.485  14.804  0.00  0.00    +0.000 A 
ATOM     15  C   UNL     1       6.002   3.696  13.964  0.00  0.00    +0.000 A 
ATOM     16  C   UNL     1       6.238   3.729  12.588  0.00  0.00    +0.000 A 
ATOM     17  C   UNL     1       7.235   4.565  12.094  0.00  0.00    +0.000 A 
ATOM     18  C   UNL     1       7.955   5.327  13.002  0.00  0.00    +0.000 A 
ATOM     19  N   UNL     1       7.751   5.301  14.337  0.00  0.00    +0.000 NA
BRANCH  16  20
ATOM     20  C   UNL     1       5.410   2.835  11.726  0.00  0.00    +0.000 C 
ATOM     21  N   UNL     1       4.152   3.240  11.376  0.00  0.00    +0.000 N 
ATOM     22  O   UNL     1       5.840   1.765  11.320  0.00  0.00    +0.000 OA
ATOM     23  H   UNL     1       3.719   4.112  11.634  0.00  0.00    +0.000 HD
ATOM     24  H   UNL     1       3.638   2.623  10.761  0.00  0.00    +0.000 HD
ENDBRANCH  16  20
ENDBRANCH  13  14
ENDBRANCH   9  13
TORSDOF 4
ENDMDL
MODEL 4
REMARK VINA RESULT:      -7.7      1.131      1.136
REMARK  Name = 
REMARK  5 active torsions:
REMARK  status: ('A' for Active; 'I' for Inactive)
REMARK    1  A    between atoms: C_1  and  O_2
REMARK    2  A    between atoms: O_2  and  C_3
REMARK    3  A    between atoms: C_11  and  C_12
REMARK    4  A    between atoms: C_12  and  C_13
REMARK    5  A    between atoms: C_15  and  C_16
REMARK                            x       y       z     vdW  Elec       q    Type
REMARK                         _______ _______ _______ _____ _____    ______ ____
ROOT
ATOM      1  C   UNL     1       3.304   4.239  20.051  0.00  0.00    +0.000 A 
ATOM      2  C   UNL     1       2.138   4.968  20.318  0.00  0.00    +0.000 A 
ATOM      3  C   UNL     1       1.948   6.244  19.795  0.00  0.00    +0.000 A 
ATOM      4  C   UNL     1       2.905   6.794  18.951  0.00  0.00    +0.000 A 
ATOM      5  C   UNL     1       4.063   6.071  18.639  0.00  0.00    +0.000 A 
ATOM      6  C   UNL     1       4.297   4.817  19.243  0.00  0.00    +0.000 A 
ATOM      7  O   UNL     1       5.455   4.119  19.010  0.00  0.00    +0.000 OA
ATOM      8  C   UNL     1       6.491   4.823  18.322  0.00  0.00    +0.000 C 
ATOM      9  C   UNL     1       5.955   5.553  17.094  0.00  0.00    +0.000 C 
ATOM     10  C   UNL     1       5.029   6.644  17.635  0.00  0.00    +0.000 C 
ENDROOT
BRANCH   1  12
ATOM     11  C   UNL     1       2.138   2.590  21.348  0.00  0.00    +0.000 C 
ATOM     12  O   UNL     1       3.297   3.001  20.639  0.00  0.00    +0.000 OA
ENDBRANCH   1  12
BRANCH   9  13
ATOM     13  C   UNL     1       5.249   4.555  16.147  0.00  0.00    +0.000 C 
BRANCH  13  14
ATOM     14  C   UNL     1       5.857   4.470  14.771  0.00  0.00    +0.000 A 
ATOM     15  C   UNL     1       5.302   3.632  13.810  0.00  0.00    +0.000 A 
ATOM     16  C   UNL     1       5.931   3.509  12.569  0.00  0.00    +0.000 A 
ATOM     17  C   UNL     1       7.088   4.243  12.324  0.00  0.00    +0.000 A 
ATOM     18  C   UNL     1       7.565   5.065  13.335  0.00  0.00    +0.000 A 
ATOM     19  N   UNL     1       6.979   5.189  14.545  0.00  0.00    +0.000 NA
BRANCH  16  20
ATOM     20  C   UNL     1       5.329   2.566  11.582  0.00  0.00    +0.000 C 
ATOM     21  N   UNL     1       4.096   2.855  11.067  0.00  0.00    +0.000 N 
ATOM     22  O   UNL     1       5.919   1.558  11.221  0.00  0.00    +0.000 OA
ATOM     23  H   UNL     1       3.543   3.669  11.277  0.00  0.00    +0.000 HD
ATOM     24  H   UNL     1       3.739   2.209  10.373  0.00  0.00    +0.000 HD
ENDBRANCH  16  20
ENDBRANCH  13  14
ENDBRANCH   9  13
TORSDOF 4
ENDMDL
MODEL 5
REMARK VINA RESULT:      -7.6      1.138      1.190
REMARK  Name = 
REMARK  5 active torsions:
REMARK  status: ('A' for Active; 'I' for Inactive)
REMARK    1  A    between atoms: C_1  and  O_2
REMARK    2  A    between atoms: O_2  and  C_3
REMARK    3  A    between atoms: C_11  and  C_12
REMARK    4  A    between atoms: C_12  and  C_13
REMARK    5  A    between atoms: C_15  and  C_16
REMARK                            x       y       z     vdW  Elec       q    Type
REMARK                         _______ _______ _______ _____ _____    ______ ____
ROOT
ATOM      1  C   UNL     1       3.893   3.611  19.656  0.00  0.00    +0.000 A 
ATOM      2  C   UNL     1       2.739   4.135  20.253  0.00  0.00    +0.000 A 
ATOM      3  C   UNL     1       2.380   5.469  20.083  0.00  0.00    +0.000 A 
ATOM      4  C   UNL     1       3.147   6.292  19.268  0.00  0.00    +0.000 A 
ATOM      5  C   UNL     1       4.285   5.783  18.630  0.00  0.00    +0.000 A 
ATOM      6  C   UNL     1       4.699   4.457  18.877  0.00  0.00    +0.000 A 
ATOM      7  O   UNL     1       5.849   3.953  18.321  0.00  0.00    +0.000 OA
ATOM      8  C   UNL     1       6.708   4.899  17.681  0.00  0.00    +0.000 C 
ATOM      9  C   UNL     1       5.931   5.828  16.753  0.00  0.00    +0.000 C 
ATOM     10  C   UNL     1       5.034   6.666  17.665  0.00  0.00    +0.000 C 
ENDROOT
BRANCH   1  12
ATOM     11  C   UNL     1       3.592   1.325  18.988  0.00  0.00    +0.000 C 
ATOM     12  O   UNL     1       4.066   2.278  19.926  0.00  0.00    +0.000 OA
ENDBRANCH   1  12
BRANCH   9  13
ATOM     13  C   UNL     1       5.150   5.001  15.705  0.00  0.00    +0.000 C 
BRANCH  13  14
ATOM     14  C   UNL     1       5.913   4.731  14.435  0.00  0.00    +0.000 A 
ATOM     15  C   UNL     1       5.488   3.736  13.560  0.00  0.00    +0.000 A 
ATOM     16  C   UNL     1       6.258   3.448  12.431  0.00  0.00    +0.000 A 
ATOM     17  C   UNL     1       7.420   4.180  12.204  0.00  0.00    +0.000 A 
ATOM     18  C   UNL     1       7.762   5.162  13.121  0.00  0.00    +0.000 A 
ATOM     19  N   UNL     1       7.039   5.447  14.224  0.00  0.00    +0.000 NA
BRANCH  16  20
ATOM     20  C   UNL     1       5.791   2.345  11.542  0.00  0.00    +0.000 C 
ATOM     21  N   UNL     1       6.677   1.367  11.188  0.00  0.00    +0.000 N 
ATOM     22  O   UNL     1       4.637   2.295  11.140  0.00  0.00    +0.000 OA
ATOM     23  H   UNL     1       7.636   1.302  11.487  0.00  0.00    +0.000 HD
ATOM     24  H   UNL     1       6.311   0.617  10.614  0.00  0.00    +0.000 HD
ENDBRANCH  16  20
ENDBRANCH  13  14
ENDBRANCH   9  13
TORSDOF 4
ENDMDL
MODEL 6
REMARK VINA RESULT:      -7.6      1.236      1.423
REMARK  Name = 
REMARK  5 active torsions:
REMARK  status: ('A' for Active; 'I' for Inactive)
REMARK    1  A    between atoms: C_1  and  O_2
REMARK    2  A    between atoms: O_2  and  C_3
REMARK    3  A    between atoms: C_11  and  C_12
REMARK    4  A    between atoms: C_12  and  C_13
REMARK    5  A    between atoms: C_15  and  C_16
REMARK                            x       y       z     vdW  Elec       q    Type
REMARK                         _______ _______ _______ _____ _____    ______ ____
ROOT
ATOM      1  C   UNL     1       3.489   2.942  20.060  0.00  0.00    +0.000 A 
ATOM      2  C   UNL     1       2.127   2.654  19.903  0.00  0.00    +0.000 A 
ATOM      3  C   UNL     1       1.340   3.356  18.993  0.00  0.00    +0.000 A 
ATOM      4  C   UNL     1       1.919   4.329  18.187  0.00  0.00    +0.000 A 
ATOM      5  C   UNL     1       3.286   4.609  18.299  0.00  0.00    +0.000 A 
ATOM      6  C   UNL     1       4.062   3.962  19.284  0.00  0.00    +0.000 A 
ATOM      7  O   UNL     1       5.388   4.269  19.463  0.00  0.00    +0.000 OA
ATOM      8  C   UNL     1       5.870   5.421  18.768  0.00  0.00    +0.000 C 
ATOM      9  C   UNL     1       5.429   5.422  17.308  0.00  0.00    +0.000 C 
ATOM     10  C   UNL     1       3.909   5.587  17.336  0.00  0.00    +0.000 C 
ENDROOT
BRANCH   1  12
ATOM     11  C   UNL     1       5.000   1.139  20.538  0.00  0.00    +0.000 C 
ATOM     12  O   UNL     1       4.093   2.133  20.988  0.00  0.00    +0.000 OA
ENDBRANCH   1  12
BRANCH   9  13
ATOM     13  C   UNL     1       5.898   4.126  16.609  0.00  0.00    +0.000 C 
BRANCH  13  14
ATOM     14  C   UNL     1       6.288   4.306  15.164  0.00  0.00    +0.000 A 
ATOM     15  C   UNL     1       5.625   3.601  14.166  0.00  0.00    +0.000 A 
ATOM     16  C   UNL     1       6.058   3.722  12.844  0.00  0.00    +0.000 A 
ATOM     17  C   UNL     1       7.133   4.561  12.561  0.00  0.00    +0.000 A 
ATOM     18  C   UNL     1       7.727   5.236  13.616  0.00  0.00    +0.000 A 
ATOM     19  N   UNL     1       7.332   5.123  14.902  0.00  0.00    +0.000 NA
BRANCH  16  20
ATOM     20  C   UNL     1       5.348   2.915  11.809  0.00  0.00    +0.000 C 
ATOM     21  N   UNL     1       4.255   3.456  11.191  0.00  0.00    +0.000 N 
ATOM     22  O   UNL     1       5.731   1.797  11.499  0.00  0.00    +0.000 OA
ATOM     23  H   UNL     1       3.879   4.375  11.354  0.00  0.00    +0.000 HD
ATOM     24  H   UNL     1       3.824   2.892  10.470  0.00  0.00    +0.000 HD
ENDBRANCH  16  20
ENDBRANCH  13  14
ENDBRANCH   9  13
TORSDOF 4
ENDMDL
MODEL 7
REMARK VINA RESULT:      -7.4      4.346      7.519
REMARK  Name = 
REMARK  5 active torsions:
REMARK  status: ('A' for Active; 'I' for Inactive)
REMARK    1  A    between atoms: C_1  and  O_2
REMARK    2  A    between atoms: O_2  and  C_3
REMARK    3  A    between atoms: C_11  and  C_12
REMARK    4  A    between atoms: C_12  and  C_13
REMARK    5  A    between atoms: C_15  and  C_16
REMARK                            x       y       z     vdW  Elec       q    Type
REMARK                         _______ _______ _______ _____ _____    ______ ____
ROOT
ATOM      1  C   UNL     1       6.722   4.776  17.911  0.00  0.00    +0.000 A 
ATOM      2  C   UNL     1       7.143   4.408  16.626  0.00  0.00    +0.000 A 
ATOM      3  C   UNL     1       6.228   4.025  15.649  0.00  0.00    +0.000 A 
ATOM      4  C   UNL     1       4.868   4.051  15.928  0.00  0.00    +0.000 A 
ATOM      5  C   UNL     1       4.419   4.450  17.193  0.00  0.00    +0.000 A 
ATOM      6  C   UNL     1       5.351   4.749  18.211  0.00  0.00    +0.000 A 
ATOM      7  O   UNL     1       4.941   5.074  19.479  0.00  0.00    +0.000 OA
ATOM      8  C   UNL     1       3.556   4.870  19.769  0.00  0.00    +0.000 C 
ATOM      9  C   UNL     1       2.662   5.434  18.669  0.00  0.00    +0.000 C 
ATOM     10  C   UNL     1       2.937   4.576  17.433  0.00  0.00    +0.000 C 
ENDROOT
BRANCH   1  12
ATOM     11  C   UNL     1       8.082   6.514  18.856  0.00  0.00    +0.000 C 
ATOM     12  O   UNL     1       7.767   5.137  18.723  0.00  0.00    +0.000 OA
ENDBRANCH   1  12
BRANCH   9  13
ATOM     13  C   UNL     1       2.960   6.936  18.459  0.00  0.00    +0.000 C 
BRANCH  13  14
ATOM     14  C   UNL     1       2.044   7.862  19.216  0.00  0.00    +0.000 A 
ATOM     15  C   UNL     1       1.567   9.022  18.616  0.00  0.00    +0.000 A 
ATOM     16  C   UNL     1       0.787   9.905  19.365  0.00  0.00    +0.000 A 
ATOM     17  C   UNL     1       0.494   9.589  20.689  0.00  0.00    +0.000 A 
ATOM     18  C   UNL     1       1.000   8.405  21.204  0.00  0.00    +0.000 A 
ATOM     19  N   UNL     1       1.766   7.544  20.500  0.00  0.00    +0.000 NA
BRANCH  16  20
ATOM     20  C   UNL     1       0.331  11.159  18.697  0.00  0.00    +0.000 C 
ATOM     21  N   UNL     1       1.273  12.041  18.245  0.00  0.00    +0.000 N 
ATOM     22  O   UNL     1      -0.857  11.401  18.537  0.00  0.00    +0.000 OA
ATOM     23  H   UNL     1       2.270  11.922  18.302  0.00  0.00    +0.000 HD
ATOM     24  H   UNL     1       0.923  12.861  17.765  0.00  0.00    +0.000 HD
ENDBRANCH  16  20
ENDBRANCH  13  14
ENDBRANCH   9  13
TORSDOF 4
ENDMDL
MODEL 8
REMARK VINA RESULT:      -7.3      1.539      1.735
REMARK  Name = 
REMARK  5 active torsions:
REMARK  status: ('A' for Active; 'I' for Inactive)
REMARK    1  A    between atoms: C_1  and  O_2
REMARK    2  A    between atoms: O_2  and  C_3
REMARK    3  A    between atoms: C_11  and  C_12
REMARK    4  A    between atoms: C_12  and  C_13
REMARK    5  A    between atoms: C_15  and  C_16
REMARK                            x       y       z     vdW  Elec       q    Type
REMARK                         _______ _______ _______ _____ _____    ______ ____
ROOT
ATOM      1  C   UNL     1       2.200   4.059  18.365  0.00  0.00    +0.000 A 
ATOM      2  C   UNL     1       1.561   4.954  19.233  0.00  0.00    +0.000 A 
ATOM      3  C   UNL     1       2.263   5.984  19.854  0.00  0.00    +0.000 A 
ATOM      4  C   UNL     1       3.612   6.166  19.575  0.00  0.00    +0.000 A 
ATOM      5  C   UNL     1       4.266   5.308  18.682  0.00  0.00    +0.000 A 
ATOM      6  C   UNL     1       3.576   4.210  18.126  0.00  0.00    +0.000 A 
ATOM      7  O   UNL     1       4.210   3.312  17.303  0.00  0.00    +0.000 OA
ATOM      8  C   UNL     1       5.633   3.417  17.231  0.00  0.00    +0.000 C 
ATOM      9  C   UNL     1       6.082   4.860  17.028  0.00  0.00    +0.000 C 
ATOM     10  C   UNL     1       5.698   5.596  18.313  0.00  0.00    +0.000 C 
ENDROOT
BRANCH   1  12
ATOM     11  C   UNL     1       0.742   2.185  18.716  0.00  0.00    +0.000 C 
ATOM     12  O   UNL     1       1.339   3.130  17.842  0.00  0.00    +0.000 OA
ENDBRANCH   1  12
BRANCH   9  13
ATOM     13  C   UNL     1       5.425   5.449  15.758  0.00  0.00    +0.000 C 
BRANCH  13  14
ATOM     14  C   UNL     1       6.054   4.994  14.467  0.00  0.00    +0.000 A 
ATOM     15  C   UNL     1       5.403   4.070  13.657  0.00  0.00    +0.000 A 
ATOM     16  C   UNL     1       6.043   3.602  12.507  0.00  0.00    +0.000 A 
ATOM     17  C   UNL     1       7.309   4.089  12.195  0.00  0.00    +0.000 A 
ATOM     18  C   UNL     1       7.879   5.019  13.052  0.00  0.00    +0.000 A 
ATOM     19  N   UNL     1       7.283   5.474  14.174  0.00  0.00    +0.000 NA
BRANCH  16  20
ATOM     20  C   UNL     1       5.329   2.579  11.689  0.00  0.00    +0.000 C 
ATOM     21  N   UNL     1       5.929   1.368  11.481  0.00  0.00    +0.000 N 
ATOM     22  O   UNL     1       4.221   2.798  11.220  0.00  0.00    +0.000 OA
ATOM     23  H   UNL     1       6.822   1.081  11.846  0.00  0.00    +0.000 HD
ATOM     24  H   UNL     1       5.396   0.690  10.952  0.00  0.00    +0.000 HD
ENDBRANCH  16  20
ENDBRANCH  13  14
ENDBRANCH   9  13
TORSDOF 4
ENDMDL
MODEL 9
REMARK VINA RESULT:      -7.0      1.346      1.536
REMARK  Name = 
REMARK  5 active torsions:
REMARK  status: ('A' for Active; 'I' for Inactive)
REMARK    1  A    between atoms: C_1  and  O_2
REMARK    2  A    between atoms: O_2  and  C_3
REMARK    3  A    between atoms: C_11  and  C_12
REMARK    4  A    between atoms: C_12  and  C_13
REMARK    5  A    between atoms: C_15  and  C_16
REMARK                            x       y       z     vdW  Elec       q    Type
REMARK                         _______ _______ _______ _____ _____    ______ ____
ROOT
ATOM      1  C   UNL     1       2.542   5.674  19.020  0.00  0.00    +0.000 A 
ATOM      2  C   UNL     1       1.741   6.821  18.937  0.00  0.00    +0.000 A 
ATOM      3  C   UNL     1       2.205   7.983  18.324  0.00  0.00    +0.000 A 
ATOM      4  C   UNL     1       3.465   8.000  17.739  0.00  0.00    +0.000 A 
ATOM      5  C   UNL     1       4.270   6.855  17.777  0.00  0.00    +0.000 A 
ATOM      6  C   UNL     1       3.837   5.709  18.478  0.00  0.00    +0.000 A 
ATOM      7  O   UNL     1       4.635   4.598  18.591  0.00  0.00    +0.000 OA
ATOM      8  C   UNL     1       5.992   4.749  18.169  0.00  0.00    +0.000 C 
ATOM      9  C   UNL     1       6.087   5.439  16.812  0.00  0.00    +0.000 C 
ATOM     10  C   UNL     1       5.584   6.866  17.039  0.00  0.00    +0.000 C 
ENDROOT
BRANCH   1  12
ATOM     11  C   UNL     1       2.113   4.436  21.031  0.00  0.00    +0.000 C 
ATOM     12  O   UNL     1       1.904   4.632  19.641  0.00  0.00    +0.000 OA
ENDBRANCH   1  12
BRANCH   9  13
ATOM     13  C   UNL     1       5.270   4.655  15.758  0.00  0.00    +0.000 C 
BRANCH  13  14
ATOM     14  C   UNL     1       5.969   4.485  14.434  0.00  0.00    +0.000 A 
ATOM     15  C   UNL     1       5.520   3.536  13.522  0.00  0.00    +0.000 A 
ATOM     16  C   UNL     1       6.233   3.340  12.337  0.00  0.00    +0.000 A 
ATOM     17  C   UNL     1       7.364   4.114  12.096  0.00  0.00    +0.000 A 
ATOM     18  C   UNL     1       7.733   5.046  13.054  0.00  0.00    +0.000 A 
ATOM     19  N   UNL     1       7.065   5.243  14.210  0.00  0.00    +0.000 NA
BRANCH  16  20
ATOM     20  C   UNL     1       5.744   2.282  11.406  0.00  0.00    +0.000 C 
ATOM     21  N   UNL     1       6.609   1.298  11.017  0.00  0.00    +0.000 N 
ATOM     22  O   UNL     1       4.590   2.274  11.000  0.00  0.00    +0.000 OA
ATOM     23  H   UNL     1       7.565   1.200  11.315  0.00  0.00    +0.000 HD
ATOM     24  H   UNL     1       6.228   0.579  10.414  0.00  0.00    +0.000 HD
ENDBRANCH  16  20
ENDBRANCH  13  14
ENDBRANCH   9  13
TORSDOF 4
ENDMDL
