MODEL 1
REMARK VINA RESULT:      -6.9      0.000      0.000
REMARK  Name = 
REMARK  10 active torsions:
REMARK  status: ('A' for Active; 'I' for Inactive)
REMARK    1  A    between atoms: C_1  and  C_2
REMARK    2  A    between atoms: C_7  and  O_8
REMARK    3  A    between atoms: C_9  and  C_10
REMARK    4  A    between atoms: C_10  and  N_11
REMARK    5  A    between atoms: C_15  and  C_16
REMARK    6  A    between atoms: C_16  and  O_18
REMARK    7  A    between atoms: C_19  and  O_20
REMARK    8  A    between atoms: C_21  and  C_22
REMARK    9  A    between atoms: N_25  and  C_26
REMARK   10  A    between atoms: C_28  and  O_29
REMARK                            x       y       z     vdW  Elec       q    Type
REMARK                         _______ _______ _______ _____ _____    ______ ____
ROOT
ATOM      1  C   UNL     1      -2.676   9.754  16.130  0.00  0.00    +0.000 C 
ATOM      2  C   UNL     1      -3.470  10.562  17.113  0.00  0.00    +0.000 A 
ATOM      3  C   UNL     1      -4.807  10.606  17.043  0.00  0.00    +0.000 A 
ATOM      4  C   UNL     1      -5.533  11.442  17.998  0.00  0.00    +0.000 A 
ATOM      5  O   UNL     1      -6.756  11.543  17.947  0.00  0.00    +0.000 OA
ATOM      6  C   UNL     1      -4.747  12.166  19.005  0.00  0.00    +0.000 A 
ATOM      7  C   UNL     1      -5.379  13.008  19.931  0.00  0.00    +0.000 A 
ATOM      8  C   UNL     1      -4.644  13.658  20.937  0.00  0.00    +0.000 A 
ATOM      9  C   UNL     1      -3.240  13.520  20.921  0.00  0.00    +0.000 A 
ATOM     10  C   UNL     1      -2.572  12.748  19.946  0.00  0.00    +0.000 A 
ATOM     11  C   UNL     1      -3.356  12.032  19.005  0.00  0.00    +0.000 A 
ATOM     12  O   UNL     1      -2.716  11.243  18.061  0.00  0.00    +0.000 OA
ENDROOT
BRANCH  10  13
ATOM     13  C   UNL     1      -1.052  12.811  19.795  0.00  0.00    +0.000 C 
ATOM     14  C   UNL     1      -0.381  11.428  19.920  0.00  0.00    +0.000 C 
ATOM     15  C   UNL     1       1.107  11.626  20.202  0.00  0.00    +0.000 C 
ATOM     16  N   UNL     1       1.801  12.439  19.200  0.00  0.00    +0.000 NA
ATOM     17  C   UNL     1       2.237  11.654  18.052  0.00  0.00    +0.000 C 
ATOM     18  C   UNL     1       1.090  13.681  18.835  0.00  0.00    +0.000 C 
ATOM     19  C   UNL     1      -0.443  13.576  18.597  0.00  0.00    +0.000 C 
BRANCH  19  20
ATOM     20  O   UNL     1      -0.685  13.001  17.311  0.00  0.00    +0.000 OA
ATOM     21  H   UNL     1      -0.923  13.718  16.701  0.00  0.00    +0.000 HD
ENDBRANCH  19  20
ENDBRANCH  10  13
BRANCH   7  22
ATOM     22  O   UNL     1      -6.728  13.270  19.856  0.00  0.00    +0.000 OA
ATOM     23  H   UNL     1      -7.007  13.220  18.912  0.00  0.00    +0.000 HD
ENDBRANCH   7  22
BRANCH   9  24
ATOM     24  O   UNL     1      -2.452  14.188  21.825  0.00  0.00    +0.000 OA
ATOM     25  H   UNL     1      -2.325  13.659  22.625  0.00  0.00    +0.000 HD
ENDBRANCH   9  24
BRANCH   8  26
ATOM     26  C   UNL     1      -5.358  14.545  21.929  0.00  0.00    +0.000 C 
BRANCH  26  27
ATOM     27  N   UNL     1      -5.231  14.214  23.344  0.00  0.00    +0.000 NA
ATOM     28  C   UNL     1      -4.362  14.911  24.268  0.00  0.00    +0.000 C 
ATOM     29  C   UNL     1      -3.641  13.826  25.047  0.00  0.00    +0.000 C 
ATOM     30  C   UNL     1      -4.552  12.613  24.990  0.00  0.00    +0.000 C 
ATOM     31  C   UNL     1      -5.413  12.803  23.744  0.00  0.00    +0.000 C 
BRANCH  31  32
ATOM     32  C   UNL     1      -6.893  12.595  24.099  0.00  0.00    +0.000 C 
ATOM     33  O   UNL     1      -7.525  11.562  23.888  0.00  0.00    +0.000 OA
BRANCH  32  34
ATOM     34  O   UNL     1      -7.441  13.673  24.733  0.00  0.00    +0.000 OA
ATOM     35  H   UNL     1      -8.191  13.313  25.254  0.00  0.00    +0.000 HD
ENDBRANCH  32  34
ENDBRANCH  31  32
ENDBRANCH  26  27
ENDBRANCH   8  26
TORSDOF 8
ENDMDL
MODEL 2
REMARK VINA RESULT:      -6.6      2.033      6.248
REMARK  Name = 
REMARK  10 active torsions:
REMARK  status: ('A' for Active; 'I' for Inactive)
REMARK    1  A    between atoms: C_1  and  C_2
REMARK    2  A    between atoms: C_7  and  O_8
REMARK    3  A    between atoms: C_9  and  C_10
REMARK    4  A    between atoms: C_10  and  N_11
REMARK    5  A    between atoms: C_15  and  C_16
REMARK    6  A    between atoms: C_16  and  O_18
REMARK    7  A    between atoms: C_19  and  O_20
REMARK    8  A    between atoms: C_21  and  C_22
REMARK    9  A    between atoms: N_25  and  C_26
REMARK   10  A    between atoms: C_28  and  O_29
REMARK                            x       y       z     vdW  Elec       q    Type
REMARK                         _______ _______ _______ _____ _____    ______ ____
ROOT
ATOM      1  C   UNL     1      -7.461  11.706  19.254  0.00  0.00    +0.000 C 
ATOM      2  C   UNL     1      -6.010  11.687  18.875  0.00  0.00    +0.000 A 
ATOM      3  C   UNL     1      -5.603  11.080  17.752  0.00  0.00    +0.000 A 
ATOM      4  C   UNL     1      -4.174  11.051  17.447  0.00  0.00    +0.000 A 
ATOM      5  O   UNL     1      -3.752  10.472  16.449  0.00  0.00    +0.000 OA
ATOM      6  C   UNL     1      -3.264  11.722  18.385  0.00  0.00    +0.000 A 
ATOM      7  C   UNL     1      -1.879  11.705  18.167  0.00  0.00    +0.000 A 
ATOM      8  C   UNL     1      -1.004  12.394  19.024  0.00  0.00    +0.000 A 
ATOM      9  C   UNL     1      -1.553  13.014  20.166  0.00  0.00    +0.000 A 
ATOM     10  C   UNL     1      -2.934  12.971  20.454  0.00  0.00    +0.000 A 
ATOM     11  C   UNL     1      -3.795  12.346  19.516  0.00  0.00    +0.000 A 
ATOM     12  O   UNL     1      -5.159  12.323  19.768  0.00  0.00    +0.000 OA
ENDROOT
BRANCH  10  13
ATOM     13  C   UNL     1      -3.472  13.429  21.810  0.00  0.00    +0.000 C 
ATOM     14  C   UNL     1      -2.798  12.707  22.995  0.00  0.00    +0.000 C 
ATOM     15  C   UNL     1      -3.671  12.879  24.236  0.00  0.00    +0.000 C 
ATOM     16  N   UNL     1      -3.947  14.276  24.583  0.00  0.00    +0.000 NA
ATOM     17  C   UNL     1      -2.885  14.871  25.383  0.00  0.00    +0.000 C 
ATOM     18  C   UNL     1      -4.365  15.109  23.436  0.00  0.00    +0.000 C 
ATOM     19  C   UNL     1      -3.568  14.943  22.113  0.00  0.00    +0.000 C 
BRANCH  19  20
ATOM     20  O   UNL     1      -2.320  15.631  22.221  0.00  0.00    +0.000 OA
ATOM     21  H   UNL     1      -1.730  15.098  22.778  0.00  0.00    +0.000 HD
ENDBRANCH  19  20
ENDBRANCH  10  13
BRANCH   7  22
ATOM     22  O   UNL     1      -1.324  10.972  17.143  0.00  0.00    +0.000 OA
ATOM     23  H   UNL     1      -2.036  10.445  16.710  0.00  0.00    +0.000 HD
ENDBRANCH   7  22
BRANCH   9  24
ATOM     24  O   UNL     1      -0.750  13.639  21.087  0.00  0.00    +0.000 OA
ATOM     25  H   UNL     1      -0.893  13.272  21.972  0.00  0.00    +0.000 HD
ENDBRANCH   9  24
BRANCH   8  26
ATOM     26  C   UNL     1       0.481  12.370  18.751  0.00  0.00    +0.000 C 
BRANCH  26  27
ATOM     27  N   UNL     1       1.190  11.117  18.984  0.00  0.00    +0.000 NA
ATOM     28  C   UNL     1       2.114  10.518  18.043  0.00  0.00    +0.000 C 
ATOM     29  C   UNL     1       1.731   9.050  17.976  0.00  0.00    +0.000 C 
ATOM     30  C   UNL     1       1.052   8.747  19.299  0.00  0.00    +0.000 C 
ATOM     31  C   UNL     1       0.524  10.086  19.807  0.00  0.00    +0.000 C 
BRANCH  31  32
ATOM     32  C   UNL     1       0.951  10.294  21.268  0.00  0.00    +0.000 C 
ATOM     33  O   UNL     1       0.807  11.339  21.898  0.00  0.00    +0.000 OA
BRANCH  32  34
ATOM     34  O   UNL     1       1.473   9.164  21.832  0.00  0.00    +0.000 OA
ATOM     35  H   UNL     1       0.945   8.423  21.464  0.00  0.00    +0.000 HD
ENDBRANCH  32  34
ENDBRANCH  31  32
ENDBRANCH  26  27
ENDBRANCH   8  26
TORSDOF 8
ENDMDL
MODEL 3
REMARK VINA RESULT:      -6.4      0.792      1.570
REMARK  Name = 
REMARK  10 active torsions:
REMARK  status: ('A' for Active; 'I' for Inactive)
REMARK    1  A    between atoms: C_1  and  C_2
REMARK    2  A    between atoms: C_7  and  O_8
REMARK    3  A    between atoms: C_9  and  C_10
REMARK    4  A    between atoms: C_10  and  N_11
REMARK    5  A    between atoms: C_15  and  C_16
REMARK    6  A    between atoms: C_16  and  O_18
REMARK    7  A    between atoms: C_19  and  O_20
REMARK    8  A    between atoms: C_21  and  C_22
REMARK    9  A    between atoms: N_25  and  C_26
REMARK   10  A    between atoms: C_28  and  O_29
REMARK                            x       y       z     vdW  Elec       q    Type
REMARK                         _______ _______ _______ _____ _____    ______ ____
ROOT
ATOM      1  C   UNL     1      -2.683   9.807  16.008  0.00  0.00    +0.000 C 
ATOM      2  C   UNL     1      -3.443  10.624  17.010  0.00  0.00    +0.000 A 
ATOM      3  C   UNL     1      -4.776  10.731  16.938  0.00  0.00    +0.000 A 
ATOM      4  C   UNL     1      -5.468  11.574  17.912  0.00  0.00    +0.000 A 
ATOM      5  O   UNL     1      -6.685  11.731  17.860  0.00  0.00    +0.000 OA
ATOM      6  C   UNL     1      -4.653  12.236  18.939  0.00  0.00    +0.000 A 
ATOM      7  C   UNL     1      -5.251  13.083  19.883  0.00  0.00    +0.000 A 
ATOM      8  C   UNL     1      -4.490  13.673  20.907  0.00  0.00    +0.000 A 
ATOM      9  C   UNL     1      -3.095  13.472  20.891  0.00  0.00    +0.000 A 
ATOM     10  C   UNL     1      -2.458  12.696  19.900  0.00  0.00    +0.000 A 
ATOM     11  C   UNL     1      -3.270  12.039  18.939  0.00  0.00    +0.000 A 
ATOM     12  O   UNL     1      -2.663  11.246  17.976  0.00  0.00    +0.000 OA
ENDROOT
BRANCH  10  13
ATOM     13  C   UNL     1      -0.936  12.694  19.754  0.00  0.00    +0.000 C 
ATOM     14  C   UNL     1      -0.354  14.107  19.550  0.00  0.00    +0.000 C 
ATOM     15  C   UNL     1       1.058  13.980  18.981  0.00  0.00    +0.000 C 
ATOM     16  N   UNL     1       1.962  13.171  19.804  0.00  0.00    +0.000 NA
ATOM     17  C   UNL     1       2.582  13.944  20.873  0.00  0.00    +0.000 C 
ATOM     18  C   UNL     1       1.381  11.891  20.257  0.00  0.00    +0.000 C 
ATOM     19  C   UNL     1      -0.080  11.925  20.787  0.00  0.00    +0.000 C 
BRANCH  19  20
ATOM     20  O   UNL     1      -0.090  12.455  22.115  0.00  0.00    +0.000 OA
ATOM     21  H   UNL     1      -1.008  12.671  22.345  0.00  0.00    +0.000 HD
ENDBRANCH  19  20
ENDBRANCH  10  13
BRANCH   7  22
ATOM     22  O   UNL     1      -6.586  13.407  19.812  0.00  0.00    +0.000 OA
ATOM     23  H   UNL     1      -7.116  12.625  20.093  0.00  0.00    +0.000 HD
ENDBRANCH   7  22
BRANCH   9  24
ATOM     24  O   UNL     1      -2.280  14.081  21.814  0.00  0.00    +0.000 OA
ATOM     25  H   UNL     1      -2.791  14.366  22.586  0.00  0.00    +0.000 HD
ENDBRANCH   9  24
BRANCH   8  26
ATOM     26  C   UNL     1      -5.168  14.566  21.920  0.00  0.00    +0.000 C 
BRANCH  26  27
ATOM     27  N   UNL     1      -5.099  14.170  23.322  0.00  0.00    +0.000 NA
ATOM     28  C   UNL     1      -4.162  14.721  24.278  0.00  0.00    +0.000 C 
ATOM     29  C   UNL     1      -3.589  13.527  25.020  0.00  0.00    +0.000 C 
ATOM     30  C   UNL     1      -4.641  12.438  24.911  0.00  0.00    +0.000 C 
ATOM     31  C   UNL     1      -5.457  12.778  23.668  0.00  0.00    +0.000 C 
BRANCH  31  32
ATOM     32  C   UNL     1      -6.956  12.741  24.003  0.00  0.00    +0.000 C 
ATOM     33  O   UNL     1      -7.619  13.714  24.357  0.00  0.00    +0.000 OA
BRANCH  32  34
ATOM     34  O   UNL     1      -7.509  11.506  23.818  0.00  0.00    +0.000 OA
ATOM     35  H   UNL     1      -7.009  10.907  24.412  0.00  0.00    +0.000 HD
ENDBRANCH  32  34
ENDBRANCH  31  32
ENDBRANCH  26  27
ENDBRANCH   8  26
TORSDOF 8
ENDMDL
MODEL 4
REMARK VINA RESULT:      -6.4      2.503      6.179
REMARK  Name = 
REMARK  10 active torsions:
REMARK  status: ('A' for Active; 'I' for Inactive)
REMARK    1  A    between atoms: C_1  and  C_2
REMARK    2  A    between atoms: C_7  and  O_8
REMARK    3  A    between atoms: C_9  and  C_10
REMARK    4  A    between atoms: C_10  and  N_11
REMARK    5  A    between atoms: C_15  and  C_16
REMARK    6  A    between atoms: C_16  and  O_18
REMARK    7  A    between atoms: C_19  and  O_20
REMARK    8  A    between atoms: C_21  and  C_22
REMARK    9  A    between atoms: N_25  and  C_26
REMARK   10  A    between atoms: C_28  and  O_29
REMARK                            x       y       z     vdW  Elec       q    Type
REMARK                         _______ _______ _______ _____ _____    ______ ____
ROOT
ATOM      1  C   UNL     1      -6.590  12.139  17.755  0.00  0.00    +0.000 C 
ATOM      2  C   UNL     1      -5.143  11.751  17.821  0.00  0.00    +0.000 A 
ATOM      3  C   UNL     1      -4.593  10.989  16.866  0.00  0.00    +0.000 A 
ATOM      4  C   UNL     1      -3.189  10.603  16.997  0.00  0.00    +0.000 A 
ATOM      5  O   UNL     1      -2.655   9.873  16.165  0.00  0.00    +0.000 OA
ATOM      6  C   UNL     1      -2.451  11.103  18.164  0.00  0.00    +0.000 A 
ATOM      7  C   UNL     1      -1.111  10.744  18.365  0.00  0.00    +0.000 A 
ATOM      8  C   UNL     1      -0.378  11.265  19.445  0.00  0.00    +0.000 A 
ATOM      9  C   UNL     1      -1.061  12.075  20.376  0.00  0.00    +0.000 A 
ATOM     10  C   UNL     1      -2.433  12.379  20.244  0.00  0.00    +0.000 A 
ATOM     11  C   UNL     1      -3.114  11.912  19.090  0.00  0.00    +0.000 A 
ATOM     12  O   UNL     1      -4.455  12.229  18.928  0.00  0.00    +0.000 OA
ENDROOT
BRANCH  10  13
ATOM     13  C   UNL     1      -3.207  13.043  21.382  0.00  0.00    +0.000 C 
ATOM     14  C   UNL     1      -2.965  12.365  22.746  0.00  0.00    +0.000 C 
ATOM     15  C   UNL     1      -4.077  12.780  23.706  0.00  0.00    +0.000 C 
ATOM     16  N   UNL     1      -4.208  14.231  23.876  0.00  0.00    +0.000 NA
ATOM     17  C   UNL     1      -3.294  14.757  24.881  0.00  0.00    +0.000 C 
ATOM     18  C   UNL     1      -4.198  14.988  22.608  0.00  0.00    +0.000 C 
ATOM     19  C   UNL     1      -3.137  14.580  21.548  0.00  0.00    +0.000 C 
BRANCH  19  20
ATOM     20  O   UNL     1      -1.861  15.102  21.927  0.00  0.00    +0.000 OA
ATOM     21  H   UNL     1      -1.235  14.918  21.208  0.00  0.00    +0.000 HD
ENDBRANCH  19  20
ENDBRANCH  10  13
BRANCH   7  22
ATOM     22  O   UNL     1      -0.483   9.833  17.548  0.00  0.00    +0.000 OA
ATOM     23  H   UNL     1      -0.090  10.313  16.782  0.00  0.00    +0.000 HD
ENDBRANCH   7  22
BRANCH   9  24
ATOM     24  O   UNL     1      -0.428  12.554  21.496  0.00  0.00    +0.000 OA
ATOM     25  H   UNL     1      -0.703  12.061  22.282  0.00  0.00    +0.000 HD
ENDBRANCH   9  24
BRANCH   8  26
ATOM     26  C   UNL     1       1.070  10.872  19.623  0.00  0.00    +0.000 C 
BRANCH  26  27
ATOM     27  N   UNL     1       1.348   9.599  20.278  0.00  0.00    +0.000 NA
ATOM     28  C   UNL     1       2.075   8.509  19.661  0.00  0.00    +0.000 C 
ATOM     29  C   UNL     1       1.260   7.261  19.952  0.00  0.00    +0.000 C 
ATOM     30  C   UNL     1       0.474   7.575  21.212  0.00  0.00    +0.000 C 
ATOM     31  C   UNL     1       0.367   9.096  21.262  0.00  0.00    +0.000 C 
BRANCH  31  32
ATOM     32  C   UNL     1       0.785   9.601  22.651  0.00  0.00    +0.000 C 
ATOM     33  O   UNL     1       0.036  10.166  23.446  0.00  0.00    +0.000 OA
BRANCH  32  34
ATOM     34  O   UNL     1       2.086   9.312  22.950  0.00  0.00    +0.000 OA
ATOM     35  H   UNL     1       2.621   9.849  22.327  0.00  0.00    +0.000 HD
ENDBRANCH  32  34
ENDBRANCH  31  32
ENDBRANCH  26  27
ENDBRANCH   8  26
TORSDOF 8
ENDMDL
MODEL 5
REMARK VINA RESULT:      -6.4      2.159      6.104
REMARK  Name = 
REMARK  10 active torsions:
REMARK  status: ('A' for Active; 'I' for Inactive)
REMARK    1  A    between atoms: C_1  and  C_2
REMARK    2  A    between atoms: C_7  and  O_8
REMARK    3  A    between atoms: C_9  and  C_10
REMARK    4  A    between atoms: C_10  and  N_11
REMARK    5  A    between atoms: C_15  and  C_16
REMARK    6  A    between atoms: C_16  and  O_18
REMARK    7  A    between atoms: C_19  and  O_20
REMARK    8  A    between atoms: C_21  and  C_22
REMARK    9  A    between atoms: N_25  and  C_26
REMARK   10  A    between atoms: C_28  and  O_29
REMARK                            x       y       z     vdW  Elec       q    Type
REMARK                         _______ _______ _______ _____ _____    ______ ____
ROOT
ATOM      1  C   UNL     1      -7.341  12.326  18.075  0.00  0.00    +0.000 C 
ATOM      2  C   UNL     1      -5.876  12.053  18.240  0.00  0.00    +0.000 A 
ATOM      3  C   UNL     1      -5.230  11.242  17.391  0.00  0.00    +0.000 A 
ATOM      4  C   UNL     1      -3.811  10.973  17.619  0.00  0.00    +0.000 A 
ATOM      5  O   UNL     1      -3.189  10.205  16.889  0.00  0.00    +0.000 OA
ATOM      6  C   UNL     1      -3.166  11.638  18.759  0.00  0.00    +0.000 A 
ATOM      7  C   UNL     1      -1.816  11.398  19.050  0.00  0.00    +0.000 A 
ATOM      8  C   UNL     1      -1.173  12.075  20.101  0.00  0.00    +0.000 A 
ATOM      9  C   UNL     1      -1.953  12.921  20.915  0.00  0.00    +0.000 A 
ATOM     10  C   UNL     1      -3.334  13.111  20.696  0.00  0.00    +0.000 A 
ATOM     11  C   UNL     1      -3.926  12.484  19.569  0.00  0.00    +0.000 A 
ATOM     12  O   UNL     1      -5.276  12.686  19.321  0.00  0.00    +0.000 OA
ENDROOT
BRANCH  10  13
ATOM     13  C   UNL     1      -4.207  13.827  21.728  0.00  0.00    +0.000 C 
ATOM     14  C   UNL     1      -5.046  14.966  21.113  0.00  0.00    +0.000 C 
ATOM     15  C   UNL     1      -5.522  15.886  22.235  0.00  0.00    +0.000 C 
ATOM     16  N   UNL     1      -6.284  15.203  23.285  0.00  0.00    +0.000 NA
ATOM     17  C   UNL     1      -7.694  15.066  22.949  0.00  0.00    +0.000 C 
ATOM     18  C   UNL     1      -5.661  13.951  23.761  0.00  0.00    +0.000 C 
ATOM     19  C   UNL     1      -5.090  12.989  22.682  0.00  0.00    +0.000 C 
BRANCH  19  20
ATOM     20  O   UNL     1      -6.165  12.278  22.063  0.00  0.00    +0.000 OA
ATOM     21  H   UNL     1      -6.929  12.875  22.009  0.00  0.00    +0.000 HD
ENDBRANCH  19  20
ENDBRANCH  10  13
BRANCH   7  22
ATOM     22  O   UNL     1      -1.089  10.458  18.357  0.00  0.00    +0.000 OA
ATOM     23  H   UNL     1      -0.161  10.468  18.689  0.00  0.00    +0.000 HD
ENDBRANCH   7  22
BRANCH   9  24
ATOM     24  O   UNL     1      -1.409  13.554  22.006  0.00  0.00    +0.000 OA
ATOM     25  H   UNL     1      -0.536  13.190  22.213  0.00  0.00    +0.000 HD
ENDBRANCH   9  24
BRANCH   8  26
ATOM     26  C   UNL     1       0.288  11.808  20.378  0.00  0.00    +0.000 C 
BRANCH  26  27
ATOM     27  N   UNL     1       0.639  10.519  20.965  0.00  0.00    +0.000 NA
ATOM     28  C   UNL     1       1.641   9.625  20.423  0.00  0.00    +0.000 C 
ATOM     29  C   UNL     1       1.001   8.248  20.428  0.00  0.00    +0.000 C 
ATOM     30  C   UNL     1      -0.056   8.295  21.516  0.00  0.00    +0.000 C 
ATOM     31  C   UNL     1      -0.419   9.769  21.673  0.00  0.00    +0.000 C 
BRANCH  31  32
ATOM     32  C   UNL     1      -0.369  10.161  23.157  0.00  0.00    +0.000 C 
ATOM     33  O   UNL     1       0.407   9.684  23.982  0.00  0.00    +0.000 OA
BRANCH  32  34
ATOM     34  O   UNL     1      -1.254  11.152  23.472  0.00  0.00    +0.000 OA
ATOM     35  H   UNL     1      -1.471  11.587  22.620  0.00  0.00    +0.000 HD
ENDBRANCH  32  34
ENDBRANCH  31  32
ENDBRANCH  26  27
ENDBRANCH   8  26
TORSDOF 8
ENDMDL
MODEL 6
REMARK VINA RESULT:      -6.3      2.224      6.070
REMARK  Name = 
REMARK  10 active torsions:
REMARK  status: ('A' for Active; 'I' for Inactive)
REMARK    1  A    between atoms: C_1  and  C_2
REMARK    2  A    between atoms: C_7  and  O_8
REMARK    3  A    between atoms: C_9  and  C_10
REMARK    4  A    between atoms: C_10  and  N_11
REMARK    5  A    between atoms: C_15  and  C_16
REMARK    6  A    between atoms: C_16  and  O_18
REMARK    7  A    between atoms: C_19  and  O_20
REMARK    8  A    between atoms: C_21  and  C_22
REMARK    9  A    between atoms: N_25  and  C_26
REMARK   10  A    between atoms: C_28  and  O_29
REMARK                            x       y       z     vdW  Elec       q    Type
REMARK                         _______ _______ _______ _____ _____    ______ ____
ROOT
ATOM      1  C   UNL     1      -6.902  12.290  17.246  0.00  0.00    +0.000 C 
ATOM      2  C   UNL     1      -5.453  12.038  17.541  0.00  0.00    +0.000 A 
ATOM      3  C   UNL     1      -4.684  11.363  16.676  0.00  0.00    +0.000 A 
ATOM      4  C   UNL     1      -3.289  11.105  17.028  0.00  0.00    +0.000 A 
ATOM      5  O   UNL     1      -2.558  10.457  16.283  0.00  0.00    +0.000 OA
ATOM      6  C   UNL     1      -2.802  11.632  18.310  0.00  0.00    +0.000 A 
ATOM      7  C   UNL     1      -1.483  11.394  18.722  0.00  0.00    +0.000 A 
ATOM      8  C   UNL     1      -0.988  11.945  19.916  0.00  0.00    +0.000 A 
ATOM      9  C   UNL     1      -1.889  12.655  20.737  0.00  0.00    +0.000 A 
ATOM     10  C   UNL     1      -3.244  12.834  20.387  0.00  0.00    +0.000 A 
ATOM     11  C   UNL     1      -3.682  12.344  19.129  0.00  0.00    +0.000 A 
ATOM     12  O   UNL     1      -5.003  12.540  18.755  0.00  0.00    +0.000 OA
ENDROOT
BRANCH  10  13
ATOM     13  C   UNL     1      -4.254  13.384  21.395  0.00  0.00    +0.000 C 
ATOM     14  C   UNL     1      -5.673  12.817  21.189  0.00  0.00    +0.000 C 
ATOM     15  C   UNL     1      -6.673  13.719  21.908  0.00  0.00    +0.000 C 
ATOM     16  N   UNL     1      -6.398  13.895  23.338  0.00  0.00    +0.000 NA
ATOM     17  C   UNL     1      -6.955  12.819  24.147  0.00  0.00    +0.000 C 
ATOM     18  C   UNL     1      -4.985  14.200  23.645  0.00  0.00    +0.000 C 
ATOM     19  C   UNL     1      -3.903  13.369  22.901  0.00  0.00    +0.000 C 
BRANCH  19  20
ATOM     20  O   UNL     1      -3.805  12.074  23.499  0.00  0.00    +0.000 OA
ATOM     21  H   UNL     1      -3.682  11.424  22.788  0.00  0.00    +0.000 HD
ENDBRANCH  19  20
ENDBRANCH  10  13
BRANCH   7  22
ATOM     22  O   UNL     1      -0.646  10.573  18.002  0.00  0.00    +0.000 OA
ATOM     23  H   UNL     1      -0.748   9.650  18.332  0.00  0.00    +0.000 HD
ENDBRANCH   7  22
BRANCH   9  24
ATOM     24  O   UNL     1      -1.495  13.154  21.954  0.00  0.00    +0.000 OA
ATOM     25  H   UNL     1      -1.702  14.097  22.021  0.00  0.00    +0.000 HD
ENDBRANCH   9  24
BRANCH   8  26
ATOM     26  C   UNL     1       0.443  11.683  20.322  0.00  0.00    +0.000 C 
BRANCH  26  27
ATOM     27  N   UNL     1       0.739  10.411  20.973  0.00  0.00    +0.000 NA
ATOM     28  C   UNL     1       1.762   9.488  20.528  0.00  0.00    +0.000 C 
ATOM     29  C   UNL     1       1.106   8.119  20.536  0.00  0.00    +0.000 C 
ATOM     30  C   UNL     1      -0.019   8.214  21.550  0.00  0.00    +0.000 C 
ATOM     31  C   UNL     1      -0.372   9.697  21.635  0.00  0.00    +0.000 C 
BRANCH  31  32
ATOM     32  C   UNL     1      -0.414  10.138  23.105  0.00  0.00    +0.000 C 
ATOM     33  O   UNL     1      -1.249  10.903  23.584  0.00  0.00    +0.000 OA
BRANCH  32  34
ATOM     34  O   UNL     1       0.557   9.547  23.863  0.00  0.00    +0.000 OA
ATOM     35  H   UNL     1       0.890  10.255  24.455  0.00  0.00    +0.000 HD
ENDBRANCH  32  34
ENDBRANCH  31  32
ENDBRANCH  26  27
ENDBRANCH   8  26
TORSDOF 8
ENDMDL
MODEL 7
REMARK VINA RESULT:      -6.2      1.483      2.222
REMARK  Name = 
REMARK  10 active torsions:
REMARK  status: ('A' for Active; 'I' for Inactive)
REMARK    1  A    between atoms: C_1  and  C_2
REMARK    2  A    between atoms: C_7  and  O_8
REMARK    3  A    between atoms: C_9  and  C_10
REMARK    4  A    between atoms: C_10  and  N_11
REMARK    5  A    between atoms: C_15  and  C_16
REMARK    6  A    between atoms: C_16  and  O_18
REMARK    7  A    between atoms: C_19  and  O_20
REMARK    8  A    between atoms: C_21  and  C_22
REMARK    9  A    between atoms: N_25  and  C_26
REMARK   10  A    between atoms: C_28  and  O_29
REMARK                            x       y       z     vdW  Elec       q    Type
REMARK                         _______ _______ _______ _____ _____    ______ ____
ROOT
ATOM      1  C   UNL     1      -2.750  10.655  15.639  0.00  0.00    +0.000 C 
ATOM      2  C   UNL     1      -3.555  11.154  16.802  0.00  0.00    +0.000 A 
ATOM      3  C   UNL     1      -4.891  11.226  16.730  0.00  0.00    +0.000 A 
ATOM      4  C   UNL     1      -5.629  11.759  17.874  0.00  0.00    +0.000 A 
ATOM      5  O   UNL     1      -6.851  11.879  17.837  0.00  0.00    +0.000 OA
ATOM      6  C   UNL     1      -4.856  12.160  19.056  0.00  0.00    +0.000 A 
ATOM      7  C   UNL     1      -5.499  12.707  20.175  0.00  0.00    +0.000 A 
ATOM      8  C   UNL     1      -4.777  13.038  21.334  0.00  0.00    +0.000 A 
ATOM      9  C   UNL     1      -3.374  12.900  21.298  0.00  0.00    +0.000 A 
ATOM     10  C   UNL     1      -2.693  12.435  20.153  0.00  0.00    +0.000 A 
ATOM     11  C   UNL     1      -3.465  12.022  19.036  0.00  0.00    +0.000 A 
ATOM     12  O   UNL     1      -2.814  11.531  17.914  0.00  0.00    +0.000 OA
ENDROOT
BRANCH  10  13
ATOM     13  C   UNL     1      -1.171  12.528  20.046  0.00  0.00    +0.000 C 
ATOM     14  C   UNL     1      -0.499  11.150  19.872  0.00  0.00    +0.000 C 
ATOM     15  C   UNL     1       0.983  11.279  20.217  0.00  0.00    +0.000 C 
ATOM     16  N   UNL     1       1.693  12.294  19.433  0.00  0.00    +0.000 NA
ATOM     17  C   UNL     1       2.150  11.784  18.147  0.00  0.00    +0.000 C 
ATOM     18  C   UNL     1       0.984  13.587  19.341  0.00  0.00    +0.000 C 
ATOM     19  C   UNL     1      -0.543  13.539  19.059  0.00  0.00    +0.000 C 
BRANCH  19  20
ATOM     20  O   UNL     1      -0.761  13.266  17.673  0.00  0.00    +0.000 OA
ATOM     21  H   UNL     1      -0.186  12.526  17.418  0.00  0.00    +0.000 HD
ENDBRANCH  19  20
ENDBRANCH  10  13
BRANCH   7  22
ATOM     22  O   UNL     1      -6.846  12.988  20.159  0.00  0.00    +0.000 OA
ATOM     23  H   UNL     1      -6.995  13.847  20.621  0.00  0.00    +0.000 HD
ENDBRANCH   7  22
BRANCH   9  24
ATOM     24  O   UNL     1      -2.597  13.278  22.366  0.00  0.00    +0.000 OA
ATOM     25  H   UNL     1      -1.822  12.703  22.445  0.00  0.00    +0.000 HD
ENDBRANCH   9  24
BRANCH   8  26
ATOM     26  C   UNL     1      -5.503  13.610  22.529  0.00  0.00    +0.000 C 
BRANCH  26  27
ATOM     27  N   UNL     1      -5.351  15.036  22.793  0.00  0.00    +0.000 NA
ATOM     28  C   UNL     1      -4.586  15.582  23.894  0.00  0.00    +0.000 C 
ATOM     29  C   UNL     1      -5.470  16.651  24.512  0.00  0.00    +0.000 C 
ATOM     30  C   UNL     1      -6.400  17.101  23.400  0.00  0.00    +0.000 C 
ATOM     31  C   UNL     1      -6.464  15.933  22.420  0.00  0.00    +0.000 C 
BRANCH  31  32
ATOM     32  C   UNL     1      -6.212  16.438  20.992  0.00  0.00    +0.000 C 
ATOM     33  O   UNL     1      -6.697  15.943  19.977  0.00  0.00    +0.000 OA
BRANCH  32  34
ATOM     34  O   UNL     1      -5.419  17.550  20.956  0.00  0.00    +0.000 OA
ATOM     35  H   UNL     1      -5.110  17.619  20.027  0.00  0.00    +0.000 HD
ENDBRANCH  32  34
ENDBRANCH  31  32
ENDBRANCH  26  27
ENDBRANCH   8  26
TORSDOF 8
ENDMDL
MODEL 8
REMARK VINA RESULT:      -6.2      2.246      6.821
REMARK  Name = 
REMARK  10 active torsions:
REMARK  status: ('A' for Active; 'I' for Inactive)
REMARK    1  A    between atoms: C_1  and  C_2
REMARK    2  A    between atoms: C_7  and  O_8
REMARK    3  A    between atoms: C_9  and  C_10
REMARK    4  A    between atoms: C_10  and  N_11
REMARK    5  A    between atoms: C_15  and  C_16
REMARK    6  A    between atoms: C_16  and  O_18
REMARK    7  A    between atoms: C_19  and  O_20
REMARK    8  A    between atoms: C_21  and  C_22
REMARK    9  A    between atoms: N_25  and  C_26
REMARK   10  A    between atoms: C_28  and  O_29
REMARK                            x       y       z     vdW  Elec       q    Type
REMARK                         _______ _______ _______ _____ _____    ______ ____
ROOT
ATOM      1  C   UNL     1      -7.490  13.068  18.338  0.00  0.00    +0.000 C 
ATOM      2  C   UNL     1      -6.071  12.583  18.318  0.00  0.00    +0.000 A 
ATOM      3  C   UNL     1      -5.614  11.840  17.302  0.00  0.00    +0.000 A 
ATOM      4  C   UNL     1      -4.236  11.355  17.348  0.00  0.00    +0.000 A 
ATOM      5  O   UNL     1      -3.787  10.638  16.457  0.00  0.00    +0.000 OA
ATOM      6  C   UNL     1      -3.417  11.742  18.505  0.00  0.00    +0.000 A 
ATOM      7  C   UNL     1      -2.097  11.286  18.626  0.00  0.00    +0.000 A 
ATOM      8  C   UNL     1      -1.285  11.699  19.696  0.00  0.00    +0.000 A 
ATOM      9  C   UNL     1      -1.872  12.500  20.697  0.00  0.00    +0.000 A 
ATOM     10  C   UNL     1      -3.224  12.900  20.644  0.00  0.00    +0.000 A 
ATOM     11  C   UNL     1      -3.984  12.542  19.500  0.00  0.00    +0.000 A 
ATOM     12  O   UNL     1      -5.305  12.954  19.416  0.00  0.00    +0.000 OA
ENDROOT
BRANCH  10  13
ATOM     13  C   UNL     1      -3.903  13.552  21.849  0.00  0.00    +0.000 C 
ATOM     14  C   UNL     1      -4.614  14.873  21.491  0.00  0.00    +0.000 C 
ATOM     15  C   UNL     1      -4.867  15.659  22.776  0.00  0.00    +0.000 C 
ATOM     16  N   UNL     1      -5.636  14.924  23.784  0.00  0.00    +0.000 NA
ATOM     17  C   UNL     1      -7.073  15.026  23.571  0.00  0.00    +0.000 C 
ATOM     18  C   UNL     1      -5.165  13.542  24.010  0.00  0.00    +0.000 C 
ATOM     19  C   UNL     1      -4.822  12.696  22.752  0.00  0.00    +0.000 C 
BRANCH  19  20
ATOM     20  O   UNL     1      -6.031  12.238  22.144  0.00  0.00    +0.000 OA
ATOM     21  H   UNL     1      -6.763  12.421  22.755  0.00  0.00    +0.000 HD
ENDBRANCH  19  20
ENDBRANCH  10  13
BRANCH   7  22
ATOM     22  O   UNL     1      -1.568  10.381  17.735  0.00  0.00    +0.000 OA
ATOM     23  H   UNL     1      -1.046   9.712  18.237  0.00  0.00    +0.000 HD
ENDBRANCH   7  22
BRANCH   9  24
ATOM     24  O   UNL     1      -1.161  12.876  21.810  0.00  0.00    +0.000 OA
ATOM     25  H   UNL     1      -1.542  13.674  22.206  0.00  0.00    +0.000 HD
ENDBRANCH   9  24
BRANCH   8  26
ATOM     26  C   UNL     1       0.139  11.203  19.787  0.00  0.00    +0.000 C 
BRANCH  26  27
ATOM     27  N   UNL     1       0.345   9.767  19.947  0.00  0.00    +0.000 NA
ATOM     28  C   UNL     1      -0.350   8.949  20.918  0.00  0.00    +0.000 C 
ATOM     29  C   UNL     1       0.721   8.093  21.570  0.00  0.00    +0.000 C 
ATOM     30  C   UNL     1       1.840   7.996  20.549  0.00  0.00    +0.000 C 
ATOM     31  C   UNL     1       1.687   9.223  19.654  0.00  0.00    +0.000 C 
BRANCH  31  32
ATOM     32  C   UNL     1       1.717   8.797  18.178  0.00  0.00    +0.000 C 
ATOM     33  O   UNL     1       1.936   7.654  17.783  0.00  0.00    +0.000 OA
BRANCH  32  34
ATOM     34  O   UNL     1       1.418   9.821  17.326  0.00  0.00    +0.000 OA
ATOM     35  H   UNL     1       2.007  10.559  17.591  0.00  0.00    +0.000 HD
ENDBRANCH  32  34
ENDBRANCH  31  32
ENDBRANCH  26  27
ENDBRANCH   8  26
TORSDOF 8
ENDMDL
MODEL 9
REMARK VINA RESULT:      -6.2      1.438      2.370
REMARK  Name = 
REMARK  10 active torsions:
REMARK  status: ('A' for Active; 'I' for Inactive)
REMARK    1  A    between atoms: C_1  and  C_2
REMARK    2  A    between atoms: C_7  and  O_8
REMARK    3  A    between atoms: C_9  and  C_10
REMARK    4  A    between atoms: C_10  and  N_11
REMARK    5  A    between atoms: C_15  and  C_16
REMARK    6  A    between atoms: C_16  and  O_18
REMARK    7  A    between atoms: C_19  and  O_20
REMARK    8  A    between atoms: C_21  and  C_22
REMARK    9  A    between atoms: N_25  and  C_26
REMARK   10  A    between atoms: C_28  and  O_29
REMARK                            x       y       z     vdW  Elec       q    Type
REMARK                         _______ _______ _______ _____ _____    ______ ____
ROOT
ATOM      1  C   UNL     1      -2.667  10.766  15.601  0.00  0.00    +0.000 C 
ATOM      2  C   UNL     1      -3.505  11.139  16.788  0.00  0.00    +0.000 A 
ATOM      3  C   UNL     1      -4.842  11.131  16.712  0.00  0.00    +0.000 A 
ATOM      4  C   UNL     1      -5.615  11.543  17.882  0.00  0.00    +0.000 A 
ATOM      5  O   UNL     1      -6.842  11.589  17.845  0.00  0.00    +0.000 OA
ATOM      6  C   UNL     1      -4.871  11.917  19.092  0.00  0.00    +0.000 A 
ATOM      7  C   UNL     1      -5.551  12.351  20.239  0.00  0.00    +0.000 A 
ATOM      8  C   UNL     1      -4.854  12.653  21.421  0.00  0.00    +0.000 A 
ATOM      9  C   UNL     1      -3.445  12.606  21.386  0.00  0.00    +0.000 A 
ATOM     10  C   UNL     1      -2.733  12.257  20.218  0.00  0.00    +0.000 A 
ATOM     11  C   UNL     1      -3.475  11.868  19.073  0.00  0.00    +0.000 A 
ATOM     12  O   UNL     1      -2.792  11.491  17.926  0.00  0.00    +0.000 OA
ENDROOT
BRANCH  10  13
ATOM     13  C   UNL     1      -1.219  12.452  20.127  0.00  0.00    +0.000 C 
ATOM     14  C   UNL     1      -0.463  11.135  19.860  0.00  0.00    +0.000 C 
ATOM     15  C   UNL     1       1.008  11.331  20.222  0.00  0.00    +0.000 C 
ATOM     16  N   UNL     1       1.654  12.441  19.516  0.00  0.00    +0.000 NA
ATOM     17  C   UNL     1       2.145  12.052  18.200  0.00  0.00    +0.000 C 
ATOM     18  C   UNL     1       0.867  13.691  19.511  0.00  0.00    +0.000 C 
ATOM     19  C   UNL     1      -0.655  13.568  19.217  0.00  0.00    +0.000 C 
BRANCH  19  20
ATOM     20  O   UNL     1      -0.853  13.379  17.814  0.00  0.00    +0.000 OA
ATOM     21  H   UNL     1      -1.690  13.807  17.569  0.00  0.00    +0.000 HD
ENDBRANCH  19  20
ENDBRANCH  10  13
BRANCH   7  22
ATOM     22  O   UNL     1      -6.912  12.548  20.233  0.00  0.00    +0.000 OA
ATOM     23  H   UNL     1      -7.204  12.716  19.306  0.00  0.00    +0.000 HD
ENDBRANCH   7  22
BRANCH   9  24
ATOM     24  O   UNL     1      -2.696  12.963  22.480  0.00  0.00    +0.000 OA
ATOM     25  H   UNL     1      -3.067  13.748  22.908  0.00  0.00    +0.000 HD
ENDBRANCH   9  24
BRANCH   8  26
ATOM     26  C   UNL     1      -5.617  13.101  22.645  0.00  0.00    +0.000 C 
BRANCH  26  27
ATOM     27  N   UNL     1      -6.051  14.494  22.698  0.00  0.00    +0.000 NA
ATOM     28  C   UNL     1      -7.421  14.926  22.518  0.00  0.00    +0.000 C 
ATOM     29  C   UNL     1      -7.353  16.099  21.556  0.00  0.00    +0.000 C 
ATOM     30  C   UNL     1      -5.959  16.676  21.717  0.00  0.00    +0.000 C 
ATOM     31  C   UNL     1      -5.100  15.533  22.251  0.00  0.00    +0.000 C 
BRANCH  31  32
ATOM     32  C   UNL     1      -4.305  16.009  23.476  0.00  0.00    +0.000 C 
ATOM     33  O   UNL     1      -4.804  16.480  24.496  0.00  0.00    +0.000 OA
BRANCH  32  34
ATOM     34  O   UNL     1      -2.960  15.808  23.344  0.00  0.00    +0.000 OA
ATOM     35  H   UNL     1      -2.740  16.112  22.438  0.00  0.00    +0.000 HD
ENDBRANCH  32  34
ENDBRANCH  31  32
ENDBRANCH  26  27
ENDBRANCH   8  26
TORSDOF 8
ENDMDL
