MODEL 1
REMARK VINA RESULT:      -7.4      0.000      0.000
REMARK  Name = 
REMARK  7 active torsions:
REMARK  status: ('A' for Active; 'I' for Inactive)
REMARK    1  A    between atoms: C_1  and  O_2
REMARK    2  A    between atoms: O_2  and  C_3
REMARK    3  A    between atoms: C_6  and  N_7
REMARK    4  A    between atoms: N_7  and  C_8
REMARK    5  A    between atoms: C_8  and  C_9
REMARK    6  A    between atoms: C_10  and  C_11
REMARK    7  A    between atoms: C_11  and  C_13
REMARK                            x       y       z     vdW  Elec       q    Type
REMARK                         _______ _______ _______ _____ _____    ______ ____
ROOT
ATOM      1  C   UNL     1       7.124   5.708  16.730  0.00  0.00    +0.000 C 
ATOM      2  C   UNL     1       6.563   7.080  17.073  0.00  0.00    +0.000 C 
ATOM      3  C   UNL     1       7.201   4.769  17.698  0.00  0.00    +0.000 C 
ENDROOT
BRANCH   1   4
ATOM      4  N   UNL     1       7.562   5.535  15.409  0.00  0.00    +0.000 N 
ATOM      5  H   UNL     1       8.513   5.848  15.221  0.00  0.00    +0.000 HD
BRANCH   4   9
ATOM      6  C   UNL     1       5.697   3.396  12.219  0.00  0.00    +0.000 A 
ATOM      7  C   UNL     1       5.013   3.637  13.406  0.00  0.00    +0.000 A 
ATOM      8  C   UNL     1       5.610   4.368  14.450  0.00  0.00    +0.000 A 
ATOM      9  C   UNL     1       6.910   4.873  14.346  0.00  0.00    +0.000 A 
ATOM     10  C   UNL     1       7.541   4.719  13.093  0.00  0.00    +0.000 A 
ATOM     11  C   UNL     1       6.966   3.940  12.062  0.00  0.00    +0.000 A 
BRANCH   6  13
ATOM     12  C   UNL     1       3.737   3.038  10.934  0.00  0.00    +0.000 C 
ATOM     13  O   UNL     1       5.047   2.618  11.302  0.00  0.00    +0.000 OA
ENDBRANCH   6  13
ENDBRANCH   4   9
ENDBRANCH   1   4
BRANCH   3  14
ATOM     14  C   UNL     1       6.546   4.942  19.043  0.00  0.00    +0.000 C 
ATOM     15  O   UNL     1       7.152   5.381  20.002  0.00  0.00    +0.000 OA
BRANCH  14  16
ATOM     16  C   UNL     1       5.127   4.559  19.248  0.00  0.00    +0.000 A 
ATOM     17  C   UNL     1       4.220   5.613  19.462  0.00  0.00    +0.000 A 
ATOM     18  C   UNL     1       2.875   5.355  19.722  0.00  0.00    +0.000 A 
ATOM     19  C   UNL     1       2.424   4.040  19.750  0.00  0.00    +0.000 A 
ATOM     20  C   UNL     1       3.309   2.989  19.499  0.00  0.00    +0.000 A 
ATOM     21  C   UNL     1       4.662   3.243  19.247  0.00  0.00    +0.000 A 
ENDBRANCH  14  16
ENDBRANCH   3  14
TORSDOF 5
ENDMDL
MODEL 2
REMARK VINA RESULT:      -7.3      0.161      1.089
REMARK  Name = 
REMARK  7 active torsions:
REMARK  status: ('A' for Active; 'I' for Inactive)
REMARK    1  A    between atoms: C_1  and  O_2
REMARK    2  A    between atoms: O_2  and  C_3
REMARK    3  A    between atoms: C_6  and  N_7
REMARK    4  A    between atoms: N_7  and  C_8
REMARK    5  A    between atoms: C_8  and  C_9
REMARK    6  A    between atoms: C_10  and  C_11
REMARK    7  A    between atoms: C_11  and  C_13
REMARK                            x       y       z     vdW  Elec       q    Type
REMARK                         _______ _______ _______ _____ _____    ______ ____
ROOT
ATOM      1  C   UNL     1       7.061   5.740  16.761  0.00  0.00    +0.000 C 
ATOM      2  C   UNL     1       6.482   7.110  17.082  0.00  0.00    +0.000 C 
ATOM      3  C   UNL     1       7.131   4.810  17.738  0.00  0.00    +0.000 C 
ENDROOT
BRANCH   1   4
ATOM      4  N   UNL     1       7.521   5.560  15.448  0.00  0.00    +0.000 N 
ATOM      5  H   UNL     1       8.476   5.869  15.276  0.00  0.00    +0.000 HD
BRANCH   4   9
ATOM      6  C   UNL     1       5.713   3.418  12.228  0.00  0.00    +0.000 A 
ATOM      7  C   UNL     1       5.035   3.597  13.430  0.00  0.00    +0.000 A 
ATOM      8  C   UNL     1       5.612   4.328  14.484  0.00  0.00    +0.000 A 
ATOM      9  C   UNL     1       6.885   4.895  14.377  0.00  0.00    +0.000 A 
ATOM     10  C   UNL     1       7.506   4.802  13.112  0.00  0.00    +0.000 A 
ATOM     11  C   UNL     1       6.953   4.024  12.069  0.00  0.00    +0.000 A 
BRANCH   6  13
ATOM     12  C   UNL     1       3.753   3.001  10.959  0.00  0.00    +0.000 C 
ATOM     13  O   UNL     1       5.087   2.634  11.299  0.00  0.00    +0.000 OA
ENDBRANCH   6  13
ENDBRANCH   4   9
ENDBRANCH   1   4
BRANCH   3  14
ATOM     14  C   UNL     1       6.453   4.989  19.071  0.00  0.00    +0.000 C 
ATOM     15  O   UNL     1       7.057   5.377  20.053  0.00  0.00    +0.000 OA
BRANCH  14  16
ATOM     16  C   UNL     1       5.011   4.676  19.234  0.00  0.00    +0.000 A 
ATOM     17  C   UNL     1       4.642   3.328  19.075  0.00  0.00    +0.000 A 
ATOM     18  C   UNL     1       3.305   2.941  19.150  0.00  0.00    +0.000 A 
ATOM     19  C   UNL     1       2.329   3.898  19.406  0.00  0.00    +0.000 A 
ATOM     20  C   UNL     1       2.691   5.233  19.604  0.00  0.00    +0.000 A 
ATOM     21  C   UNL     1       4.031   5.627  19.520  0.00  0.00    +0.000 A 
ENDBRANCH  14  16
ENDBRANCH   3  14
TORSDOF 5
ENDMDL
MODEL 3
REMARK VINA RESULT:      -7.3      0.991      1.330
REMARK  Name = 
REMARK  7 active torsions:
REMARK  status: ('A' for Active; 'I' for Inactive)
REMARK    1  A    between atoms: C_1  and  O_2
REMARK    2  A    between atoms: O_2  and  C_3
REMARK    3  A    between atoms: C_6  and  N_7
REMARK    4  A    between atoms: N_7  and  C_8
REMARK    5  A    between atoms: C_8  and  C_9
REMARK    6  A    between atoms: C_10  and  C_11
REMARK    7  A    between atoms: C_11  and  C_13
REMARK                            x       y       z     vdW  Elec       q    Type
REMARK                         _______ _______ _______ _____ _____    ______ ____
ROOT
ATOM      1  C   UNL     1       6.869   5.788  16.663  0.00  0.00    +0.000 C 
ATOM      2  C   UNL     1       6.627   7.200  17.177  0.00  0.00    +0.000 C 
ATOM      3  C   UNL     1       6.629   4.741  17.481  0.00  0.00    +0.000 C 
ENDROOT
BRANCH   1   4
ATOM      4  N   UNL     1       7.369   5.688  15.357  0.00  0.00    +0.000 N 
ATOM      5  H   UNL     1       8.258   6.157  15.194  0.00  0.00    +0.000 HD
BRANCH   4   9
ATOM      6  C   UNL     1       5.978   3.245  12.144  0.00  0.00    +0.000 A 
ATOM      7  C   UNL     1       5.175   3.478  13.256  0.00  0.00    +0.000 A 
ATOM      8  C   UNL     1       5.615   4.307  14.304  0.00  0.00    +0.000 A 
ATOM      9  C   UNL     1       6.870   4.921  14.281  0.00  0.00    +0.000 A 
ATOM     10  C   UNL     1       7.619   4.766  13.094  0.00  0.00    +0.000 A 
ATOM     11  C   UNL     1       7.205   3.892  12.063  0.00  0.00    +0.000 A 
BRANCH   6  13
ATOM     12  C   UNL     1       6.192   1.147  11.058  0.00  0.00    +0.000 C 
ATOM     13  O   UNL     1       5.479   2.369  11.219  0.00  0.00    +0.000 OA
ENDBRANCH   6  13
ENDBRANCH   4   9
ENDBRANCH   1   4
BRANCH   3  14
ATOM     14  C   UNL     1       5.917   4.893  18.799  0.00  0.00    +0.000 C 
ATOM     15  O   UNL     1       6.515   5.149  19.828  0.00  0.00    +0.000 OA
BRANCH  14  16
ATOM     16  C   UNL     1       4.446   4.716  18.889  0.00  0.00    +0.000 A 
ATOM     17  C   UNL     1       3.824   4.091  17.793  0.00  0.00    +0.000 A 
ATOM     18  C   UNL     1       2.439   3.931  17.755  0.00  0.00    +0.000 A 
ATOM     19  C   UNL     1       1.670   4.376  18.824  0.00  0.00    +0.000 A 
ATOM     20  C   UNL     1       2.283   4.963  19.934  0.00  0.00    +0.000 A 
ATOM     21  C   UNL     1       3.672   5.134  19.972  0.00  0.00    +0.000 A 
ENDBRANCH  14  16
ENDBRANCH   3  14
TORSDOF 5
ENDMDL
MODEL 4
REMARK VINA RESULT:      -7.0      0.199      1.529
REMARK  Name = 
REMARK  7 active torsions:
REMARK  status: ('A' for Active; 'I' for Inactive)
REMARK    1  A    between atoms: C_1  and  O_2
REMARK    2  A    between atoms: O_2  and  C_3
REMARK    3  A    between atoms: C_6  and  N_7
REMARK    4  A    between atoms: N_7  and  C_8
REMARK    5  A    between atoms: C_8  and  C_9
REMARK    6  A    between atoms: C_10  and  C_11
REMARK    7  A    between atoms: C_11  and  C_13
REMARK                            x       y       z     vdW  Elec       q    Type
REMARK                         _______ _______ _______ _____ _____    ______ ____
ROOT
ATOM      1  C   UNL     1       7.092   5.882  16.788  0.00  0.00    +0.000 C 
ATOM      2  C   UNL     1       6.493   7.234  17.145  0.00  0.00    +0.000 C 
ATOM      3  C   UNL     1       7.194   4.935  17.745  0.00  0.00    +0.000 C 
ENDROOT
BRANCH   1   4
ATOM      4  N   UNL     1       7.536   5.737  15.465  0.00  0.00    +0.000 N 
ATOM      5  H   UNL     1       8.422   6.190  15.251  0.00  0.00    +0.000 HD
BRANCH   4   9
ATOM      6  C   UNL     1       5.746   3.460  12.329  0.00  0.00    +0.000 A 
ATOM      7  C   UNL     1       6.989   4.059  12.149  0.00  0.00    +0.000 A 
ATOM      8  C   UNL     1       7.599   4.785  13.189  0.00  0.00    +0.000 A 
ATOM      9  C   UNL     1       6.985   4.944  14.435  0.00  0.00    +0.000 A 
ATOM     10  C   UNL     1       5.782   4.231  14.634  0.00  0.00    +0.000 A 
ATOM     11  C   UNL     1       5.141   3.546  13.576  0.00  0.00    +0.000 A 
BRANCH   6  13
ATOM     12  C   UNL     1       3.840   3.084  10.969  0.00  0.00    +0.000 C 
ATOM     13  O   UNL     1       5.218   2.838  11.231  0.00  0.00    +0.000 OA
ENDBRANCH   6  13
ENDBRANCH   4   9
ENDBRANCH   1   4
BRANCH   3  14
ATOM     14  C   UNL     1       6.533   5.074  19.091  0.00  0.00    +0.000 C 
ATOM     15  O   UNL     1       7.150   5.432  20.077  0.00  0.00    +0.000 OA
BRANCH  14  16
ATOM     16  C   UNL     1       5.092   4.758  19.262  0.00  0.00    +0.000 A 
ATOM     17  C   UNL     1       4.730   3.405  19.136  0.00  0.00    +0.000 A 
ATOM     18  C   UNL     1       3.395   3.013  19.221  0.00  0.00    +0.000 A 
ATOM     19  C   UNL     1       2.415   3.972  19.455  0.00  0.00    +0.000 A 
ATOM     20  C   UNL     1       2.770   5.313  19.621  0.00  0.00    +0.000 A 
ATOM     21  C   UNL     1       4.108   5.711  19.527  0.00  0.00    +0.000 A 
ENDBRANCH  14  16
ENDBRANCH   3  14
TORSDOF 5
ENDMDL
MODEL 5
REMARK VINA RESULT:      -7.0      2.457      7.009
REMARK  Name = 
REMARK  7 active torsions:
REMARK  status: ('A' for Active; 'I' for Inactive)
REMARK    1  A    between atoms: C_1  and  O_2
REMARK    2  A    between atoms: O_2  and  C_3
REMARK    3  A    between atoms: C_6  and  N_7
REMARK    4  A    between atoms: N_7  and  C_8
REMARK    5  A    between atoms: C_8  and  C_9
REMARK    6  A    between atoms: C_10  and  C_11
REMARK    7  A    between atoms: C_11  and  C_13
REMARK                            x       y       z     vdW  Elec       q    Type
REMARK                         _______ _______ _______ _____ _____    ______ ____
ROOT
ATOM      1  C   UNL     1       4.836   6.147  16.981  0.00  0.00    +0.000 C 
ATOM      2  C   UNL     1       5.820   7.305  16.910  0.00  0.00    +0.000 C 
ATOM      3  C   UNL     1       5.157   4.974  16.393  0.00  0.00    +0.000 C 
ENDROOT
BRANCH   1   4
ATOM      4  N   UNL     1       3.626   6.409  17.639  0.00  0.00    +0.000 N 
ATOM      5  H   UNL     1       3.201   7.310  17.427  0.00  0.00    +0.000 HD
BRANCH   4   9
ATOM      6  C   UNL     1       1.408   3.655  20.031  0.00  0.00    +0.000 A 
ATOM      7  C   UNL     1       2.249   4.591  20.624  0.00  0.00    +0.000 A 
ATOM      8  C   UNL     1       2.959   5.522  19.843  0.00  0.00    +0.000 A 
ATOM      9  C   UNL     1       2.860   5.542  18.449  0.00  0.00    +0.000 A 
ATOM     10  C   UNL     1       1.914   4.663  17.877  0.00  0.00    +0.000 A 
ATOM     11  C   UNL     1       1.240   3.692  18.653  0.00  0.00    +0.000 A 
BRANCH   6  13
ATOM     12  C   UNL     1       1.557   2.422  22.052  0.00  0.00    +0.000 C 
ATOM     13  O   UNL     1       0.821   2.757  20.879  0.00  0.00    +0.000 OA
ENDBRANCH   6  13
ENDBRANCH   4   9
ENDBRANCH   1   4
BRANCH   3  14
ATOM     14  C   UNL     1       6.540   4.687  15.867  0.00  0.00    +0.000 C 
ATOM     15  O   UNL     1       7.489   4.521  16.610  0.00  0.00    +0.000 OA
BRANCH  14  16
ATOM     16  C   UNL     1       6.793   4.615  14.406  0.00  0.00    +0.000 A 
ATOM     17  C   UNL     1       6.048   3.662  13.689  0.00  0.00    +0.000 A 
ATOM     18  C   UNL     1       6.255   3.476  12.323  0.00  0.00    +0.000 A 
ATOM     19  C   UNL     1       7.195   4.258  11.661  0.00  0.00    +0.000 A 
ATOM     20  C   UNL     1       7.912   5.234  12.358  0.00  0.00    +0.000 A 
ATOM     21  C   UNL     1       7.714   5.418  13.731  0.00  0.00    +0.000 A 
ENDBRANCH  14  16
ENDBRANCH   3  14
TORSDOF 5
ENDMDL
MODEL 6
REMARK VINA RESULT:      -7.0      0.134      1.076
REMARK  Name = 
REMARK  7 active torsions:
REMARK  status: ('A' for Active; 'I' for Inactive)
REMARK    1  A    between atoms: C_1  and  O_2
REMARK    2  A    between atoms: O_2  and  C_3
REMARK    3  A    between atoms: C_6  and  N_7
REMARK    4  A    between atoms: N_7  and  C_8
REMARK    5  A    between atoms: C_8  and  C_9
REMARK    6  A    between atoms: C_10  and  C_11
REMARK    7  A    between atoms: C_11  and  C_13
REMARK                            x       y       z     vdW  Elec       q    Type
REMARK                         _______ _______ _______ _____ _____    ______ ____
ROOT
ATOM      1  C   UNL     1       7.071   5.835  16.740  0.00  0.00    +0.000 C 
ATOM      2  C   UNL     1       6.419   7.173  17.059  0.00  0.00    +0.000 C 
ATOM      3  C   UNL     1       7.215   4.922  17.724  0.00  0.00    +0.000 C 
ENDROOT
BRANCH   1   4
ATOM      4  N   UNL     1       7.514   5.668  15.420  0.00  0.00    +0.000 N 
ATOM      5  H   UNL     1       8.422   6.079  15.210  0.00  0.00    +0.000 HD
BRANCH   4   9
ATOM      6  C   UNL     1       5.636   3.477  12.274  0.00  0.00    +0.000 A 
ATOM      7  C   UNL     1       6.912   4.007  12.105  0.00  0.00    +0.000 A 
ATOM      8  C   UNL     1       7.549   4.703  13.149  0.00  0.00    +0.000 A 
ATOM      9  C   UNL     1       6.932   4.901  14.387  0.00  0.00    +0.000 A 
ATOM     10  C   UNL     1       5.689   4.257  14.576  0.00  0.00    +0.000 A 
ATOM     11  C   UNL     1       5.023   3.603  13.514  0.00  0.00    +0.000 A 
BRANCH   6  13
ATOM     12  C   UNL     1       3.723   3.192  10.901  0.00  0.00    +0.000 C 
ATOM     13  O   UNL     1       5.087   2.880  11.173  0.00  0.00    +0.000 OA
ENDBRANCH   6  13
ENDBRANCH   4   9
ENDBRANCH   1   4
BRANCH   3  14
ATOM     14  C   UNL     1       6.555   5.075  19.069  0.00  0.00    +0.000 C 
ATOM     15  O   UNL     1       7.148   5.532  20.029  0.00  0.00    +0.000 OA
BRANCH  14  16
ATOM     16  C   UNL     1       5.147   4.652  19.273  0.00  0.00    +0.000 A 
ATOM     17  C   UNL     1       4.215   5.678  19.514  0.00  0.00    +0.000 A 
ATOM     18  C   UNL     1       2.878   5.381  19.776  0.00  0.00    +0.000 A 
ATOM     19  C   UNL     1       2.461   4.054  19.777  0.00  0.00    +0.000 A 
ATOM     20  C   UNL     1       3.372   3.031  19.500  0.00  0.00    +0.000 A 
ATOM     21  C   UNL     1       4.716   3.325  19.246  0.00  0.00    +0.000 A 
ENDBRANCH  14  16
ENDBRANCH   3  14
TORSDOF 5
ENDMDL
MODEL 7
REMARK VINA RESULT:      -7.0      2.442      6.951
REMARK  Name = 
REMARK  7 active torsions:
REMARK  status: ('A' for Active; 'I' for Inactive)
REMARK    1  A    between atoms: C_1  and  O_2
REMARK    2  A    between atoms: O_2  and  C_3
REMARK    3  A    between atoms: C_6  and  N_7
REMARK    4  A    between atoms: N_7  and  C_8
REMARK    5  A    between atoms: C_8  and  C_9
REMARK    6  A    between atoms: C_10  and  C_11
REMARK    7  A    between atoms: C_11  and  C_13
REMARK                            x       y       z     vdW  Elec       q    Type
REMARK                         _______ _______ _______ _____ _____    ______ ____
ROOT
ATOM      1  C   UNL     1       5.093   6.266  17.098  0.00  0.00    +0.000 C 
ATOM      2  C   UNL     1       6.233   7.266  17.228  0.00  0.00    +0.000 C 
ATOM      3  C   UNL     1       5.266   5.168  16.332  0.00  0.00    +0.000 C 
ENDROOT
BRANCH   1   4
ATOM      4  N   UNL     1       3.909   6.593  17.775  0.00  0.00    +0.000 N 
ATOM      5  H   UNL     1       3.569   7.541  17.624  0.00  0.00    +0.000 HD
BRANCH   4   9
ATOM      6  C   UNL     1       1.444   3.901  19.989  0.00  0.00    +0.000 A 
ATOM      7  C   UNL     1       2.340   4.742  20.642  0.00  0.00    +0.000 A 
ATOM      8  C   UNL     1       3.133   5.654  19.921  0.00  0.00    +0.000 A 
ATOM      9  C   UNL     1       3.065   5.748  18.528  0.00  0.00    +0.000 A 
ATOM     10  C   UNL     1       2.069   4.971  17.897  0.00  0.00    +0.000 A 
ATOM     11  C   UNL     1       1.308   4.017  18.612  0.00  0.00    +0.000 A 
BRANCH   6  13
ATOM     12  C   UNL     1       1.495   2.492  21.896  0.00  0.00    +0.000 C 
ATOM     13  O   UNL     1       0.776   3.009  20.781  0.00  0.00    +0.000 OA
ENDBRANCH   6  13
ENDBRANCH   4   9
ENDBRANCH   1   4
BRANCH   3  14
ATOM     14  C   UNL     1       6.612   4.770  15.784  0.00  0.00    +0.000 C 
ATOM     15  O   UNL     1       7.582   4.624  16.504  0.00  0.00    +0.000 OA
BRANCH  14  16
ATOM     16  C   UNL     1       6.803   4.559  14.327  0.00  0.00    +0.000 A 
ATOM     17  C   UNL     1       7.702   5.427  13.682  0.00  0.00    +0.000 A 
ATOM     18  C   UNL     1       7.906   5.348  12.305  0.00  0.00    +0.000 A 
ATOM     19  C   UNL     1       7.226   4.385  11.567  0.00  0.00    +0.000 A 
ATOM     20  C   UNL     1       6.361   3.493  12.206  0.00  0.00    +0.000 A 
ATOM     21  C   UNL     1       6.146   3.575  13.586  0.00  0.00    +0.000 A 
ENDBRANCH  14  16
ENDBRANCH   3  14
TORSDOF 5
ENDMDL
MODEL 8
REMARK VINA RESULT:      -6.8      4.086      7.482
REMARK  Name = 
REMARK  7 active torsions:
REMARK  status: ('A' for Active; 'I' for Inactive)
REMARK    1  A    between atoms: C_1  and  O_2
REMARK    2  A    between atoms: O_2  and  C_3
REMARK    3  A    between atoms: C_6  and  N_7
REMARK    4  A    between atoms: N_7  and  C_8
REMARK    5  A    between atoms: C_8  and  C_9
REMARK    6  A    between atoms: C_10  and  C_11
REMARK    7  A    between atoms: C_11  and  C_13
REMARK                            x       y       z     vdW  Elec       q    Type
REMARK                         _______ _______ _______ _____ _____    ______ ____
ROOT
ATOM      1  C   UNL     1       2.797   5.484  19.715  0.00  0.00    +0.000 C 
ATOM      2  C   UNL     1       1.947   4.412  19.050  0.00  0.00    +0.000 C 
ATOM      3  C   UNL     1       4.143   5.395  19.643  0.00  0.00    +0.000 C 
ENDROOT
BRANCH   1   4
ATOM      4  N   UNL     1       2.096   6.487  20.399  0.00  0.00    +0.000 N 
ATOM      5  H   UNL     1       1.881   6.282  21.373  0.00  0.00    +0.000 HD
BRANCH   4   9
ATOM      6  C   UNL     1       0.971  10.345  18.957  0.00  0.00    +0.000 A 
ATOM      7  C   UNL     1       0.714   9.978  20.274  0.00  0.00    +0.000 A 
ATOM      8  C   UNL     1       1.110   8.720  20.765  0.00  0.00    +0.000 A 
ATOM      9  C   UNL     1       1.764   7.787  19.956  0.00  0.00    +0.000 A 
ATOM     10  C   UNL     1       2.118   8.222  18.660  0.00  0.00    +0.000 A 
ATOM     11  C   UNL     1       1.676   9.463  18.148  0.00  0.00    +0.000 A 
BRANCH   6  13
ATOM     12  C   UNL     1      -0.935  11.709  18.588  0.00  0.00    +0.000 C 
ATOM     13  O   UNL     1       0.482  11.562  18.569  0.00  0.00    +0.000 OA
ENDBRANCH   6  13
ENDBRANCH   4   9
ENDBRANCH   1   4
BRANCH   3  14
ATOM     14  C   UNL     1       4.839   4.409  18.742  0.00  0.00    +0.000 C 
ATOM     15  O   UNL     1       5.213   3.323  19.143  0.00  0.00    +0.000 OA
BRANCH  14  16
ATOM     16  C   UNL     1       5.109   4.745  17.321  0.00  0.00    +0.000 A 
ATOM     17  C   UNL     1       5.555   3.690  16.504  0.00  0.00    +0.000 A 
ATOM     18  C   UNL     1       5.892   3.914  15.170  0.00  0.00    +0.000 A 
ATOM     19  C   UNL     1       5.765   5.193  14.639  0.00  0.00    +0.000 A 
ATOM     20  C   UNL     1       5.285   6.239  15.432  0.00  0.00    +0.000 A 
ATOM     21  C   UNL     1       4.955   6.019  16.774  0.00  0.00    +0.000 A 
ENDBRANCH  14  16
ENDBRANCH   3  14
TORSDOF 5
ENDMDL
MODEL 9
REMARK VINA RESULT:      -6.8      1.894      2.894
REMARK  Name = 
REMARK  7 active torsions:
REMARK  status: ('A' for Active; 'I' for Inactive)
REMARK    1  A    between atoms: C_1  and  O_2
REMARK    2  A    between atoms: O_2  and  C_3
REMARK    3  A    between atoms: C_6  and  N_7
REMARK    4  A    between atoms: N_7  and  C_8
REMARK    5  A    between atoms: C_8  and  C_9
REMARK    6  A    between atoms: C_10  and  C_11
REMARK    7  A    between atoms: C_11  and  C_13
REMARK                            x       y       z     vdW  Elec       q    Type
REMARK                         _______ _______ _______ _____ _____    ______ ____
ROOT
ATOM      1  C   UNL     1       5.031   5.973  17.885  0.00  0.00    +0.000 C 
ATOM      2  C   UNL     1       5.468   5.324  19.190  0.00  0.00    +0.000 C 
ATOM      3  C   UNL     1       3.742   6.346  17.735  0.00  0.00    +0.000 C 
ENDROOT
BRANCH   1   4
ATOM      4  N   UNL     1       6.023   6.102  16.902  0.00  0.00    +0.000 N 
ATOM      5  H   UNL     1       6.765   6.766  17.117  0.00  0.00    +0.000 HD
BRANCH   4   9
ATOM      6  C   UNL     1       6.407   3.899  13.265  0.00  0.00    +0.000 A 
ATOM      7  C   UNL     1       7.359   4.848  13.623  0.00  0.00    +0.000 A 
ATOM      8  C   UNL     1       7.255   5.556  14.835  0.00  0.00    +0.000 A 
ATOM      9  C   UNL     1       6.196   5.347  15.722  0.00  0.00    +0.000 A 
ATOM     10  C   UNL     1       5.306   4.299  15.396  0.00  0.00    +0.000 A 
ATOM     11  C   UNL     1       5.377   3.624  14.156  0.00  0.00    +0.000 A 
BRANCH   6  13
ATOM     12  C   UNL     1       5.543   2.427  11.618  0.00  0.00    +0.000 C 
ATOM     13  O   UNL     1       6.570   3.322  12.036  0.00  0.00    +0.000 OA
ENDBRANCH   6  13
ENDBRANCH   4   9
ENDBRANCH   1   4
BRANCH   3  14
ATOM     14  C   UNL     1       2.767   6.358  18.883  0.00  0.00    +0.000 C 
ATOM     15  O   UNL     1       2.443   7.390  19.440  0.00  0.00    +0.000 OA
BRANCH  14  16
ATOM     16  C   UNL     1       2.178   5.093  19.389  0.00  0.00    +0.000 A 
ATOM     17  C   UNL     1       1.732   4.179  18.417  0.00  0.00    +0.000 A 
ATOM     18  C   UNL     1       1.110   2.988  18.789  0.00  0.00    +0.000 A 
ATOM     19  C   UNL     1       0.950   2.694  20.139  0.00  0.00    +0.000 A 
ATOM     20  C   UNL     1       1.425   3.577  21.111  0.00  0.00    +0.000 A 
ATOM     21  C   UNL     1       2.041   4.778  20.741  0.00  0.00    +0.000 A 
ENDBRANCH  14  16
ENDBRANCH   3  14
TORSDOF 5
ENDMDL
