MODEL 1
REMARK VINA RESULT:      -7.2      0.000      0.000
REMARK  Name = 
REMARK  3 active torsions:
REMARK  status: ('A' for Active; 'I' for Inactive)
REMARK    1  A    between atoms: S_2  and  C_4
REMARK    2  A    between atoms: S_2  and  N_11
REMARK    3  A    between atoms: C_15  and  C_16
REMARK                            x       y       z     vdW  Elec       q    Type
REMARK                         _______ _______ _______ _____ _____    ______ ____
ROOT
ATOM      1  N   UNL     1       5.444   5.072  17.183  0.00  0.00    +0.000 NA
ATOM      2  C   UNL     1       5.535   4.238  18.416  0.00  0.00    +0.000 C 
ATOM      3  C   UNL     1       4.132   3.938  18.942  0.00  0.00    +0.000 C 
ATOM      4  C   UNL     1       3.342   5.217  19.205  0.00  0.00    +0.000 C 
ATOM      5  C   UNL     1       3.320   6.116  17.960  0.00  0.00    +0.000 C 
ATOM      6  C   UNL     1       4.752   6.375  17.466  0.00  0.00    +0.000 C 
ENDROOT
BRANCH   5   7
ATOM      7  C   UNL     1       2.631   7.421  18.260  0.00  0.00    +0.000 A 
ATOM      8  N   UNL     1       2.502   8.406  17.394  0.00  0.00    +0.000 NA
ATOM      9  C   UNL     1       1.807   9.450  17.973  0.00  0.00    +0.000 A 
ATOM     10  C   UNL     1       1.414   9.252  19.278  0.00  0.00    +0.000 A 
ATOM     11  S   UNL     1       1.936   7.709  19.809  0.00  0.00    +0.000 S 
ENDBRANCH   5   7
BRANCH   1  13
ATOM     12  O   UNL     1       7.879   4.355  16.962  0.00  0.00    +0.000 OA
ATOM     13  S   UNL     1       6.944   5.290  16.368  0.00  0.00    +0.000 S 
ATOM     14  O   UNL     1       7.249   6.704  16.317  0.00  0.00    +0.000 OA
BRANCH  13  15
ATOM     15  C   UNL     1       6.626   4.759  14.718  0.00  0.00    +0.000 A 
ATOM     16  C   UNL     1       5.473   4.026  14.416  0.00  0.00    +0.000 A 
ATOM     17  C   UNL     1       5.263   3.579  13.107  0.00  0.00    +0.000 A 
ATOM     18  C   UNL     1       6.204   3.857  12.114  0.00  0.00    +0.000 A 
ATOM     19  C   UNL     1       7.357   4.578  12.428  0.00  0.00    +0.000 A 
ATOM     20  C   UNL     1       7.564   5.025  13.731  0.00  0.00    +0.000 A 
ATOM     21  F   UNL     1       8.680   5.716  13.998  0.00  0.00    +0.000 F 
ENDBRANCH  13  15
ENDBRANCH   1  13
TORSDOF 3
ENDMDL
MODEL 2
REMARK VINA RESULT:      -7.2      3.659      6.932
REMARK  Name = 
REMARK  3 active torsions:
REMARK  status: ('A' for Active; 'I' for Inactive)
REMARK    1  A    between atoms: S_2  and  C_4
REMARK    2  A    between atoms: S_2  and  N_11
REMARK    3  A    between atoms: C_15  and  C_16
REMARK                            x       y       z     vdW  Elec       q    Type
REMARK                         _______ _______ _______ _____ _____    ______ ____
ROOT
ATOM      1  N   UNL     1       4.485   4.095  17.340  0.00  0.00    +0.000 NA
ATOM      2  C   UNL     1       5.534   4.156  18.397  0.00  0.00    +0.000 C 
ATOM      3  C   UNL     1       6.474   5.329  18.125  0.00  0.00    +0.000 C 
ATOM      4  C   UNL     1       7.103   5.240  16.737  0.00  0.00    +0.000 C 
ATOM      5  C   UNL     1       6.023   5.092  15.654  0.00  0.00    +0.000 C 
ATOM      6  C   UNL     1       5.100   3.908  15.982  0.00  0.00    +0.000 C 
ENDROOT
BRANCH   5   7
ATOM      7  C   UNL     1       6.655   4.898  14.300  0.00  0.00    +0.000 A 
ATOM      8  N   UNL     1       7.729   5.539  13.887  0.00  0.00    +0.000 NA
ATOM      9  C   UNL     1       8.062   5.122  12.613  0.00  0.00    +0.000 A 
ATOM     10  C   UNL     1       7.235   4.167  12.065  0.00  0.00    +0.000 A 
ATOM     11  S   UNL     1       5.989   3.777  13.175  0.00  0.00    +0.000 S 
ENDBRANCH   5   7
BRANCH   1  13
ATOM     12  O   UNL     1       3.856   1.647  17.657  0.00  0.00    +0.000 OA
ATOM     13  S   UNL     1       3.234   2.955  17.655  0.00  0.00    +0.000 S 
ATOM     14  O   UNL     1       2.113   3.236  16.783  0.00  0.00    +0.000 OA
BRANCH  13  15
ATOM     15  C   UNL     1       2.722   3.312  19.303  0.00  0.00    +0.000 A 
ATOM     16  C   UNL     1       2.873   2.361  20.318  0.00  0.00    +0.000 A 
ATOM     17  C   UNL     1       2.421   2.652  21.609  0.00  0.00    +0.000 A 
ATOM     18  C   UNL     1       1.816   3.881  21.877  0.00  0.00    +0.000 A 
ATOM     19  C   UNL     1       1.658   4.819  20.855  0.00  0.00    +0.000 A 
ATOM     20  C   UNL     1       2.112   4.530  19.570  0.00  0.00    +0.000 A 
ATOM     21  F   UNL     1       1.947   5.452  18.614  0.00  0.00    +0.000 F 
ENDBRANCH  13  15
ENDBRANCH   1  13
TORSDOF 3
ENDMDL
MODEL 3
REMARK VINA RESULT:      -7.1      3.573      6.876
REMARK  Name = 
REMARK  3 active torsions:
REMARK  status: ('A' for Active; 'I' for Inactive)
REMARK    1  A    between atoms: S_2  and  C_4
REMARK    2  A    between atoms: S_2  and  N_11
REMARK    3  A    between atoms: C_15  and  C_16
REMARK                            x       y       z     vdW  Elec       q    Type
REMARK                         _______ _______ _______ _____ _____    ______ ____
ROOT
ATOM      1  N   UNL     1       5.259   4.390  17.991  0.00  0.00    +0.000 NA
ATOM      2  C   UNL     1       6.416   4.898  18.782  0.00  0.00    +0.000 C 
ATOM      3  C   UNL     1       6.981   6.155  18.123  0.00  0.00    +0.000 C 
ATOM      4  C   UNL     1       7.381   5.902  16.671  0.00  0.00    +0.000 C 
ATOM      5  C   UNL     1       6.212   5.299  15.877  0.00  0.00    +0.000 C 
ATOM      6  C   UNL     1       5.675   4.048  16.589  0.00  0.00    +0.000 C 
ENDROOT
BRANCH   5   7
ATOM      7  C   UNL     1       6.646   4.954  14.476  0.00  0.00    +0.000 A 
ATOM      8  N   UNL     1       7.674   5.504  13.864  0.00  0.00    +0.000 NA
ATOM      9  C   UNL     1       7.816   4.958  12.604  0.00  0.00    +0.000 A 
ATOM     10  C   UNL     1       6.890   3.997  12.265  0.00  0.00    +0.000 A 
ATOM     11  S   UNL     1       5.796   3.767  13.563  0.00  0.00    +0.000 S 
ENDBRANCH   5   7
BRANCH   1  13
ATOM     12  O   UNL     1       5.229   2.632  19.835  0.00  0.00    +0.000 OA
ATOM     13  S   UNL     1       4.395   3.108  18.750  0.00  0.00    +0.000 S 
ATOM     14  O   UNL     1       3.919   2.196  17.732  0.00  0.00    +0.000 OA
BRANCH  13  15
ATOM     15  C   UNL     1       2.984   3.892  19.457  0.00  0.00    +0.000 A 
ATOM     16  C   UNL     1       2.976   5.273  19.686  0.00  0.00    +0.000 A 
ATOM     17  C   UNL     1       1.860   5.865  20.287  0.00  0.00    +0.000 A 
ATOM     18  C   UNL     1       0.770   5.080  20.665  0.00  0.00    +0.000 A 
ATOM     19  C   UNL     1       0.793   3.702  20.444  0.00  0.00    +0.000 A 
ATOM     20  C   UNL     1       1.903   3.112  19.842  0.00  0.00    +0.000 A 
ATOM     21  F   UNL     1       1.891   1.789  19.644  0.00  0.00    +0.000 F 
ENDBRANCH  13  15
ENDBRANCH   1  13
TORSDOF 3
ENDMDL
MODEL 4
REMARK VINA RESULT:      -7.1      2.850      6.698
REMARK  Name = 
REMARK  3 active torsions:
REMARK  status: ('A' for Active; 'I' for Inactive)
REMARK    1  A    between atoms: S_2  and  C_4
REMARK    2  A    between atoms: S_2  and  N_11
REMARK    3  A    between atoms: C_15  and  C_16
REMARK                            x       y       z     vdW  Elec       q    Type
REMARK                         _______ _______ _______ _____ _____    ______ ____
ROOT
ATOM      1  N   UNL     1       4.654   5.631  18.376  0.00  0.00    +0.000 NA
ATOM      2  C   UNL     1       5.704   5.180  19.334  0.00  0.00    +0.000 C 
ATOM      3  C   UNL     1       7.068   5.707  18.891  0.00  0.00    +0.000 C 
ATOM      4  C   UNL     1       7.407   5.274  17.467  0.00  0.00    +0.000 C 
ATOM      5  C   UNL     1       6.285   5.664  16.493  0.00  0.00    +0.000 C 
ATOM      6  C   UNL     1       4.936   5.122  16.991  0.00  0.00    +0.000 C 
ENDROOT
BRANCH   5   7
ATOM      7  C   UNL     1       6.577   5.140  15.111  0.00  0.00    +0.000 A 
ATOM      8  N   UNL     1       7.623   5.494  14.392  0.00  0.00    +0.000 NA
ATOM      9  C   UNL     1       7.610   4.823  13.186  0.00  0.00    +0.000 A 
ATOM     10  C   UNL     1       6.551   3.964  12.995  0.00  0.00    +0.000 A 
ATOM     11  S   UNL     1       5.526   3.997  14.367  0.00  0.00    +0.000 S 
ENDBRANCH   5   7
BRANCH   1  13
ATOM     12  O   UNL     1       3.149   4.549  20.123  0.00  0.00    +0.000 OA
ATOM     13  S   UNL     1       3.045   5.293  18.884  0.00  0.00    +0.000 S 
ATOM     14  O   UNL     1       2.302   4.757  17.763  0.00  0.00    +0.000 OA
BRANCH  13  15
ATOM     15  C   UNL     1       2.364   6.875  19.260  0.00  0.00    +0.000 A 
ATOM     16  C   UNL     1       1.788   7.123  20.510  0.00  0.00    +0.000 A 
ATOM     17  C   UNL     1       1.216   8.373  20.770  0.00  0.00    +0.000 A 
ATOM     18  C   UNL     1       1.215   9.360  19.783  0.00  0.00    +0.000 A 
ATOM     19  C   UNL     1       1.782   9.098  18.533  0.00  0.00    +0.000 A 
ATOM     20  C   UNL     1       2.353   7.854  18.276  0.00  0.00    +0.000 A 
ATOM     21  F   UNL     1       2.890   7.637  17.069  0.00  0.00    +0.000 F 
ENDBRANCH  13  15
ENDBRANCH   1  13
TORSDOF 3
ENDMDL
MODEL 5
REMARK VINA RESULT:      -7.1      3.234      6.540
REMARK  Name = 
REMARK  3 active torsions:
REMARK  status: ('A' for Active; 'I' for Inactive)
REMARK    1  A    between atoms: S_2  and  C_4
REMARK    2  A    between atoms: S_2  and  N_11
REMARK    3  A    between atoms: C_15  and  C_16
REMARK                            x       y       z     vdW  Elec       q    Type
REMARK                         _______ _______ _______ _____ _____    ______ ____
ROOT
ATOM      1  N   UNL     1       4.469   6.098  18.473  0.00  0.00    +0.000 NA
ATOM      2  C   UNL     1       5.182   5.264  19.482  0.00  0.00    +0.000 C 
ATOM      3  C   UNL     1       6.687   5.323  19.231  0.00  0.00    +0.000 C 
ATOM      4  C   UNL     1       7.042   4.884  17.812  0.00  0.00    +0.000 C 
ATOM      5  C   UNL     1       6.243   5.687  16.773  0.00  0.00    +0.000 C 
ATOM      6  C   UNL     1       4.740   5.605  17.079  0.00  0.00    +0.000 C 
ENDROOT
BRANCH   5   7
ATOM      7  C   UNL     1       6.519   5.176  15.383  0.00  0.00    +0.000 A 
ATOM      8  N   UNL     1       7.566   5.523  14.662  0.00  0.00    +0.000 NA
ATOM      9  C   UNL     1       7.535   4.867  13.447  0.00  0.00    +0.000 A 
ATOM     10  C   UNL     1       6.462   4.027  13.252  0.00  0.00    +0.000 A 
ATOM     11  S   UNL     1       5.446   4.058  14.632  0.00  0.00    +0.000 S 
ENDBRANCH   5   7
BRANCH   1  13
ATOM     12  O   UNL     1       2.133   6.359  17.491  0.00  0.00    +0.000 OA
ATOM     13  S   UNL     1       2.787   6.295  18.782  0.00  0.00    +0.000 S 
ATOM     14  O   UNL     1       2.609   7.356  19.751  0.00  0.00    +0.000 OA
BRANCH  13  15
ATOM     15  C   UNL     1       2.307   4.787  19.557  0.00  0.00    +0.000 A 
ATOM     16  C   UNL     1       2.229   4.695  20.951  0.00  0.00    +0.000 A 
ATOM     17  C   UNL     1       1.886   3.475  21.543  0.00  0.00    +0.000 A 
ATOM     18  C   UNL     1       1.634   2.357  20.747  0.00  0.00    +0.000 A 
ATOM     19  C   UNL     1       1.727   2.456  19.357  0.00  0.00    +0.000 A 
ATOM     20  C   UNL     1       2.065   3.671  18.767  0.00  0.00    +0.000 A 
ATOM     21  F   UNL     1       2.143   3.731  17.432  0.00  0.00    +0.000 F 
ENDBRANCH  13  15
ENDBRANCH   1  13
TORSDOF 3
ENDMDL
MODEL 6
REMARK VINA RESULT:      -7.1      3.240      6.838
REMARK  Name = 
REMARK  3 active torsions:
REMARK  status: ('A' for Active; 'I' for Inactive)
REMARK    1  A    between atoms: S_2  and  C_4
REMARK    2  A    between atoms: S_2  and  N_11
REMARK    3  A    between atoms: C_15  and  C_16
REMARK                            x       y       z     vdW  Elec       q    Type
REMARK                         _______ _______ _______ _____ _____    ______ ____
ROOT
ATOM      1  N   UNL     1       4.745   5.727  18.346  0.00  0.00    +0.000 NA
ATOM      2  C   UNL     1       5.774   5.212  19.295  0.00  0.00    +0.000 C 
ATOM      3  C   UNL     1       7.164   5.649  18.837  0.00  0.00    +0.000 C 
ATOM      4  C   UNL     1       7.460   5.193  17.411  0.00  0.00    +0.000 C 
ATOM      5  C   UNL     1       6.355   5.652  16.447  0.00  0.00    +0.000 C 
ATOM      6  C   UNL     1       4.979   5.199  16.959  0.00  0.00    +0.000 C 
ENDROOT
BRANCH   5   7
ATOM      7  C   UNL     1       6.599   5.108  15.064  0.00  0.00    +0.000 A 
ATOM      8  N   UNL     1       7.589   5.491  14.283  0.00  0.00    +0.000 NA
ATOM      9  C   UNL     1       7.544   4.790  13.093  0.00  0.00    +0.000 A 
ATOM     10  C   UNL     1       6.518   3.880  12.978  0.00  0.00    +0.000 A 
ATOM     11  S   UNL     1       5.565   3.901  14.401  0.00  0.00    +0.000 S 
ENDBRANCH   5   7
BRANCH   1  13
ATOM     12  O   UNL     1       3.193   5.015  20.237  0.00  0.00    +0.000 OA
ATOM     13  S   UNL     1       3.122   5.494  18.871  0.00  0.00    +0.000 S 
ATOM     14  O   UNL     1       2.407   4.740  17.863  0.00  0.00    +0.000 OA
BRANCH  13  15
ATOM     15  C   UNL     1       2.436   7.117  18.903  0.00  0.00    +0.000 A 
ATOM     16  C   UNL     1       2.643   7.999  17.837  0.00  0.00    +0.000 A 
ATOM     17  C   UNL     1       2.124   9.296  17.904  0.00  0.00    +0.000 A 
ATOM     18  C   UNL     1       1.413   9.707  19.033  0.00  0.00    +0.000 A 
ATOM     19  C   UNL     1       1.223   8.823  20.097  0.00  0.00    +0.000 A 
ATOM     20  C   UNL     1       1.738   7.531  20.028  0.00  0.00    +0.000 A 
ATOM     21  F   UNL     1       1.535   6.709  21.066  0.00  0.00    +0.000 F 
ENDBRANCH  13  15
ENDBRANCH   1  13
TORSDOF 3
ENDMDL
MODEL 7
REMARK VINA RESULT:      -7.0      0.893      1.010
REMARK  Name = 
REMARK  3 active torsions:
REMARK  status: ('A' for Active; 'I' for Inactive)
REMARK    1  A    between atoms: S_2  and  C_4
REMARK    2  A    between atoms: S_2  and  N_11
REMARK    3  A    between atoms: C_15  and  C_16
REMARK                            x       y       z     vdW  Elec       q    Type
REMARK                         _______ _______ _______ _____ _____    ______ ____
ROOT
ATOM      1  N   UNL     1       5.291   4.983  17.243  0.00  0.00    +0.000 NA
ATOM      2  C   UNL     1       5.463   3.969  18.322  0.00  0.00    +0.000 C 
ATOM      3  C   UNL     1       4.096   3.554  18.863  0.00  0.00    +0.000 C 
ATOM      4  C   UNL     1       3.298   4.754  19.365  0.00  0.00    +0.000 C 
ATOM      5  C   UNL     1       3.193   5.837  18.280  0.00  0.00    +0.000 C 
ATOM      6  C   UNL     1       4.591   6.208  17.762  0.00  0.00    +0.000 C 
ENDROOT
BRANCH   5   7
ATOM      7  C   UNL     1       2.497   7.060  18.817  0.00  0.00    +0.000 A 
ATOM      8  N   UNL     1       2.070   7.183  20.057  0.00  0.00    +0.000 NA
ATOM      9  C   UNL     1       1.496   8.426  20.234  0.00  0.00    +0.000 A 
ATOM     10  C   UNL     1       1.488   9.240  19.123  0.00  0.00    +0.000 A 
ATOM     11  S   UNL     1       2.217   8.424  17.805  0.00  0.00    +0.000 S 
ENDBRANCH   5   7
BRANCH   1  13
ATOM     12  O   UNL     1       7.793   4.571  16.999  0.00  0.00    +0.000 OA
ATOM     13  S   UNL     1       6.741   5.366  16.398  0.00  0.00    +0.000 S 
ATOM     14  O   UNL     1       6.866   6.806  16.309  0.00  0.00    +0.000 OA
BRANCH  13  15
ATOM     15  C   UNL     1       6.470   4.758  14.767  0.00  0.00    +0.000 A 
ATOM     16  C   UNL     1       5.325   4.011  14.466  0.00  0.00    +0.000 A 
ATOM     17  C   UNL     1       5.153   3.503  13.174  0.00  0.00    +0.000 A 
ATOM     18  C   UNL     1       6.122   3.733  12.197  0.00  0.00    +0.000 A 
ATOM     19  C   UNL     1       7.267   4.469  12.510  0.00  0.00    +0.000 A 
ATOM     20  C   UNL     1       7.437   4.977  13.796  0.00  0.00    +0.000 A 
ATOM     21  F   UNL     1       8.545   5.680  14.061  0.00  0.00    +0.000 F 
ENDBRANCH  13  15
ENDBRANCH   1  13
TORSDOF 3
ENDMDL
MODEL 8
REMARK VINA RESULT:      -7.0      3.504      6.562
REMARK  Name = 
REMARK  3 active torsions:
REMARK  status: ('A' for Active; 'I' for Inactive)
REMARK    1  A    between atoms: S_2  and  C_4
REMARK    2  A    between atoms: S_2  and  N_11
REMARK    3  A    between atoms: C_15  and  C_16
REMARK                            x       y       z     vdW  Elec       q    Type
REMARK                         _______ _______ _______ _____ _____    ______ ____
ROOT
ATOM      1  N   UNL     1       4.416   6.197  18.396  0.00  0.00    +0.000 NA
ATOM      2  C   UNL     1       5.102   5.365  19.425  0.00  0.00    +0.000 C 
ATOM      3  C   UNL     1       6.610   5.385  19.186  0.00  0.00    +0.000 C 
ATOM      4  C   UNL     1       6.966   4.914  17.778  0.00  0.00    +0.000 C 
ATOM      5  C   UNL     1       6.194   5.716  16.719  0.00  0.00    +0.000 C 
ATOM      6  C   UNL     1       4.687   5.673  17.014  0.00  0.00    +0.000 C 
ENDROOT
BRANCH   5   7
ATOM      7  C   UNL     1       6.469   5.174  15.341  0.00  0.00    +0.000 A 
ATOM      8  N   UNL     1       7.517   5.503  14.613  0.00  0.00    +0.000 NA
ATOM      9  C   UNL     1       7.486   4.821  13.412  0.00  0.00    +0.000 A 
ATOM     10  C   UNL     1       6.411   3.980  13.235  0.00  0.00    +0.000 A 
ATOM     11  S   UNL     1       5.394   4.044  14.612  0.00  0.00    +0.000 S 
ENDBRANCH   5   7
BRANCH   1  13
ATOM     12  O   UNL     1       2.151   6.843  17.426  0.00  0.00    +0.000 OA
ATOM     13  S   UNL     1       2.737   6.437  18.688  0.00  0.00    +0.000 S 
ATOM     14  O   UNL     1       2.578   7.255  19.872  0.00  0.00    +0.000 OA
BRANCH  13  15
ATOM     15  C   UNL     1       2.127   4.829  19.073  0.00  0.00    +0.000 A 
ATOM     16  C   UNL     1       1.909   3.888  18.060  0.00  0.00    +0.000 A 
ATOM     17  C   UNL     1       1.385   2.633  18.386  0.00  0.00    +0.000 A 
ATOM     18  C   UNL     1       1.073   2.328  19.711  0.00  0.00    +0.000 A 
ATOM     19  C   UNL     1       1.281   3.278  20.713  0.00  0.00    +0.000 A 
ATOM     20  C   UNL     1       1.806   4.527  20.389  0.00  0.00    +0.000 A 
ATOM     21  F   UNL     1       1.996   5.413  21.374  0.00  0.00    +0.000 F 
ENDBRANCH  13  15
ENDBRANCH   1  13
TORSDOF 3
ENDMDL
MODEL 9
REMARK VINA RESULT:      -6.9      1.068      1.500
REMARK  Name = 
REMARK  3 active torsions:
REMARK  status: ('A' for Active; 'I' for Inactive)
REMARK    1  A    between atoms: S_2  and  C_4
REMARK    2  A    between atoms: S_2  and  N_11
REMARK    3  A    between atoms: C_15  and  C_16
REMARK                            x       y       z     vdW  Elec       q    Type
REMARK                         _______ _______ _______ _____ _____    ______ ____
ROOT
ATOM      1  N   UNL     1       5.505   5.248  17.440  0.00  0.00    +0.000 NA
ATOM      2  C   UNL     1       5.583   4.484  18.718  0.00  0.00    +0.000 C 
ATOM      3  C   UNL     1       4.174   4.171  19.219  0.00  0.00    +0.000 C 
ATOM      4  C   UNL     1       3.340   5.438  19.391  0.00  0.00    +0.000 C 
ATOM      5  C   UNL     1       3.330   6.268  18.099  0.00  0.00    +0.000 C 
ATOM      6  C   UNL     1       4.768   6.544  17.632  0.00  0.00    +0.000 C 
ENDROOT
BRANCH   5   7
ATOM      7  C   UNL     1       2.595   7.566  18.309  0.00  0.00    +0.000 A 
ATOM      8  N   UNL     1       2.480   8.507  17.394  0.00  0.00    +0.000 NA
ATOM      9  C   UNL     1       1.733   9.557  17.894  0.00  0.00    +0.000 A 
ATOM     10  C   UNL     1       1.288   9.406  19.188  0.00  0.00    +0.000 A 
ATOM     11  S   UNL     1       1.824   7.903  19.812  0.00  0.00    +0.000 S 
ENDBRANCH   5   7
BRANCH   1  13
ATOM     12  O   UNL     1       7.962   4.586  17.319  0.00  0.00    +0.000 OA
ATOM     13  S   UNL     1       7.022   5.468  16.658  0.00  0.00    +0.000 S 
ATOM     14  O   UNL     1       7.294   6.886  16.550  0.00  0.00    +0.000 OA
BRANCH  13  15
ATOM     15  C   UNL     1       6.764   4.855  15.026  0.00  0.00    +0.000 A 
ATOM     16  C   UNL     1       7.635   5.203  13.988  0.00  0.00    +0.000 A 
ATOM     17  C   UNL     1       7.385   4.738  12.692  0.00  0.00    +0.000 A 
ATOM     18  C   UNL     1       6.268   3.941  12.439  0.00  0.00    +0.000 A 
ATOM     19  C   UNL     1       5.397   3.609  13.479  0.00  0.00    +0.000 A 
ATOM     20  C   UNL     1       5.648   4.070  14.770  0.00  0.00    +0.000 A 
ATOM     21  F   UNL     1       4.795   3.732  15.744  0.00  0.00    +0.000 F 
ENDBRANCH  13  15
ENDBRANCH   1  13
TORSDOF 3
ENDMDL
