MODEL 1
REMARK VINA RESULT:      -8.0      0.000      0.000
REMARK  Name = 
REMARK  7 active torsions:
REMARK  status: ('A' for Active; 'I' for Inactive)
REMARK    1  A    between atoms: C_1  and  C_2
REMARK    2  A    between atoms: C_5  and  C_6
REMARK    3  A    between atoms: C_12  and  C_13
REMARK    4  A    between atoms: C_14  and  C_15
REMARK    5  A    between atoms: C_16  and  C_17
REMARK    6  A    between atoms: C_17  and  O_19
REMARK    7  A    between atoms: C_23  and  N_24
REMARK                            x       y       z     vdW  Elec       q    Type
REMARK                         _______ _______ _______ _____ _____    ______ ____
ROOT
ATOM      1  C   UNL     1       1.702   8.191  20.168  0.00  0.00    +0.000 A 
ATOM      2  C   UNL     1       1.029   8.184  21.333  0.00  0.00    +0.000 A 
ATOM      3  C   UNL     1       0.744   9.463  21.922  0.00  0.00    +0.000 A 
ATOM      4  O   UNL     1       0.748   9.681  23.120  0.00  0.00    +0.000 OA
ATOM      5  C   UNL     1       0.429  10.443  20.918  0.00  0.00    +0.000 A 
ATOM      6  C   UNL     1      -0.808  11.052  20.996  0.00  0.00    +0.000 A 
ATOM      7  C   UNL     1      -1.179  11.905  19.985  0.00  0.00    +0.000 A 
ATOM      8  C   UNL     1      -2.640  12.224  19.845  0.00  0.00    +0.000 C 
ATOM      9  C   UNL     1      -0.162  12.417  19.163  0.00  0.00    +0.000 A 
ATOM     10  C   UNL     1      -0.427  13.771  18.514  0.00  0.00    +0.000 C 
ATOM     11  C   UNL     1       1.091  11.713  19.064  0.00  0.00    +0.000 A 
ATOM     12  C   UNL     1       1.255  10.542  19.808  0.00  0.00    +0.000 A 
ATOM     13  O   UNL     1       2.047   9.418  19.483  0.00  0.00    +0.000 OA
ENDROOT
BRANCH   1  18
ATOM     14  C   UNL     1       2.620   2.630  18.444  0.00  0.00    +0.000 C 
ATOM     15  C   UNL     1       2.410   4.058  18.878  0.00  0.00    +0.000 A 
ATOM     16  C   UNL     1       2.617   5.131  17.987  0.00  0.00    +0.000 A 
ATOM     17  C   UNL     1       2.452   6.491  18.378  0.00  0.00    +0.000 A 
ATOM     18  C   UNL     1       2.082   6.822  19.684  0.00  0.00    +0.000 A 
ATOM     19  C   UNL     1       1.909   5.730  20.580  0.00  0.00    +0.000 A 
ATOM     20  C   UNL     1       2.041   4.389  20.181  0.00  0.00    +0.000 A 
BRANCH  20  21
ATOM     21  N   UNL     1       1.764   3.367  21.193  0.00  0.00    +0.000 N 
ATOM     22  O   UNL     1       0.678   2.767  21.114  0.00  0.00    +0.000 OA
ATOM     23  O   UNL     1       2.608   3.205  22.081  0.00  0.00    +0.000 OA
ENDBRANCH  20  21
ENDBRANCH   1  18
BRANCH  11  24
ATOM     24  C   UNL     1       2.205  12.368  18.296  0.00  0.00    +0.000 C 
ATOM     25  O   UNL     1       2.813  13.355  18.677  0.00  0.00    +0.000 OA
BRANCH  24  26
ATOM     26  O   UNL     1       2.597  11.677  17.203  0.00  0.00    +0.000 OA
ATOM     27  H   UNL     1       3.447  11.929  16.802  0.00  0.00    +0.000 HD
ENDBRANCH  24  26
ENDBRANCH  11  24
TORSDOF 4
ENDMDL
MODEL 2
REMARK VINA RESULT:      -7.7      1.813      2.072
REMARK  Name = 
REMARK  7 active torsions:
REMARK  status: ('A' for Active; 'I' for Inactive)
REMARK    1  A    between atoms: C_1  and  C_2
REMARK    2  A    between atoms: C_5  and  C_6
REMARK    3  A    between atoms: C_12  and  C_13
REMARK    4  A    between atoms: C_14  and  C_15
REMARK    5  A    between atoms: C_16  and  C_17
REMARK    6  A    between atoms: C_17  and  O_19
REMARK    7  A    between atoms: C_23  and  N_24
REMARK                            x       y       z     vdW  Elec       q    Type
REMARK                         _______ _______ _______ _____ _____    ______ ____
ROOT
ATOM      1  C   UNL     1       1.577   7.961  20.475  0.00  0.00    +0.000 A 
ATOM      2  C   UNL     1       0.920   8.095  21.641  0.00  0.00    +0.000 A 
ATOM      3  C   UNL     1       0.679   9.436  22.097  0.00  0.00    +0.000 A 
ATOM      4  O   UNL     1       0.706   9.777  23.265  0.00  0.00    +0.000 OA
ATOM      5  C   UNL     1       0.378  10.315  21.000  0.00  0.00    +0.000 A 
ATOM      6  C   UNL     1      -0.840  10.965  21.027  0.00  0.00    +0.000 A 
ATOM      7  C   UNL     1      -1.202  11.719  19.937  0.00  0.00    +0.000 A 
ATOM      8  C   UNL     1      -2.655  12.064  19.780  0.00  0.00    +0.000 C 
ATOM      9  C   UNL     1      -0.182  12.113  19.055  0.00  0.00    +0.000 A 
ATOM     10  C   UNL     1      -0.419  13.399  18.271  0.00  0.00    +0.000 C 
ATOM     11  C   UNL     1       1.049  11.366  19.016  0.00  0.00    +0.000 A 
ATOM     12  C   UNL     1       1.191  10.274  19.877  0.00  0.00    +0.000 A 
ATOM     13  O   UNL     1       1.946   9.100  19.662  0.00  0.00    +0.000 OA
ENDROOT
BRANCH   1  18
ATOM     14  C   UNL     1       3.440   2.471  19.414  0.00  0.00    +0.000 C 
ATOM     15  C   UNL     1       2.942   3.870  19.672  0.00  0.00    +0.000 A 
ATOM     16  C   UNL     1       1.707   4.100  20.311  0.00  0.00    +0.000 A 
ATOM     17  C   UNL     1       1.199   5.410  20.543  0.00  0.00    +0.000 A 
ATOM     18  C   UNL     1       1.912   6.539  20.132  0.00  0.00    +0.000 A 
ATOM     19  C   UNL     1       3.141   6.290  19.459  0.00  0.00    +0.000 A 
ATOM     20  C   UNL     1       3.653   4.997  19.262  0.00  0.00    +0.000 A 
BRANCH  20  21
ATOM     21  N   UNL     1       4.965   4.896  18.618  0.00  0.00    +0.000 N 
ATOM     22  O   UNL     1       5.957   4.792  19.360  0.00  0.00    +0.000 OA
ATOM     23  O   UNL     1       4.998   4.967  17.384  0.00  0.00    +0.000 OA
ENDBRANCH  20  21
ENDBRANCH   1  18
BRANCH  11  24
ATOM     24  C   UNL     1       2.170  11.905  18.172  0.00  0.00    +0.000 C 
ATOM     25  O   UNL     1       2.795  12.920  18.430  0.00  0.00    +0.000 OA
BRANCH  24  26
ATOM     26  O   UNL     1       2.546  11.080  17.170  0.00  0.00    +0.000 OA
ATOM     27  H   UNL     1       3.223  10.413  17.378  0.00  0.00    +0.000 HD
ENDBRANCH  24  26
ENDBRANCH  11  24
TORSDOF 4
ENDMDL
MODEL 3
REMARK VINA RESULT:      -7.6      2.385      3.044
REMARK  Name = 
REMARK  7 active torsions:
REMARK  status: ('A' for Active; 'I' for Inactive)
REMARK    1  A    between atoms: C_1  and  C_2
REMARK    2  A    between atoms: C_5  and  C_6
REMARK    3  A    between atoms: C_12  and  C_13
REMARK    4  A    between atoms: C_14  and  C_15
REMARK    5  A    between atoms: C_16  and  C_17
REMARK    6  A    between atoms: C_17  and  O_19
REMARK    7  A    between atoms: C_23  and  N_24
REMARK                            x       y       z     vdW  Elec       q    Type
REMARK                         _______ _______ _______ _____ _____    ______ ____
ROOT
ATOM      1  C   UNL     1       1.959   8.320  19.349  0.00  0.00    +0.000 A 
ATOM      2  C   UNL     1       1.206   8.005  20.418  0.00  0.00    +0.000 A 
ATOM      3  C   UNL     1       0.753   9.099  21.233  0.00  0.00    +0.000 A 
ATOM      4  O   UNL     1       0.647   9.052  22.444  0.00  0.00    +0.000 OA
ATOM      5  C   UNL     1       0.416  10.244  20.431  0.00  0.00    +0.000 A 
ATOM      6  C   UNL     1      -0.877  10.719  20.519  0.00  0.00    +0.000 A 
ATOM      7  C   UNL     1      -1.257  11.738  19.679  0.00  0.00    +0.000 A 
ATOM      8  C   UNL     1      -2.728  11.960  19.474  0.00  0.00    +0.000 C 
ATOM      9  C   UNL     1      -0.238  12.497  19.080  0.00  0.00    +0.000 A 
ATOM     10  C   UNL     1      -0.589  13.933  18.707  0.00  0.00    +0.000 C 
ATOM     11  C   UNL     1       1.083  11.935  18.953  0.00  0.00    +0.000 A 
ATOM     12  C   UNL     1       1.308  10.648  19.448  0.00  0.00    +0.000 A 
ATOM     13  O   UNL     1       2.229   9.690  18.970  0.00  0.00    +0.000 OA
ENDROOT
BRANCH   1  18
ATOM     14  C   UNL     1       4.677   3.805  16.710  0.00  0.00    +0.000 C 
ATOM     15  C   UNL     1       3.960   4.951  17.374  0.00  0.00    +0.000 A 
ATOM     16  C   UNL     1       2.885   4.727  18.259  0.00  0.00    +0.000 A 
ATOM     17  C   UNL     1       2.172   5.791  18.880  0.00  0.00    +0.000 A 
ATOM     18  C   UNL     1       2.507   7.123  18.626  0.00  0.00    +0.000 A 
ATOM     19  C   UNL     1       3.572   7.335  17.706  0.00  0.00    +0.000 A 
ATOM     20  C   UNL     1       4.294   6.281  17.121  0.00  0.00    +0.000 A 
BRANCH  20  21
ATOM     21  N   UNL     1       5.411   6.648  16.249  0.00  0.00    +0.000 N 
ATOM     22  O   UNL     1       6.524   6.802  16.782  0.00  0.00    +0.000 OA
ATOM     23  O   UNL     1       5.161   6.824  15.051  0.00  0.00    +0.000 OA
ENDBRANCH  20  21
ENDBRANCH   1  18
BRANCH  11  24
ATOM     24  C   UNL     1       2.179  12.831  18.445  0.00  0.00    +0.000 C 
ATOM     25  O   UNL     1       2.693  13.723  19.099  0.00  0.00    +0.000 OA
BRANCH  24  26
ATOM     26  O   UNL     1       2.672  12.463  17.242  0.00  0.00    +0.000 OA
ATOM     27  H   UNL     1       3.209  13.121  16.766  0.00  0.00    +0.000 HD
ENDBRANCH  24  26
ENDBRANCH  11  24
TORSDOF 4
ENDMDL
MODEL 4
REMARK VINA RESULT:      -7.6      2.961      4.321
REMARK  Name = 
REMARK  7 active torsions:
REMARK  status: ('A' for Active; 'I' for Inactive)
REMARK    1  A    between atoms: C_1  and  C_2
REMARK    2  A    between atoms: C_5  and  C_6
REMARK    3  A    between atoms: C_12  and  C_13
REMARK    4  A    between atoms: C_14  and  C_15
REMARK    5  A    between atoms: C_16  and  C_17
REMARK    6  A    between atoms: C_17  and  O_19
REMARK    7  A    between atoms: C_23  and  N_24
REMARK                            x       y       z     vdW  Elec       q    Type
REMARK                         _______ _______ _______ _____ _____    ______ ____
ROOT
ATOM      1  C   UNL     1       1.405   8.441  19.040  0.00  0.00    +0.000 A 
ATOM      2  C   UNL     1       0.954   8.942  17.875  0.00  0.00    +0.000 A 
ATOM      3  C   UNL     1      -0.122   9.891  17.954  0.00  0.00    +0.000 A 
ATOM      4  O   UNL     1      -1.027   9.969  17.145  0.00  0.00    +0.000 OA
ATOM      5  C   UNL     1       0.023  10.752  19.097  0.00  0.00    +0.000 A 
ATOM      6  C   UNL     1       0.108  12.110  18.859  0.00  0.00    +0.000 A 
ATOM      7  C   UNL     1       0.362  12.943  19.921  0.00  0.00    +0.000 A 
ATOM      8  C   UNL     1       0.868  14.324  19.616  0.00  0.00    +0.000 C 
ATOM      9  C   UNL     1       0.124  12.441  21.210  0.00  0.00    +0.000 A 
ATOM     10  C   UNL     1      -0.219  13.464  22.288  0.00  0.00    +0.000 C 
ATOM     11  C   UNL     1       0.107  11.016  21.424  0.00  0.00    +0.000 A 
ATOM     12  C   UNL     1       0.315  10.178  20.326  0.00  0.00    +0.000 A 
ATOM     13  O   UNL     1       0.907   8.895  20.321  0.00  0.00    +0.000 OA
ENDROOT
BRANCH   1  18
ATOM     14  C   UNL     1       5.869   4.646  18.403  0.00  0.00    +0.000 C 
ATOM     15  C   UNL     1       4.712   5.597  18.563  0.00  0.00    +0.000 A 
ATOM     16  C   UNL     1       3.752   5.415  19.580  0.00  0.00    +0.000 A 
ATOM     17  C   UNL     1       2.632   6.282  19.738  0.00  0.00    +0.000 A 
ATOM     18  C   UNL     1       2.432   7.359  18.872  0.00  0.00    +0.000 A 
ATOM     19  C   UNL     1       3.391   7.511  17.831  0.00  0.00    +0.000 A 
ATOM     20  C   UNL     1       4.510   6.673  17.699  0.00  0.00    +0.000 A 
BRANCH  20  21
ATOM     21  N   UNL     1       5.453   6.991  16.624  0.00  0.00    +0.000 N 
ATOM     22  O   UNL     1       5.156   6.616  15.476  0.00  0.00    +0.000 OA
ATOM     23  O   UNL     1       6.499   7.569  16.940  0.00  0.00    +0.000 OA
ENDBRANCH  20  21
ENDBRANCH   1  18
BRANCH  11  24
ATOM     24  C   UNL     1      -0.299  10.515  22.783  0.00  0.00    +0.000 C 
ATOM     25  O   UNL     1      -1.414  10.647  23.257  0.00  0.00    +0.000 OA
BRANCH  24  26
ATOM     26  O   UNL     1       0.640   9.754  23.387  0.00  0.00    +0.000 OA
ATOM     27  H   UNL     1       0.549   9.621  24.347  0.00  0.00    +0.000 HD
ENDBRANCH  24  26
ENDBRANCH  11  24
TORSDOF 4
ENDMDL
MODEL 5
REMARK VINA RESULT:      -7.4      1.833      3.231
REMARK  Name = 
REMARK  7 active torsions:
REMARK  status: ('A' for Active; 'I' for Inactive)
REMARK    1  A    between atoms: C_1  and  C_2
REMARK    2  A    between atoms: C_5  and  C_6
REMARK    3  A    between atoms: C_12  and  C_13
REMARK    4  A    between atoms: C_14  and  C_15
REMARK    5  A    between atoms: C_16  and  C_17
REMARK    6  A    between atoms: C_17  and  O_19
REMARK    7  A    between atoms: C_23  and  N_24
REMARK                            x       y       z     vdW  Elec       q    Type
REMARK                         _______ _______ _______ _____ _____    ______ ____
ROOT
ATOM      1  C   UNL     1       1.281   8.337  19.570  0.00  0.00    +0.000 A 
ATOM      2  C   UNL     1       1.044   8.817  18.336  0.00  0.00    +0.000 A 
ATOM      3  C   UNL     1       0.075   9.871  18.227  0.00  0.00    +0.000 A 
ATOM      4  O   UNL     1      -0.701   9.996  17.298  0.00  0.00    +0.000 OA
ATOM      5  C   UNL     1       0.157  10.774  19.344  0.00  0.00    +0.000 A 
ATOM      6  C   UNL     1       0.418  12.102  19.066  0.00  0.00    +0.000 A 
ATOM      7  C   UNL     1       0.616  12.962  20.118  0.00  0.00    +0.000 A 
ATOM      8  C   UNL     1       1.303  14.266  19.831  0.00  0.00    +0.000 C 
ATOM      9  C   UNL     1       0.157  12.556  21.382  0.00  0.00    +0.000 A 
ATOM     10  C   UNL     1      -0.215  13.665  22.360  0.00  0.00    +0.000 C 
ATOM     11  C   UNL     1      -0.041  11.154  21.647  0.00  0.00    +0.000 A 
ATOM     12  C   UNL     1       0.221  10.241  20.623  0.00  0.00    +0.000 A 
ATOM     13  O   UNL     1       0.668   8.907  20.751  0.00  0.00    +0.000 OA
ENDROOT
BRANCH   1  18
ATOM     14  C   UNL     1       4.388   3.329  19.493  0.00  0.00    +0.000 C 
ATOM     15  C   UNL     1       3.615   4.622  19.520  0.00  0.00    +0.000 A 
ATOM     16  C   UNL     1       4.022   5.733  18.754  0.00  0.00    +0.000 A 
ATOM     17  C   UNL     1       3.326   6.976  18.781  0.00  0.00    +0.000 A 
ATOM     18  C   UNL     1       2.199   7.150  19.589  0.00  0.00    +0.000 A 
ATOM     19  C   UNL     1       1.821   6.030  20.381  0.00  0.00    +0.000 A 
ATOM     20  C   UNL     1       2.490   4.797  20.326  0.00  0.00    +0.000 A 
BRANCH  20  21
ATOM     21  N   UNL     1       1.945   3.710  21.144  0.00  0.00    +0.000 N 
ATOM     22  O   UNL     1       1.003   3.055  20.666  0.00  0.00    +0.000 OA
ATOM     23  O   UNL     1       2.430   3.550  22.270  0.00  0.00    +0.000 OA
ENDBRANCH  20  21
ENDBRANCH   1  18
BRANCH  11  24
ATOM     24  C   UNL     1      -0.675  10.771  22.956  0.00  0.00    +0.000 C 
ATOM     25  O   UNL     1      -1.811  11.071  23.282  0.00  0.00    +0.000 OA
BRANCH  24  26
ATOM     26  O   UNL     1       0.069   9.917  23.694  0.00  0.00    +0.000 OA
ATOM     27  H   UNL     1       1.028   9.913  23.530  0.00  0.00    +0.000 HD
ENDBRANCH  24  26
ENDBRANCH  11  24
TORSDOF 4
ENDMDL
MODEL 6
REMARK VINA RESULT:      -7.4      2.118      3.462
REMARK  Name = 
REMARK  7 active torsions:
REMARK  status: ('A' for Active; 'I' for Inactive)
REMARK    1  A    between atoms: C_1  and  C_2
REMARK    2  A    between atoms: C_5  and  C_6
REMARK    3  A    between atoms: C_12  and  C_13
REMARK    4  A    between atoms: C_14  and  C_15
REMARK    5  A    between atoms: C_16  and  C_17
REMARK    6  A    between atoms: C_17  and  O_19
REMARK    7  A    between atoms: C_23  and  N_24
REMARK                            x       y       z     vdW  Elec       q    Type
REMARK                         _______ _______ _______ _____ _____    ______ ____
ROOT
ATOM      1  C   UNL     1       1.251   8.769  18.856  0.00  0.00    +0.000 A 
ATOM      2  C   UNL     1       0.674   9.297  17.762  0.00  0.00    +0.000 A 
ATOM      3  C   UNL     1      -0.469  10.141  17.977  0.00  0.00    +0.000 A 
ATOM      4  O   UNL     1      -1.434  10.187  17.238  0.00  0.00    +0.000 OA
ATOM      5  C   UNL     1      -0.313  10.941  19.162  0.00  0.00    +0.000 A 
ATOM      6  C   UNL     1      -0.359  12.312  19.009  0.00  0.00    +0.000 A 
ATOM      7  C   UNL     1      -0.099  13.099  20.104  0.00  0.00    +0.000 A 
ATOM      8  C   UNL     1       0.267  14.535  19.859  0.00  0.00    +0.000 C 
ATOM      9  C   UNL     1      -0.197  12.501  21.371  0.00  0.00    +0.000 A 
ATOM     10  C   UNL     1      -0.544  13.422  22.535  0.00  0.00    +0.000 C 
ATOM     11  C   UNL     1      -0.079  11.069  21.489  0.00  0.00    +0.000 A 
ATOM     12  C   UNL     1       0.116  10.321  20.326  0.00  0.00    +0.000 A 
ATOM     13  O   UNL     1       0.812   9.099  20.196  0.00  0.00    +0.000 OA
ENDROOT
BRANCH   1  18
ATOM     14  C   UNL     1       5.117   4.551  17.442  0.00  0.00    +0.000 C 
ATOM     15  C   UNL     1       4.148   5.643  17.812  0.00  0.00    +0.000 A 
ATOM     16  C   UNL     1       4.293   6.952  17.308  0.00  0.00    +0.000 A 
ATOM     17  C   UNL     1       3.409   8.010  17.663  0.00  0.00    +0.000 A 
ATOM     18  C   UNL     1       2.349   7.794  18.547  0.00  0.00    +0.000 A 
ATOM     19  C   UNL     1       2.235   6.477  19.073  0.00  0.00    +0.000 A 
ATOM     20  C   UNL     1       3.090   5.429  18.695  0.00  0.00    +0.000 A 
BRANCH  20  21
ATOM     21  N   UNL     1       2.810   4.107  19.263  0.00  0.00    +0.000 N 
ATOM     22  O   UNL     1       2.063   3.355  18.613  0.00  0.00    +0.000 OA
ATOM     23  O   UNL     1       3.297   3.851  20.370  0.00  0.00    +0.000 OA
ENDBRANCH  20  21
ENDBRANCH   1  18
BRANCH  11  24
ATOM     24  C   UNL     1      -0.340  10.454  22.837  0.00  0.00    +0.000 C 
ATOM     25  O   UNL     1      -1.430  10.438  23.383  0.00  0.00    +0.000 OA
BRANCH  24  26
ATOM     26  O   UNL     1       0.710   9.766  23.336  0.00  0.00    +0.000 OA
ATOM     27  H   UNL     1       1.571   9.899  22.901  0.00  0.00    +0.000 HD
ENDBRANCH  24  26
ENDBRANCH  11  24
TORSDOF 4
ENDMDL
MODEL 7
REMARK VINA RESULT:      -7.3      3.220      4.290
REMARK  Name = 
REMARK  7 active torsions:
REMARK  status: ('A' for Active; 'I' for Inactive)
REMARK    1  A    between atoms: C_1  and  C_2
REMARK    2  A    between atoms: C_5  and  C_6
REMARK    3  A    between atoms: C_12  and  C_13
REMARK    4  A    between atoms: C_14  and  C_15
REMARK    5  A    between atoms: C_16  and  C_17
REMARK    6  A    between atoms: C_17  and  O_19
REMARK    7  A    between atoms: C_23  and  N_24
REMARK                            x       y       z     vdW  Elec       q    Type
REMARK                         _______ _______ _______ _____ _____    ______ ____
ROOT
ATOM      1  C   UNL     1       1.568   9.364  18.298  0.00  0.00    +0.000 A 
ATOM      2  C   UNL     1       2.190  10.388  18.909  0.00  0.00    +0.000 A 
ATOM      3  C   UNL     1       1.573  11.681  18.795  0.00  0.00    +0.000 A 
ATOM      4  O   UNL     1       2.188  12.726  18.691  0.00  0.00    +0.000 OA
ATOM      5  C   UNL     1       0.139  11.582  18.844  0.00  0.00    +0.000 A 
ATOM      6  C   UNL     1      -0.508  12.273  19.849  0.00  0.00    +0.000 A 
ATOM      7  C   UNL     1      -1.864  12.103  19.989  0.00  0.00    +0.000 A 
ATOM      8  C   UNL     1      -2.483  12.497  21.299  0.00  0.00    +0.000 C 
ATOM      9  C   UNL     1      -2.567  11.577  18.893  0.00  0.00    +0.000 A 
ATOM     10  C   UNL     1      -4.037  11.968  18.776  0.00  0.00    +0.000 C 
ATOM     11  C   UNL     1      -1.861  10.808  17.900  0.00  0.00    +0.000 A 
ATOM     12  C   UNL     1      -0.485  10.624  18.058  0.00  0.00    +0.000 A 
ATOM     13  O   UNL     1       0.291   9.522  17.635  0.00  0.00    +0.000 OA
ENDROOT
BRANCH   1  18
ATOM     14  C   UNL     1       5.111   4.660  18.521  0.00  0.00    +0.000 C 
ATOM     15  C   UNL     1       4.185   5.846  18.461  0.00  0.00    +0.000 A 
ATOM     16  C   UNL     1       3.111   5.982  19.364  0.00  0.00    +0.000 A 
ATOM     17  C   UNL     1       2.204   7.079  19.314  0.00  0.00    +0.000 A 
ATOM     18  C   UNL     1       2.338   8.077  18.345  0.00  0.00    +0.000 A 
ATOM     19  C   UNL     1       3.406   7.909  17.420  0.00  0.00    +0.000 A 
ATOM     20  C   UNL     1       4.318   6.843  17.494  0.00  0.00    +0.000 A 
BRANCH  20  21
ATOM     21  N   UNL     1       5.411   6.837  16.519  0.00  0.00    +0.000 N 
ATOM     22  O   UNL     1       6.507   7.293  16.890  0.00  0.00    +0.000 OA
ATOM     23  O   UNL     1       5.155   6.422  15.384  0.00  0.00    +0.000 OA
ENDBRANCH  20  21
ENDBRANCH   1  18
BRANCH  11  24
ATOM     24  C   UNL     1      -2.616  10.392  16.668  0.00  0.00    +0.000 C 
ATOM     25  O   UNL     1      -3.349   9.419  16.610  0.00  0.00    +0.000 OA
BRANCH  24  26
ATOM     26  O   UNL     1      -2.543  11.283  15.655  0.00  0.00    +0.000 OA
ATOM     27  H   UNL     1      -1.662  11.447  15.275  0.00  0.00    +0.000 HD
ENDBRANCH  24  26
ENDBRANCH  11  24
TORSDOF 4
ENDMDL
MODEL 8
REMARK VINA RESULT:      -7.2      1.187      1.276
REMARK  Name = 
REMARK  7 active torsions:
REMARK  status: ('A' for Active; 'I' for Inactive)
REMARK    1  A    between atoms: C_1  and  C_2
REMARK    2  A    between atoms: C_5  and  C_6
REMARK    3  A    between atoms: C_12  and  C_13
REMARK    4  A    between atoms: C_14  and  C_15
REMARK    5  A    between atoms: C_16  and  C_17
REMARK    6  A    between atoms: C_17  and  O_19
REMARK    7  A    between atoms: C_23  and  N_24
REMARK                            x       y       z     vdW  Elec       q    Type
REMARK                         _______ _______ _______ _____ _____    ______ ____
ROOT
ATOM      1  C   UNL     1       1.967   8.119  19.528  0.00  0.00    +0.000 A 
ATOM      2  C   UNL     1       1.091   7.826  20.506  0.00  0.00    +0.000 A 
ATOM      3  C   UNL     1       0.519   8.937  21.215  0.00  0.00    +0.000 A 
ATOM      4  O   UNL     1       0.262   8.931  22.404  0.00  0.00    +0.000 OA
ATOM      5  C   UNL     1       0.265  10.045  20.333  0.00  0.00    +0.000 A 
ATOM      6  C   UNL     1      -1.038  10.493  20.240  0.00  0.00    +0.000 A 
ATOM      7  C   UNL     1      -1.327  11.472  19.321  0.00  0.00    +0.000 A 
ATOM      8  C   UNL     1      -2.764  11.652  18.924  0.00  0.00    +0.000 C 
ATOM      9  C   UNL     1      -0.255  12.232  18.826  0.00  0.00    +0.000 A 
ATOM     10  C   UNL     1      -0.581  13.645  18.356  0.00  0.00    +0.000 C 
ATOM     11  C   UNL     1       1.082  11.697  18.887  0.00  0.00    +0.000 A 
ATOM     12  C   UNL     1       1.266  10.434  19.455  0.00  0.00    +0.000 A 
ATOM     13  O   UNL     1       2.257   9.481  19.133  0.00  0.00    +0.000 OA
ENDROOT
BRANCH   1  18
ATOM     14  C   UNL     1       3.975   3.200  16.976  0.00  0.00    +0.000 C 
ATOM     15  C   UNL     1       3.485   4.462  17.637  0.00  0.00    +0.000 A 
ATOM     16  C   UNL     1       4.038   5.718  17.313  0.00  0.00    +0.000 A 
ATOM     17  C   UNL     1       3.614   6.924  17.941  0.00  0.00    +0.000 A 
ATOM     18  C   UNL     1       2.624   6.910  18.926  0.00  0.00    +0.000 A 
ATOM     19  C   UNL     1       2.099   5.632  19.266  0.00  0.00    +0.000 A 
ATOM     20  C   UNL     1       2.497   4.450  18.621  0.00  0.00    +0.000 A 
BRANCH  20  21
ATOM     21  N   UNL     1       1.820   3.215  19.024  0.00  0.00    +0.000 N 
ATOM     22  O   UNL     1       0.840   2.855  18.348  0.00  0.00    +0.000 OA
ATOM     23  O   UNL     1       2.241   2.642  20.035  0.00  0.00    +0.000 OA
ENDBRANCH  20  21
ENDBRANCH   1  18
BRANCH  11  24
ATOM     24  C   UNL     1       2.217  12.598  18.487  0.00  0.00    +0.000 C 
ATOM     25  O   UNL     1       2.804  13.342  19.254  0.00  0.00    +0.000 OA
BRANCH  24  26
ATOM     26  O   UNL     1       2.650  12.403  17.222  0.00  0.00    +0.000 OA
ATOM     27  H   UNL     1       3.333  11.722  17.090  0.00  0.00    +0.000 HD
ENDBRANCH  24  26
ENDBRANCH  11  24
TORSDOF 4
ENDMDL
MODEL 9
REMARK VINA RESULT:      -7.1      2.407      3.419
REMARK  Name = 
REMARK  7 active torsions:
REMARK  status: ('A' for Active; 'I' for Inactive)
REMARK    1  A    between atoms: C_1  and  C_2
REMARK    2  A    between atoms: C_5  and  C_6
REMARK    3  A    between atoms: C_12  and  C_13
REMARK    4  A    between atoms: C_14  and  C_15
REMARK    5  A    between atoms: C_16  and  C_17
REMARK    6  A    between atoms: C_17  and  O_19
REMARK    7  A    between atoms: C_23  and  N_24
REMARK                            x       y       z     vdW  Elec       q    Type
REMARK                         _______ _______ _______ _____ _____    ______ ____
ROOT
ATOM      1  C   UNL     1       1.842   9.166  17.977  0.00  0.00    +0.000 A 
ATOM      2  C   UNL     1       2.571  10.164  18.508  0.00  0.00    +0.000 A 
ATOM      3  C   UNL     1       1.990  11.477  18.474  0.00  0.00    +0.000 A 
ATOM      4  O   UNL     1       2.622  12.502  18.298  0.00  0.00    +0.000 OA
ATOM      5  C   UNL     1       0.570  11.426  18.702  0.00  0.00    +0.000 A 
ATOM      6  C   UNL     1       0.078  12.132  19.781  0.00  0.00    +0.000 A 
ATOM      7  C   UNL     1      -1.255  12.008  20.089  0.00  0.00    +0.000 A 
ATOM      8  C   UNL     1      -1.693  12.413  21.467  0.00  0.00    +0.000 C 
ATOM      9  C   UNL     1      -2.107  11.513  19.088  0.00  0.00    +0.000 A 
ATOM     10  C   UNL     1      -3.566  11.954  19.156  0.00  0.00    +0.000 C 
ATOM     11  C   UNL     1      -1.557  10.727  18.013  0.00  0.00    +0.000 A 
ATOM     12  C   UNL     1      -0.180  10.496  17.998  0.00  0.00    +0.000 A 
ATOM     13  O   UNL     1       0.499   9.371  17.478  0.00  0.00    +0.000 OA
ENDROOT
BRANCH   1  18
ATOM     14  C   UNL     1       4.207   3.794  17.436  0.00  0.00    +0.000 C 
ATOM     15  C   UNL     1       3.623   5.174  17.589  0.00  0.00    +0.000 A 
ATOM     16  C   UNL     1       4.349   6.322  17.210  0.00  0.00    +0.000 A 
ATOM     17  C   UNL     1       3.832   7.640  17.369  0.00  0.00    +0.000 A 
ATOM     18  C   UNL     1       2.568   7.853  17.924  0.00  0.00    +0.000 A 
ATOM     19  C   UNL     1       1.861   6.687  18.331  0.00  0.00    +0.000 A 
ATOM     20  C   UNL     1       2.361   5.388  18.143  0.00  0.00    +0.000 A 
BRANCH  20  21
ATOM     21  N   UNL     1       1.492   4.279  18.546  0.00  0.00    +0.000 N 
ATOM     22  O   UNL     1       1.354   4.077  19.765  0.00  0.00    +0.000 OA
ATOM     23  O   UNL     1       0.994   3.594  17.645  0.00  0.00    +0.000 OA
ENDBRANCH  20  21
ENDBRANCH   1  18
BRANCH  11  24
ATOM     24  C   UNL     1      -2.474  10.345  16.883  0.00  0.00    +0.000 C 
ATOM     25  O   UNL     1      -3.266   9.418  16.927  0.00  0.00    +0.000 OA
BRANCH  24  26
ATOM     26  O   UNL     1      -2.465  11.219  15.853  0.00  0.00    +0.000 OA
ATOM     27  H   UNL     1      -2.627  12.155  16.067  0.00  0.00    +0.000 HD
ENDBRANCH  24  26
ENDBRANCH  11  24
TORSDOF 4
ENDMDL
