MODEL 1
REMARK VINA RESULT:      -7.8      0.000      0.000
REMARK  Name = 
REMARK  3 active torsions:
REMARK  status: ('A' for Active; 'I' for Inactive)
REMARK    1  A    between atoms: N_10  and  N_11
REMARK    2  A    between atoms: C_12  and  C_13
REMARK    3  A    between atoms: C_18  and  O_19
REMARK                            x       y       z     vdW  Elec       q    Type
REMARK                         _______ _______ _______ _____ _____    ______ ____
ROOT
ATOM      1  O   UNL     1       5.674   3.589  19.140  0.00  0.00    +0.000 OA
ATOM      2  C   UNL     1       4.522   3.848  18.819  0.00  0.00    +0.000 A 
ATOM      3  C   UNL     1       3.402   3.486  19.696  0.00  0.00    +0.000 A 
ATOM      4  C   UNL     1       3.526   2.921  20.958  0.00  0.00    +0.000 A 
ATOM      5  C   UNL     1       2.359   2.636  21.664  0.00  0.00    +0.000 A 
ATOM      6  C   UNL     1       1.105   2.920  21.101  0.00  0.00    +0.000 A 
ATOM      7  C   UNL     1       1.000   3.492  19.827  0.00  0.00    +0.000 A 
ATOM      8  C   UNL     1       2.164   3.769  19.127  0.00  0.00    +0.000 A 
ATOM      9  S   UNL     1       2.329   4.474  17.512  0.00  0.00    +0.000 S 
ATOM     10  N   UNL     1       4.032   4.471  17.664  0.00  0.00    +0.000 N 
ENDROOT
BRANCH  10  11
ATOM     11  N   UNL     1       4.779   4.870  16.591  0.00  0.00    +0.000 NA
ATOM     12  C   UNL     1       5.207   3.915  15.820  0.00  0.00    +0.000 C 
BRANCH  12  13
ATOM     13  C   UNL     1       5.941   4.156  14.565  0.00  0.00    +0.000 A 
ATOM     14  C   UNL     1       5.581   3.503  13.385  0.00  0.00    +0.000 A 
ATOM     15  C   UNL     1       6.320   3.721  12.220  0.00  0.00    +0.000 A 
ATOM     16  C   UNL     1       7.415   4.588  12.237  0.00  0.00    +0.000 A 
ATOM     17  C   UNL     1       7.773   5.246  13.412  0.00  0.00    +0.000 A 
ATOM     18  C   UNL     1       7.036   5.030  14.575  0.00  0.00    +0.000 A 
BRANCH  18  19
ATOM     19  O   UNL     1       7.387   5.675  15.728  0.00  0.00    +0.000 OA
ATOM     20  H   UNL     1       8.179   5.257  16.105  0.00  0.00    +0.000 HD
ENDBRANCH  18  19
ENDBRANCH  12  13
ENDBRANCH  10  11
TORSDOF 3
ENDMDL
MODEL 2
REMARK VINA RESULT:      -7.8      1.348      1.650
REMARK  Name = 
REMARK  3 active torsions:
REMARK  status: ('A' for Active; 'I' for Inactive)
REMARK    1  A    between atoms: N_10  and  N_11
REMARK    2  A    between atoms: C_12  and  C_13
REMARK    3  A    between atoms: C_18  and  O_19
REMARK                            x       y       z     vdW  Elec       q    Type
REMARK                         _______ _______ _______ _____ _____    ______ ____
ROOT
ATOM      1  O   UNL     1       2.210   3.218  16.590  0.00  0.00    +0.000 OA
ATOM      2  C   UNL     1       2.844   3.723  17.507  0.00  0.00    +0.000 A 
ATOM      3  C   UNL     1       2.389   3.582  18.896  0.00  0.00    +0.000 A 
ATOM      4  C   UNL     1       1.299   2.826  19.307  0.00  0.00    +0.000 A 
ATOM      5  C   UNL     1       1.000   2.798  20.668  0.00  0.00    +0.000 A 
ATOM      6  C   UNL     1       1.789   3.516  21.581  0.00  0.00    +0.000 A 
ATOM      7  C   UNL     1       2.885   4.271  21.146  0.00  0.00    +0.000 A 
ATOM      8  C   UNL     1       3.176   4.300  19.791  0.00  0.00    +0.000 A 
ATOM      9  S   UNL     1       4.481   5.169  18.970  0.00  0.00    +0.000 S 
ATOM     10  N   UNL     1       4.018   4.486  17.473  0.00  0.00    +0.000 N 
ENDROOT
BRANCH  10  11
ATOM     11  N   UNL     1       4.680   4.887  16.345  0.00  0.00    +0.000 NA
ATOM     12  C   UNL     1       5.364   3.963  15.739  0.00  0.00    +0.000 C 
BRANCH  12  13
ATOM     13  C   UNL     1       6.059   4.180  14.458  0.00  0.00    +0.000 A 
ATOM     14  C   UNL     1       5.668   3.499  13.303  0.00  0.00    +0.000 A 
ATOM     15  C   UNL     1       6.372   3.696  12.113  0.00  0.00    +0.000 A 
ATOM     16  C   UNL     1       7.462   4.568  12.078  0.00  0.00    +0.000 A 
ATOM     17  C   UNL     1       7.850   5.254  13.228  0.00  0.00    +0.000 A 
ATOM     18  C   UNL     1       7.149   5.060  14.416  0.00  0.00    +0.000 A 
BRANCH  18  19
ATOM     19  O   UNL     1       7.529   5.732  15.544  0.00  0.00    +0.000 OA
ATOM     20  H   UNL     1       7.280   5.215  16.329  0.00  0.00    +0.000 HD
ENDBRANCH  18  19
ENDBRANCH  12  13
ENDBRANCH  10  11
TORSDOF 3
ENDMDL
MODEL 3
REMARK VINA RESULT:      -7.6      1.368      1.524
REMARK  Name = 
REMARK  3 active torsions:
REMARK  status: ('A' for Active; 'I' for Inactive)
REMARK    1  A    between atoms: N_10  and  N_11
REMARK    2  A    between atoms: C_12  and  C_13
REMARK    3  A    between atoms: C_18  and  O_19
REMARK                            x       y       z     vdW  Elec       q    Type
REMARK                         _______ _______ _______ _____ _____    ______ ____
ROOT
ATOM      1  O   UNL     1       3.471   6.690  18.220  0.00  0.00    +0.000 OA
ATOM      2  C   UNL     1       3.433   5.468  18.156  0.00  0.00    +0.000 A 
ATOM      3  C   UNL     1       2.712   4.689  19.172  0.00  0.00    +0.000 A 
ATOM      4  C   UNL     1       1.962   5.228  20.208  0.00  0.00    +0.000 A 
ATOM      5  C   UNL     1       1.339   4.347  21.090  0.00  0.00    +0.000 A 
ATOM      6  C   UNL     1       1.475   2.961  20.918  0.00  0.00    +0.000 A 
ATOM      7  C   UNL     1       2.235   2.436  19.865  0.00  0.00    +0.000 A 
ATOM      8  C   UNL     1       2.857   3.317  18.994  0.00  0.00    +0.000 A 
ATOM      9  S   UNL     1       3.875   2.938  17.597  0.00  0.00    +0.000 S 
ATOM     10  N   UNL     1       4.007   4.600  17.219  0.00  0.00    +0.000 N 
ENDROOT
BRANCH  10  11
ATOM     11  N   UNL     1       4.817   4.966  16.179  0.00  0.00    +0.000 NA
ATOM     12  C   UNL     1       5.247   3.992  15.435  0.00  0.00    +0.000 C 
BRANCH  12  13
ATOM     13  C   UNL     1       6.045   4.198  14.213  0.00  0.00    +0.000 A 
ATOM     14  C   UNL     1       5.745   3.514  13.033  0.00  0.00    +0.000 A 
ATOM     15  C   UNL     1       6.545   3.701  11.904  0.00  0.00    +0.000 A 
ATOM     16  C   UNL     1       7.639   4.567  11.954  0.00  0.00    +0.000 A 
ATOM     17  C   UNL     1       7.937   5.256  13.129  0.00  0.00    +0.000 A 
ATOM     18  C   UNL     1       7.140   5.071  14.257  0.00  0.00    +0.000 A 
BRANCH  18  19
ATOM     19  O   UNL     1       7.431   5.747  15.409  0.00  0.00    +0.000 OA
ATOM     20  H   UNL     1       7.301   5.158  16.171  0.00  0.00    +0.000 HD
ENDBRANCH  18  19
ENDBRANCH  12  13
ENDBRANCH  10  11
TORSDOF 3
ENDMDL
MODEL 4
REMARK VINA RESULT:      -7.0      1.304      7.249
REMARK  Name = 
REMARK  3 active torsions:
REMARK  status: ('A' for Active; 'I' for Inactive)
REMARK    1  A    between atoms: N_10  and  N_11
REMARK    2  A    between atoms: C_12  and  C_13
REMARK    3  A    between atoms: C_18  and  O_19
REMARK                            x       y       z     vdW  Elec       q    Type
REMARK                         _______ _______ _______ _____ _____    ______ ____
ROOT
ATOM      1  O   UNL     1       7.321   6.091  16.581  0.00  0.00    +0.000 OA
ATOM      2  C   UNL     1       6.724   5.204  15.985  0.00  0.00    +0.000 A 
ATOM      3  C   UNL     1       6.975   4.962  14.558  0.00  0.00    +0.000 A 
ATOM      4  C   UNL     1       7.931   5.618  13.793  0.00  0.00    +0.000 A 
ATOM      5  C   UNL     1       8.042   5.270  12.449  0.00  0.00    +0.000 A 
ATOM      6  C   UNL     1       7.207   4.282  11.902  0.00  0.00    +0.000 A 
ATOM      7  C   UNL     1       6.250   3.631  12.691  0.00  0.00    +0.000 A 
ATOM      8  C   UNL     1       6.140   3.985  14.027  0.00  0.00    +0.000 A 
ATOM      9  S   UNL     1       5.025   3.341  15.242  0.00  0.00    +0.000 S 
ATOM     10  N   UNL     1       5.753   4.307  16.449  0.00  0.00    +0.000 N 
ENDROOT
BRANCH  10  11
ATOM     11  N   UNL     1       5.213   4.292  17.705  0.00  0.00    +0.000 NA
ATOM     12  C   UNL     1       3.982   3.880  17.780  0.00  0.00    +0.000 C 
BRANCH  12  13
ATOM     13  C   UNL     1       3.266   3.700  19.055  0.00  0.00    +0.000 A 
ATOM     14  C   UNL     1       2.097   4.414  19.331  0.00  0.00    +0.000 A 
ATOM     15  C   UNL     1       1.463   4.251  20.565  0.00  0.00    +0.000 A 
ATOM     16  C   UNL     1       1.995   3.380  21.518  0.00  0.00    +0.000 A 
ATOM     17  C   UNL     1       3.158   2.662  21.242  0.00  0.00    +0.000 A 
ATOM     18  C   UNL     1       3.792   2.823  20.012  0.00  0.00    +0.000 A 
BRANCH  18  19
ATOM     19  O   UNL     1       4.932   2.119  19.741  0.00  0.00    +0.000 OA
ATOM     20  H   UNL     1       4.985   1.942  18.787  0.00  0.00    +0.000 HD
ENDBRANCH  18  19
ENDBRANCH  12  13
ENDBRANCH  10  11
TORSDOF 3
ENDMDL
MODEL 5
REMARK VINA RESULT:      -6.8      1.436      1.537
REMARK  Name = 
REMARK  3 active torsions:
REMARK  status: ('A' for Active; 'I' for Inactive)
REMARK    1  A    between atoms: N_10  and  N_11
REMARK    2  A    between atoms: C_12  and  C_13
REMARK    3  A    between atoms: C_18  and  O_19
REMARK                            x       y       z     vdW  Elec       q    Type
REMARK                         _______ _______ _______ _____ _____    ______ ____
ROOT
ATOM      1  O   UNL     1       4.603   2.674  18.577  0.00  0.00    +0.000 OA
ATOM      2  C   UNL     1       4.325   3.863  18.486  0.00  0.00    +0.000 A 
ATOM      3  C   UNL     1       3.350   4.473  19.399  0.00  0.00    +0.000 A 
ATOM      4  C   UNL     1       2.738   3.826  20.463  0.00  0.00    +0.000 A 
ATOM      5  C   UNL     1       1.832   4.550  21.235  0.00  0.00    +0.000 A 
ATOM      6  C   UNL     1       1.561   5.894  20.933  0.00  0.00    +0.000 A 
ATOM      7  C   UNL     1       2.190   6.530  19.855  0.00  0.00    +0.000 A 
ATOM      8  C   UNL     1       3.087   5.804  19.087  0.00  0.00    +0.000 A 
ATOM      9  S   UNL     1       4.009   6.343  17.676  0.00  0.00    +0.000 S 
ATOM     10  N   UNL     1       4.797   4.829  17.588  0.00  0.00    +0.000 N 
ENDROOT
BRANCH  10  11
ATOM     11  N   UNL     1       5.654   4.604  16.547  0.00  0.00    +0.000 NA
ATOM     12  C   UNL     1       5.096   4.481  15.379  0.00  0.00    +0.000 C 
BRANCH  12  13
ATOM     13  C   UNL     1       5.862   4.336  14.129  0.00  0.00    +0.000 A 
ATOM     14  C   UNL     1       5.380   3.553  13.077  0.00  0.00    +0.000 A 
ATOM     15  C   UNL     1       6.148   3.402  11.920  0.00  0.00    +0.000 A 
ATOM     16  C   UNL     1       7.391   4.029  11.816  0.00  0.00    +0.000 A 
ATOM     17  C   UNL     1       7.871   4.816  12.861  0.00  0.00    +0.000 A 
ATOM     18  C   UNL     1       7.107   4.968  14.016  0.00  0.00    +0.000 A 
BRANCH  18  19
ATOM     19  O   UNL     1       7.577   5.740  15.042  0.00  0.00    +0.000 OA
ATOM     20  H   UNL     1       8.537   5.860  14.944  0.00  0.00    +0.000 HD
ENDBRANCH  18  19
ENDBRANCH  12  13
ENDBRANCH  10  11
TORSDOF 3
ENDMDL
MODEL 6
REMARK VINA RESULT:      -6.7      5.512      6.464
REMARK  Name = 
REMARK  3 active torsions:
REMARK  status: ('A' for Active; 'I' for Inactive)
REMARK    1  A    between atoms: N_10  and  N_11
REMARK    2  A    between atoms: C_12  and  C_13
REMARK    3  A    between atoms: C_18  and  O_19
REMARK                            x       y       z     vdW  Elec       q    Type
REMARK                         _______ _______ _______ _____ _____    ______ ____
ROOT
ATOM      1  O   UNL     1       1.066  10.913  18.570  0.00  0.00    +0.000 OA
ATOM      2  C   UNL     1       0.984  10.062  19.446  0.00  0.00    +0.000 A 
ATOM      3  C   UNL     1       0.268  10.343  20.696  0.00  0.00    +0.000 A 
ATOM      4  C   UNL     1      -0.433  11.510  20.971  0.00  0.00    +0.000 A 
ATOM      5  C   UNL     1      -1.059  11.619  22.210  0.00  0.00    +0.000 A 
ATOM      6  C   UNL     1      -0.976  10.571  23.140  0.00  0.00    +0.000 A 
ATOM      7  C   UNL     1      -0.266   9.401  22.844  0.00  0.00    +0.000 A 
ATOM      8  C   UNL     1       0.360   9.299  21.611  0.00  0.00    +0.000 A 
ATOM      9  S   UNL     1       1.323   7.955  20.980  0.00  0.00    +0.000 S 
ATOM     10  N   UNL     1       1.501   8.760  19.483  0.00  0.00    +0.000 N 
ENDROOT
BRANCH  10  11
ATOM     11  N   UNL     1       2.291   8.185  18.527  0.00  0.00    +0.000 NA
ATOM     12  C   UNL     1       2.777   7.018  18.831  0.00  0.00    +0.000 C 
BRANCH  12  13
ATOM     13  C   UNL     1       3.566   6.201  17.891  0.00  0.00    +0.000 A 
ATOM     14  C   UNL     1       4.485   6.791  17.021  0.00  0.00    +0.000 A 
ATOM     15  C   UNL     1       5.188   5.995  16.114  0.00  0.00    +0.000 A 
ATOM     16  C   UNL     1       4.973   4.616  16.078  0.00  0.00    +0.000 A 
ATOM     17  C   UNL     1       4.060   4.023  16.950  0.00  0.00    +0.000 A 
ATOM     18  C   UNL     1       3.358   4.816  17.855  0.00  0.00    +0.000 A 
BRANCH  18  19
ATOM     19  O   UNL     1       2.463   4.236  18.711  0.00  0.00    +0.000 OA
ATOM     20  H   UNL     1       1.609   4.695  18.645  0.00  0.00    +0.000 HD
ENDBRANCH  18  19
ENDBRANCH  12  13
ENDBRANCH  10  11
TORSDOF 3
ENDMDL
MODEL 7
REMARK VINA RESULT:      -6.7      4.318      4.892
REMARK  Name = 
REMARK  3 active torsions:
REMARK  status: ('A' for Active; 'I' for Inactive)
REMARK    1  A    between atoms: N_10  and  N_11
REMARK    2  A    between atoms: C_12  and  C_13
REMARK    3  A    between atoms: C_18  and  O_19
REMARK                            x       y       z     vdW  Elec       q    Type
REMARK                         _______ _______ _______ _____ _____    ______ ____
ROOT
ATOM      1  O   UNL     1       1.919   6.362  20.836  0.00  0.00    +0.000 OA
ATOM      2  C   UNL     1       1.911   7.295  20.044  0.00  0.00    +0.000 A 
ATOM      3  C   UNL     1       1.106   8.494  20.310  0.00  0.00    +0.000 A 
ATOM      4  C   UNL     1       0.376   8.725  21.468  0.00  0.00    +0.000 A 
ATOM      5  C   UNL     1      -0.338   9.918  21.563  0.00  0.00    +0.000 A 
ATOM      6  C   UNL     1      -0.306  10.847  20.511  0.00  0.00    +0.000 A 
ATOM      7  C   UNL     1       0.437  10.596  19.351  0.00  0.00    +0.000 A 
ATOM      8  C   UNL     1       1.142   9.406  19.260  0.00  0.00    +0.000 A 
ATOM      9  S   UNL     1       2.147   8.828  17.922  0.00  0.00    +0.000 S 
ATOM     10  N   UNL     1       2.577   7.439  18.820  0.00  0.00    +0.000 N 
ENDROOT
BRANCH  10  11
ATOM     11  N   UNL     1       3.352   6.489  18.214  0.00  0.00    +0.000 NA
ATOM     12  C   UNL     1       4.303   6.945  17.455  0.00  0.00    +0.000 C 
BRANCH  12  13
ATOM     13  C   UNL     1       5.300   6.079  16.800  0.00  0.00    +0.000 A 
ATOM     14  C   UNL     1       5.299   5.901  15.415  0.00  0.00    +0.000 A 
ATOM     15  C   UNL     1       6.232   5.042  14.828  0.00  0.00    +0.000 A 
ATOM     16  C   UNL     1       7.159   4.365  15.622  0.00  0.00    +0.000 A 
ATOM     17  C   UNL     1       7.166   4.546  17.005  0.00  0.00    +0.000 A 
ATOM     18  C   UNL     1       6.237   5.402  17.592  0.00  0.00    +0.000 A 
BRANCH  18  19
ATOM     19  O   UNL     1       6.243   5.581  18.947  0.00  0.00    +0.000 OA
ATOM     20  H   UNL     1       6.103   4.726  19.387  0.00  0.00    +0.000 HD
ENDBRANCH  18  19
ENDBRANCH  12  13
ENDBRANCH  10  11
TORSDOF 3
ENDMDL
MODEL 8
REMARK VINA RESULT:      -6.7      1.582      7.239
REMARK  Name = 
REMARK  3 active torsions:
REMARK  status: ('A' for Active; 'I' for Inactive)
REMARK    1  A    between atoms: N_10  and  N_11
REMARK    2  A    between atoms: C_12  and  C_13
REMARK    3  A    between atoms: C_18  and  O_19
REMARK                            x       y       z     vdW  Elec       q    Type
REMARK                         _______ _______ _______ _____ _____    ______ ____
ROOT
ATOM      1  O   UNL     1       7.371   6.198  16.450  0.00  0.00    +0.000 OA
ATOM      2  C   UNL     1       6.741   5.287  15.929  0.00  0.00    +0.000 A 
ATOM      3  C   UNL     1       6.940   4.955  14.512  0.00  0.00    +0.000 A 
ATOM      4  C   UNL     1       7.877   5.548  13.677  0.00  0.00    +0.000 A 
ATOM      5  C   UNL     1       7.936   5.118  12.353  0.00  0.00    +0.000 A 
ATOM      6  C   UNL     1       7.069   4.113  11.896  0.00  0.00    +0.000 A 
ATOM      7  C   UNL     1       6.131   3.526  12.755  0.00  0.00    +0.000 A 
ATOM      8  C   UNL     1       6.073   3.961  14.070  0.00  0.00    +0.000 A 
ATOM      9  S   UNL     1       4.992   3.409  15.358  0.00  0.00    +0.000 S 
ATOM     10  N   UNL     1       5.775   4.435  16.480  0.00  0.00    +0.000 N 
ENDROOT
BRANCH  10  11
ATOM     11  N   UNL     1       5.278   4.504  17.752  0.00  0.00    +0.000 NA
ATOM     12  C   UNL     1       4.126   3.931  17.934  0.00  0.00    +0.000 C 
BRANCH  12  13
ATOM     13  C   UNL     1       3.481   3.815  19.254  0.00  0.00    +0.000 A 
ATOM     14  C   UNL     1       3.482   2.605  19.952  0.00  0.00    +0.000 A 
ATOM     15  C   UNL     1       2.827   2.516  21.183  0.00  0.00    +0.000 A 
ATOM     16  C   UNL     1       2.173   3.630  21.711  0.00  0.00    +0.000 A 
ATOM     17  C   UNL     1       2.175   4.841  21.019  0.00  0.00    +0.000 A 
ATOM     18  C   UNL     1       2.828   4.932  19.792  0.00  0.00    +0.000 A 
BRANCH  18  19
ATOM     19  O   UNL     1       2.830   6.118  19.113  0.00  0.00    +0.000 OA
ATOM     20  H   UNL     1       1.995   6.587  19.278  0.00  0.00    +0.000 HD
ENDBRANCH  18  19
ENDBRANCH  12  13
ENDBRANCH  10  11
TORSDOF 3
ENDMDL
MODEL 9
REMARK VINA RESULT:      -6.6      5.208      8.127
REMARK  Name = 
REMARK  3 active torsions:
REMARK  status: ('A' for Active; 'I' for Inactive)
REMARK    1  A    between atoms: N_10  and  N_11
REMARK    2  A    between atoms: C_12  and  C_13
REMARK    3  A    between atoms: C_18  and  O_19
REMARK                            x       y       z     vdW  Elec       q    Type
REMARK                         _______ _______ _______ _____ _____    ______ ____
ROOT
ATOM      1  O   UNL     1       3.370   7.170  17.747  0.00  0.00    +0.000 OA
ATOM      2  C   UNL     1       2.956   6.406  18.608  0.00  0.00    +0.000 A 
ATOM      3  C   UNL     1       3.087   4.953  18.444  0.00  0.00    +0.000 A 
ATOM      4  C   UNL     1       3.740   4.324  17.393  0.00  0.00    +0.000 A 
ATOM      5  C   UNL     1       3.774   2.931  17.385  0.00  0.00    +0.000 A 
ATOM      6  C   UNL     1       3.163   2.203  18.418  0.00  0.00    +0.000 A 
ATOM      7  C   UNL     1       2.510   2.856  19.471  0.00  0.00    +0.000 A 
ATOM      8  C   UNL     1       2.475   4.242  19.472  0.00  0.00    +0.000 A 
ATOM      9  S   UNL     1       1.721   5.317  20.657  0.00  0.00    +0.000 S 
ATOM     10  N   UNL     1       2.314   6.686  19.822  0.00  0.00    +0.000 N 
ENDROOT
BRANCH  10  11
ATOM     11  N   UNL     1       1.952   7.926  20.269  0.00  0.00    +0.000 NA
ATOM     12  C   UNL     1       0.774   8.003  20.812  0.00  0.00    +0.000 C 
BRANCH  12  13
ATOM     13  C   UNL     1       0.251   9.230  21.440  0.00  0.00    +0.000 A 
ATOM     14  C   UNL     1      -0.383   9.187  22.683  0.00  0.00    +0.000 A 
ATOM     15  C   UNL     1      -0.904  10.361  23.234  0.00  0.00    +0.000 A 
ATOM     16  C   UNL     1      -0.791  11.569  22.545  0.00  0.00    +0.000 A 
ATOM     17  C   UNL     1      -0.152  11.616  21.306  0.00  0.00    +0.000 A 
ATOM     18  C   UNL     1       0.368  10.446  20.755  0.00  0.00    +0.000 A 
BRANCH  18  19
ATOM     19  O   UNL     1       0.994  10.491  19.541  0.00  0.00    +0.000 OA
ATOM     20  H   UNL     1       1.956  10.443  19.671  0.00  0.00    +0.000 HD
ENDBRANCH  18  19
ENDBRANCH  12  13
ENDBRANCH  10  11
TORSDOF 3
ENDMDL
