MODEL 1
REMARK VINA RESULT:      -8.6      0.000      0.000
REMARK  Name = 
REMARK  7 active torsions:
REMARK  status: ('A' for Active; 'I' for Inactive)
REMARK    1  A    between atoms: C_2  and  C_3
REMARK    2  A    between atoms: C_2  and  O_14
REMARK    3  A    between atoms: C_4  and  C_5
REMARK    4  A    between atoms: C_8  and  N_9
REMARK    5  A    between atoms: O_14  and  C_15
REMARK    6  A    between atoms: C_15  and  C_16
REMARK    7  A    between atoms: C_19  and  C_20
REMARK                            x       y       z     vdW  Elec       q    Type
REMARK                         _______ _______ _______ _____ _____    ______ ____
ROOT
ATOM      1  O   UNL     1       6.881   7.307  16.587  0.00  0.00    +0.000 OA
ATOM      2  C   UNL     1       7.541   7.195  17.609  0.00  0.00    +0.000 C 
ENDROOT
BRANCH   2   3
ATOM      3  C   UNL     1       8.328   8.325  18.147  0.00  0.00    +0.000 C 
ATOM      4  C   UNL     1       8.075   9.623  17.920  0.00  0.00    +0.000 C 
BRANCH   4   5
ATOM      5  C   UNL     1       8.894  10.721  18.461  0.00  0.00    +0.000 A 
ATOM      6  C   UNL     1       9.067  11.932  17.773  0.00  0.00    +0.000 A 
ATOM      7  C   UNL     1       9.826  12.971  18.325  0.00  0.00    +0.000 A 
ATOM      8  C   UNL     1      10.411  12.804  19.585  0.00  0.00    +0.000 A 
ATOM      9  C   UNL     1      10.237  11.609  20.294  0.00  0.00    +0.000 A 
ATOM     10  C   UNL     1       9.475  10.578  19.729  0.00  0.00    +0.000 A 
BRANCH   8  11
ATOM     11  N   UNL     1      11.205  13.893  20.170  0.00  0.00    +0.000 N 
ATOM     12  O   UNL     1      10.732  14.488  21.148  0.00  0.00    +0.000 OA
ATOM     13  O   UNL     1      12.301  14.150  19.652  0.00  0.00    +0.000 OA
ENDBRANCH   8  11
ENDBRANCH   4   5
ENDBRANCH   2   3
BRANCH   2  14
ATOM     14  O   UNL     1       7.642   6.089  18.379  0.00  0.00    +0.000 OA
BRANCH  14  15
ATOM     15  C   UNL     1       7.663   4.837  17.677  0.00  0.00    +0.000 C 
BRANCH  15  16
ATOM     16  C   UNL     1       6.260   4.482  17.387  0.00  0.00    +0.000 A 
ATOM     17  C   UNL     1       5.583   4.081  16.261  0.00  0.00    +0.000 A 
ATOM     18  N   UNL     1       4.262   3.864  16.561  0.00  0.00    +0.000 NA
ATOM     19  C   UNL     1       4.174   4.134  17.851  0.00  0.00    +0.000 A 
ATOM     20  O   UNL     1       5.360   4.532  18.417  0.00  0.00    +0.000 OA
BRANCH  19  21
ATOM     21  C   UNL     1       3.019   4.022  18.739  0.00  0.00    +0.000 A 
ATOM     22  C   UNL     1       2.010   3.091  18.451  0.00  0.00    +0.000 A 
ATOM     23  C   UNL     1       0.912   2.934  19.301  0.00  0.00    +0.000 A 
ATOM     24  C   UNL     1       0.807   3.713  20.452  0.00  0.00    +0.000 A 
ATOM     25  C   UNL     1       1.793   4.652  20.747  0.00  0.00    +0.000 A 
ATOM     26  C   UNL     1       2.892   4.806  19.897  0.00  0.00    +0.000 A 
ENDBRANCH  19  21
ENDBRANCH  15  16
ENDBRANCH  14  15
ENDBRANCH   2  14
TORSDOF 7
ENDMDL
MODEL 2
REMARK VINA RESULT:      -8.5      1.165      1.694
REMARK  Name = 
REMARK  7 active torsions:
REMARK  status: ('A' for Active; 'I' for Inactive)
REMARK    1  A    between atoms: C_2  and  C_3
REMARK    2  A    between atoms: C_2  and  O_14
REMARK    3  A    between atoms: C_4  and  C_5
REMARK    4  A    between atoms: C_8  and  N_9
REMARK    5  A    between atoms: O_14  and  C_15
REMARK    6  A    between atoms: C_15  and  C_16
REMARK    7  A    between atoms: C_19  and  C_20
REMARK                            x       y       z     vdW  Elec       q    Type
REMARK                         _______ _______ _______ _____ _____    ______ ____
ROOT
ATOM      1  O   UNL     1       7.636   6.006  18.261  0.00  0.00    +0.000 OA
ATOM      2  C   UNL     1       7.402   6.864  17.422  0.00  0.00    +0.000 C 
ENDROOT
BRANCH   2   3
ATOM      3  C   UNL     1       7.825   8.267  17.616  0.00  0.00    +0.000 C 
ATOM      4  C   UNL     1       8.589   8.715  18.624  0.00  0.00    +0.000 C 
BRANCH   4   5
ATOM      5  C   UNL     1       8.975  10.126  18.792  0.00  0.00    +0.000 A 
ATOM      6  C   UNL     1       9.690  10.576  19.912  0.00  0.00    +0.000 A 
ATOM      7  C   UNL     1      10.071  11.918  20.030  0.00  0.00    +0.000 A 
ATOM      8  C   UNL     1       9.744  12.821  19.012  0.00  0.00    +0.000 A 
ATOM      9  C   UNL     1       9.045  12.387  17.879  0.00  0.00    +0.000 A 
ATOM     10  C   UNL     1       8.670  11.042  17.774  0.00  0.00    +0.000 A 
BRANCH   8  11
ATOM     11  N   UNL     1      10.146  14.229  19.130  0.00  0.00    +0.000 N 
ATOM     12  O   UNL     1      10.220  14.712  20.269  0.00  0.00    +0.000 OA
ATOM     13  O   UNL     1      10.389  14.849  18.085  0.00  0.00    +0.000 OA
ENDBRANCH   8  11
ENDBRANCH   4   5
ENDBRANCH   2   3
BRANCH   2  14
ATOM     14  O   UNL     1       6.769   6.678  16.243  0.00  0.00    +0.000 OA
BRANCH  14  15
ATOM     15  C   UNL     1       5.339   6.798  16.275  0.00  0.00    +0.000 C 
BRANCH  15  16
ATOM     16  C   UNL     1       4.803   5.476  16.655  0.00  0.00    +0.000 A 
ATOM     17  C   UNL     1       4.950   4.202  16.162  0.00  0.00    +0.000 A 
ATOM     18  N   UNL     1       4.222   3.320  16.919  0.00  0.00    +0.000 NA
ATOM     19  C   UNL     1       3.662   4.075  17.847  0.00  0.00    +0.000 A 
ATOM     20  O   UNL     1       3.966   5.410  17.735  0.00  0.00    +0.000 OA
BRANCH  19  21
ATOM     21  C   UNL     1       2.821   3.679  18.973  0.00  0.00    +0.000 A 
ATOM     22  C   UNL     1       1.453   3.442  18.768  0.00  0.00    +0.000 A 
ATOM     23  C   UNL     1       0.630   3.025  19.817  0.00  0.00    +0.000 A 
ATOM     24  C   UNL     1       1.164   2.843  21.091  0.00  0.00    +0.000 A 
ATOM     25  C   UNL     1       2.518   3.085  21.316  0.00  0.00    +0.000 A 
ATOM     26  C   UNL     1       3.341   3.501  20.265  0.00  0.00    +0.000 A 
ENDBRANCH  19  21
ENDBRANCH  15  16
ENDBRANCH  14  15
ENDBRANCH   2  14
TORSDOF 7
ENDMDL
MODEL 3
REMARK VINA RESULT:      -8.5      4.571      7.389
REMARK  Name = 
REMARK  7 active torsions:
REMARK  status: ('A' for Active; 'I' for Inactive)
REMARK    1  A    between atoms: C_2  and  C_3
REMARK    2  A    between atoms: C_2  and  O_14
REMARK    3  A    between atoms: C_4  and  C_5
REMARK    4  A    between atoms: C_8  and  N_9
REMARK    5  A    between atoms: O_14  and  C_15
REMARK    6  A    between atoms: C_15  and  C_16
REMARK    7  A    between atoms: C_19  and  C_20
REMARK                            x       y       z     vdW  Elec       q    Type
REMARK                         _______ _______ _______ _____ _____    ______ ____
ROOT
ATOM      1  O   UNL     1       2.520   3.406  22.194  0.00  0.00    +0.000 OA
ATOM      2  C   UNL     1       2.039   3.734  21.120  0.00  0.00    +0.000 C 
ENDROOT
BRANCH   2   3
ATOM      3  C   UNL     1       1.663   5.136  20.840  0.00  0.00    +0.000 C 
ATOM      4  C   UNL     1       2.356   5.985  20.064  0.00  0.00    +0.000 C 
BRANCH   4   5
ATOM      5  C   UNL     1       1.957   7.382  19.823  0.00  0.00    +0.000 A 
ATOM      6  C   UNL     1       2.136   8.005  18.578  0.00  0.00    +0.000 A 
ATOM      7  C   UNL     1       1.719   9.325  18.369  0.00  0.00    +0.000 A 
ATOM      8  C   UNL     1       1.104  10.029  19.410  0.00  0.00    +0.000 A 
ATOM      9  C   UNL     1       0.901   9.418  20.654  0.00  0.00    +0.000 A 
ATOM     10  C   UNL     1       1.324   8.097  20.850  0.00  0.00    +0.000 A 
BRANCH   8  11
ATOM     11  N   UNL     1       0.660  11.412  19.192  0.00  0.00    +0.000 N 
ATOM     12  O   UNL     1      -0.397  11.586  18.570  0.00  0.00    +0.000 OA
ATOM     13  O   UNL     1       1.368  12.322  19.646  0.00  0.00    +0.000 OA
ENDBRANCH   8  11
ENDBRANCH   4   5
ENDBRANCH   2   3
BRANCH   2  14
ATOM     14  O   UNL     1       1.800   2.921  20.068  0.00  0.00    +0.000 OA
BRANCH  14  15
ATOM     15  C   UNL     1       2.932   2.193  19.570  0.00  0.00    +0.000 C 
BRANCH  15  16
ATOM     16  C   UNL     1       3.578   3.044  18.551  0.00  0.00    +0.000 A 
ATOM     17  C   UNL     1       3.373   3.264  17.211  0.00  0.00    +0.000 A 
ATOM     18  N   UNL     1       4.272   4.188  16.744  0.00  0.00    +0.000 NA
ATOM     19  C   UNL     1       4.990   4.506  17.806  0.00  0.00    +0.000 A 
ATOM     20  O   UNL     1       4.627   3.830  18.945  0.00  0.00    +0.000 OA
BRANCH  19  21
ATOM     21  C   UNL     1       6.063   5.489  17.932  0.00  0.00    +0.000 A 
ATOM     22  C   UNL     1       6.069   6.621  17.101  0.00  0.00    +0.000 A 
ATOM     23  C   UNL     1       7.060   7.598  17.224  0.00  0.00    +0.000 A 
ATOM     24  C   UNL     1       8.065   7.454  18.177  0.00  0.00    +0.000 A 
ATOM     25  C   UNL     1       8.083   6.331  19.003  0.00  0.00    +0.000 A 
ATOM     26  C   UNL     1       7.089   5.355  18.881  0.00  0.00    +0.000 A 
ENDBRANCH  19  21
ENDBRANCH  15  16
ENDBRANCH  14  15
ENDBRANCH   2  14
TORSDOF 7
ENDMDL
MODEL 4
REMARK VINA RESULT:      -8.4      1.137      1.745
REMARK  Name = 
REMARK  7 active torsions:
REMARK  status: ('A' for Active; 'I' for Inactive)
REMARK    1  A    between atoms: C_2  and  C_3
REMARK    2  A    between atoms: C_2  and  O_14
REMARK    3  A    between atoms: C_4  and  C_5
REMARK    4  A    between atoms: C_8  and  N_9
REMARK    5  A    between atoms: O_14  and  C_15
REMARK    6  A    between atoms: C_15  and  C_16
REMARK    7  A    between atoms: C_19  and  C_20
REMARK                            x       y       z     vdW  Elec       q    Type
REMARK                         _______ _______ _______ _____ _____    ______ ____
ROOT
ATOM      1  O   UNL     1       8.084   6.656  19.020  0.00  0.00    +0.000 OA
ATOM      2  C   UNL     1       7.806   7.288  18.012  0.00  0.00    +0.000 C 
ENDROOT
BRANCH   2   3
ATOM      3  C   UNL     1       8.217   8.699  17.848  0.00  0.00    +0.000 C 
ATOM      4  C   UNL     1       8.918   9.411  18.745  0.00  0.00    +0.000 C 
BRANCH   4   5
ATOM      5  C   UNL     1       9.294  10.822  18.552  0.00  0.00    +0.000 A 
ATOM      6  C   UNL     1       8.496  11.714  17.820  0.00  0.00    +0.000 A 
ATOM      7  C   UNL     1       8.863  13.058  17.679  0.00  0.00    +0.000 A 
ATOM      8  C   UNL     1      10.035  13.521  18.287  0.00  0.00    +0.000 A 
ATOM      9  C   UNL     1      10.836  12.650  19.035  0.00  0.00    +0.000 A 
ATOM     10  C   UNL     1      10.458  11.307  19.167  0.00  0.00    +0.000 A 
BRANCH   8  11
ATOM     11  N   UNL     1      10.421  14.931  18.145  0.00  0.00    +0.000 N 
ATOM     12  O   UNL     1      10.870  15.297  17.050  0.00  0.00    +0.000 OA
ATOM     13  O   UNL     1      10.272  15.671  19.128  0.00  0.00    +0.000 OA
ENDBRANCH   8  11
ENDBRANCH   4   5
ENDBRANCH   2   3
BRANCH   2  14
ATOM     14  O   UNL     1       7.129   6.825  16.938  0.00  0.00    +0.000 OA
BRANCH  14  15
ATOM     15  C   UNL     1       7.258   5.420  16.676  0.00  0.00    +0.000 C 
BRANCH  15  16
ATOM     16  C   UNL     1       5.894   4.855  16.674  0.00  0.00    +0.000 A 
ATOM     17  C   UNL     1       5.120   4.216  15.737  0.00  0.00    +0.000 A 
ATOM     18  N   UNL     1       3.905   3.882  16.280  0.00  0.00    +0.000 NA
ATOM     19  C   UNL     1       3.976   4.319  17.524  0.00  0.00    +0.000 A 
ATOM     20  O   UNL     1       5.163   4.939  17.828  0.00  0.00    +0.000 OA
BRANCH  19  21
ATOM     21  C   UNL     1       2.998   4.193  18.602  0.00  0.00    +0.000 A 
ATOM     22  C   UNL     1       3.100   5.019  19.732  0.00  0.00    +0.000 A 
ATOM     23  C   UNL     1       2.158   4.949  20.761  0.00  0.00    +0.000 A 
ATOM     24  C   UNL     1       1.102   4.044  20.678  0.00  0.00    +0.000 A 
ATOM     25  C   UNL     1       0.992   3.207  19.569  0.00  0.00    +0.000 A 
ATOM     26  C   UNL     1       1.934   3.280  18.539  0.00  0.00    +0.000 A 
ENDBRANCH  19  21
ENDBRANCH  15  16
ENDBRANCH  14  15
ENDBRANCH   2  14
TORSDOF 7
ENDMDL
MODEL 5
REMARK VINA RESULT:      -8.4      1.468      1.736
REMARK  Name = 
REMARK  7 active torsions:
REMARK  status: ('A' for Active; 'I' for Inactive)
REMARK    1  A    between atoms: C_2  and  C_3
REMARK    2  A    between atoms: C_2  and  O_14
REMARK    3  A    between atoms: C_4  and  C_5
REMARK    4  A    between atoms: C_8  and  N_9
REMARK    5  A    between atoms: O_14  and  C_15
REMARK    6  A    between atoms: C_15  and  C_16
REMARK    7  A    between atoms: C_19  and  C_20
REMARK                            x       y       z     vdW  Elec       q    Type
REMARK                         _______ _______ _______ _____ _____    ______ ____
ROOT
ATOM      1  O   UNL     1       8.002   6.635  18.219  0.00  0.00    +0.000 OA
ATOM      2  C   UNL     1       7.583   7.634  17.655  0.00  0.00    +0.000 C 
ENDROOT
BRANCH   2   3
ATOM      3  C   UNL     1       8.228   8.952  17.839  0.00  0.00    +0.000 C 
ATOM      4  C   UNL     1       8.777   9.393  18.981  0.00  0.00    +0.000 C 
BRANCH   4   5
ATOM      5  C   UNL     1       9.396  10.721  19.130  0.00  0.00    +0.000 A 
ATOM      6  C   UNL     1       9.555  11.596  18.044  0.00  0.00    +0.000 A 
ATOM      7  C   UNL     1      10.119  12.866  18.221  0.00  0.00    +0.000 A 
ATOM      8  C   UNL     1      10.519  13.272  19.498  0.00  0.00    +0.000 A 
ATOM      9  C   UNL     1      10.354  12.419  20.596  0.00  0.00    +0.000 A 
ATOM     10  C   UNL     1       9.789  11.152  20.406  0.00  0.00    +0.000 A 
BRANCH   8  11
ATOM     11  N   UNL     1      11.107  14.605  19.688  0.00  0.00    +0.000 N 
ATOM     12  O   UNL     1      10.348  15.527  20.017  0.00  0.00    +0.000 OA
ATOM     13  O   UNL     1      12.328  14.727  19.511  0.00  0.00    +0.000 OA
ENDBRANCH   8  11
ENDBRANCH   4   5
ENDBRANCH   2   3
BRANCH   2  14
ATOM     14  O   UNL     1       6.532   7.693  16.808  0.00  0.00    +0.000 OA
BRANCH  14  15
ATOM     15  C   UNL     1       5.865   6.449  16.550  0.00  0.00    +0.000 C 
BRANCH  15  16
ATOM     16  C   UNL     1       4.577   6.493  17.271  0.00  0.00    +0.000 A 
ATOM     17  C   UNL     1       3.632   7.465  17.491  0.00  0.00    +0.000 A 
ATOM     18  N   UNL     1       2.597   6.954  18.232  0.00  0.00    +0.000 NA
ATOM     19  C   UNL     1       2.937   5.694  18.436  0.00  0.00    +0.000 A 
ATOM     20  O   UNL     1       4.147   5.349  17.886  0.00  0.00    +0.000 OA
BRANCH  19  21
ATOM     21  C   UNL     1       2.191   4.637  19.115  0.00  0.00    +0.000 A 
ATOM     22  C   UNL     1       1.490   3.686  18.358  0.00  0.00    +0.000 A 
ATOM     23  C   UNL     1       0.800   2.641  18.977  0.00  0.00    +0.000 A 
ATOM     24  C   UNL     1       0.796   2.536  20.366  0.00  0.00    +0.000 A 
ATOM     25  C   UNL     1       1.476   3.479  21.135  0.00  0.00    +0.000 A 
ATOM     26  C   UNL     1       2.169   4.522  20.514  0.00  0.00    +0.000 A 
ENDBRANCH  19  21
ENDBRANCH  15  16
ENDBRANCH  14  15
ENDBRANCH   2  14
TORSDOF 7
ENDMDL
MODEL 6
REMARK VINA RESULT:      -8.4      0.994      1.193
REMARK  Name = 
REMARK  7 active torsions:
REMARK  status: ('A' for Active; 'I' for Inactive)
REMARK    1  A    between atoms: C_2  and  C_3
REMARK    2  A    between atoms: C_2  and  O_14
REMARK    3  A    between atoms: C_4  and  C_5
REMARK    4  A    between atoms: C_8  and  N_9
REMARK    5  A    between atoms: O_14  and  C_15
REMARK    6  A    between atoms: C_15  and  C_16
REMARK    7  A    between atoms: C_19  and  C_20
REMARK                            x       y       z     vdW  Elec       q    Type
REMARK                         _______ _______ _______ _____ _____    ______ ____
ROOT
ATOM      1  O   UNL     1       7.065   7.119  16.354  0.00  0.00    +0.000 OA
ATOM      2  C   UNL     1       7.454   7.367  17.485  0.00  0.00    +0.000 C 
ENDROOT
BRANCH   2   3
ATOM      3  C   UNL     1       7.911   8.721  17.864  0.00  0.00    +0.000 C 
ATOM      4  C   UNL     1       8.919   8.991  18.709  0.00  0.00    +0.000 C 
BRANCH   4   5
ATOM      5  C   UNL     1       9.334  10.355  19.076  0.00  0.00    +0.000 A 
ATOM      6  C   UNL     1       9.673  11.317  18.111  0.00  0.00    +0.000 A 
ATOM      7  C   UNL     1      10.035  12.616  18.487  0.00  0.00    +0.000 A 
ATOM      8  C   UNL     1      10.046  12.965  19.842  0.00  0.00    +0.000 A 
ATOM      9  C   UNL     1       9.694  12.024  20.818  0.00  0.00    +0.000 A 
ATOM     10  C   UNL     1       9.336  10.728  20.428  0.00  0.00    +0.000 A 
BRANCH   8  11
ATOM     11  N   UNL     1      10.420  14.328  20.240  0.00  0.00    +0.000 N 
ATOM     12  O   UNL     1      10.861  15.083  19.362  0.00  0.00    +0.000 OA
ATOM     13  O   UNL     1      10.270  14.643  21.429  0.00  0.00    +0.000 OA
ENDBRANCH   8  11
ENDBRANCH   4   5
ENDBRANCH   2   3
BRANCH   2  14
ATOM     14  O   UNL     1       7.513   6.499  18.519  0.00  0.00    +0.000 OA
BRANCH  14  15
ATOM     15  C   UNL     1       7.627   5.113  18.167  0.00  0.00    +0.000 C 
BRANCH  15  16
ATOM     16  C   UNL     1       6.256   4.606  17.962  0.00  0.00    +0.000 A 
ATOM     17  C   UNL     1       5.532   4.208  16.864  0.00  0.00    +0.000 A 
ATOM     18  N   UNL     1       4.279   3.805  17.249  0.00  0.00    +0.000 NA
ATOM     19  C   UNL     1       4.277   3.962  18.560  0.00  0.00    +0.000 A 
ATOM     20  O   UNL     1       5.454   4.463  19.061  0.00  0.00    +0.000 OA
BRANCH  19  21
ATOM     21  C   UNL     1       3.230   3.639  19.525  0.00  0.00    +0.000 A 
ATOM     22  C   UNL     1       1.950   4.193  19.372  0.00  0.00    +0.000 A 
ATOM     23  C   UNL     1       0.916   3.873  20.256  0.00  0.00    +0.000 A 
ATOM     24  C   UNL     1       1.152   2.996  21.313  0.00  0.00    +0.000 A 
ATOM     25  C   UNL     1       2.420   2.445  21.488  0.00  0.00    +0.000 A 
ATOM     26  C   UNL     1       3.452   2.765  20.602  0.00  0.00    +0.000 A 
ENDBRANCH  19  21
ENDBRANCH  15  16
ENDBRANCH  14  15
ENDBRANCH   2  14
TORSDOF 7
ENDMDL
MODEL 7
REMARK VINA RESULT:      -8.3      2.539      2.976
REMARK  Name = 
REMARK  7 active torsions:
REMARK  status: ('A' for Active; 'I' for Inactive)
REMARK    1  A    between atoms: C_2  and  C_3
REMARK    2  A    between atoms: C_2  and  O_14
REMARK    3  A    between atoms: C_4  and  C_5
REMARK    4  A    between atoms: C_8  and  N_9
REMARK    5  A    between atoms: O_14  and  C_15
REMARK    6  A    between atoms: C_15  and  C_16
REMARK    7  A    between atoms: C_19  and  C_20
REMARK                            x       y       z     vdW  Elec       q    Type
REMARK                         _______ _______ _______ _____ _____    ______ ____
ROOT
ATOM      1  O   UNL     1       7.883   6.505  18.463  0.00  0.00    +0.000 OA
ATOM      2  C   UNL     1       7.574   7.356  17.642  0.00  0.00    +0.000 C 
ENDROOT
BRANCH   2   3
ATOM      3  C   UNL     1       8.208   8.692  17.642  0.00  0.00    +0.000 C 
ATOM      4  C   UNL     1       8.653   9.340  18.730  0.00  0.00    +0.000 C 
BRANCH   4   5
ATOM      5  C   UNL     1       9.264  10.679  18.691  0.00  0.00    +0.000 A 
ATOM      6  C   UNL     1       8.771  11.700  17.864  0.00  0.00    +0.000 A 
ATOM      7  C   UNL     1       9.353  12.974  17.870  0.00  0.00    +0.000 A 
ATOM      8  C   UNL     1      10.433  13.236  18.720  0.00  0.00    +0.000 A 
ATOM      9  C   UNL     1      10.928  12.235  19.564  0.00  0.00    +0.000 A 
ATOM     10  C   UNL     1      10.338  10.965  19.547  0.00  0.00    +0.000 A 
BRANCH   8  11
ATOM     11  N   UNL     1      11.043  14.572  18.732  0.00  0.00    +0.000 N 
ATOM     12  O   UNL     1      10.284  15.551  18.693  0.00  0.00    +0.000 OA
ATOM     13  O   UNL     1      12.279  14.641  18.784  0.00  0.00    +0.000 OA
ENDBRANCH   8  11
ENDBRANCH   4   5
ENDBRANCH   2   3
BRANCH   2  14
ATOM     14  O   UNL     1       6.667   7.220  16.650  0.00  0.00    +0.000 OA
BRANCH  14  15
ATOM     15  C   UNL     1       6.132   5.901  16.469  0.00  0.00    +0.000 C 
BRANCH  15  16
ATOM     16  C   UNL     1       4.803   5.883  17.113  0.00  0.00    +0.000 A 
ATOM     17  C   UNL     1       3.911   4.894  17.448  0.00  0.00    +0.000 A 
ATOM     18  N   UNL     1       2.809   5.441  18.054  0.00  0.00    +0.000 NA
ATOM     19  C   UNL     1       3.062   6.738  18.074  0.00  0.00    +0.000 A 
ATOM     20  O   UNL     1       4.262   7.079  17.500  0.00  0.00    +0.000 OA
BRANCH  19  21
ATOM     21  C   UNL     1       2.272   7.821  18.653  0.00  0.00    +0.000 A 
ATOM     22  C   UNL     1       1.873   8.897  17.845  0.00  0.00    +0.000 A 
ATOM     23  C   UNL     1       1.084   9.929  18.359  0.00  0.00    +0.000 A 
ATOM     24  C   UNL     1       0.687   9.902  19.694  0.00  0.00    +0.000 A 
ATOM     25  C   UNL     1       1.084   8.848  20.515  0.00  0.00    +0.000 A 
ATOM     26  C   UNL     1       1.871   7.815  19.999  0.00  0.00    +0.000 A 
ENDBRANCH  19  21
ENDBRANCH  15  16
ENDBRANCH  14  15
ENDBRANCH   2  14
TORSDOF 7
ENDMDL
MODEL 8
REMARK VINA RESULT:      -8.3      1.231      1.772
REMARK  Name = 
REMARK  7 active torsions:
REMARK  status: ('A' for Active; 'I' for Inactive)
REMARK    1  A    between atoms: C_2  and  C_3
REMARK    2  A    between atoms: C_2  and  O_14
REMARK    3  A    between atoms: C_4  and  C_5
REMARK    4  A    between atoms: C_8  and  N_9
REMARK    5  A    between atoms: O_14  and  C_15
REMARK    6  A    between atoms: C_15  and  C_16
REMARK    7  A    between atoms: C_19  and  C_20
REMARK                            x       y       z     vdW  Elec       q    Type
REMARK                         _______ _______ _______ _____ _____    ______ ____
ROOT
ATOM      1  O   UNL     1       7.853   6.569  16.833  0.00  0.00    +0.000 OA
ATOM      2  C   UNL     1       7.046   7.395  17.232  0.00  0.00    +0.000 C 
ENDROOT
BRANCH   2   3
ATOM      3  C   UNL     1       7.477   8.729  17.702  0.00  0.00    +0.000 C 
ATOM      4  C   UNL     1       8.626   8.990  18.345  0.00  0.00    +0.000 C 
BRANCH   4   5
ATOM      5  C   UNL     1       9.013  10.332  18.814  0.00  0.00    +0.000 A 
ATOM      6  C   UNL     1       9.350  10.586  20.152  0.00  0.00    +0.000 A 
ATOM      7  C   UNL     1       9.744  11.866  20.563  0.00  0.00    +0.000 A 
ATOM      8  C   UNL     1       9.813  12.902  19.625  0.00  0.00    +0.000 A 
ATOM      9  C   UNL     1       9.496  12.663  18.282  0.00  0.00    +0.000 A 
ATOM     10  C   UNL     1       9.103  11.379  17.885  0.00  0.00    +0.000 A 
BRANCH   8  11
ATOM     11  N   UNL     1      10.230  14.244  20.052  0.00  0.00    +0.000 N 
ATOM     12  O   UNL     1       9.350  15.108  20.174  0.00  0.00    +0.000 OA
ATOM     13  O   UNL     1      11.436  14.432  20.268  0.00  0.00    +0.000 OA
ENDBRANCH   8  11
ENDBRANCH   4   5
ENDBRANCH   2   3
BRANCH   2  14
ATOM     14  O   UNL     1       5.705   7.241  17.291  0.00  0.00    +0.000 OA
BRANCH  14  15
ATOM     15  C   UNL     1       5.103   6.562  16.179  0.00  0.00    +0.000 C 
BRANCH  15  16
ATOM     16  C   UNL     1       4.652   5.245  16.670  0.00  0.00    +0.000 A 
ATOM     17  C   UNL     1       4.880   3.946  16.286  0.00  0.00    +0.000 A 
ATOM     18  N   UNL     1       4.210   3.086  17.117  0.00  0.00    +0.000 NA
ATOM     19  C   UNL     1       3.601   3.880  17.981  0.00  0.00    +0.000 A 
ATOM     20  O   UNL     1       3.819   5.217  17.755  0.00  0.00    +0.000 OA
BRANCH  19  21
ATOM     21  C   UNL     1       2.785   3.527  19.140  0.00  0.00    +0.000 A 
ATOM     22  C   UNL     1       3.376   2.870  20.230  0.00  0.00    +0.000 A 
ATOM     23  C   UNL     1       2.630   2.553  21.369  0.00  0.00    +0.000 A 
ATOM     24  C   UNL     1       1.278   2.885  21.430  0.00  0.00    +0.000 A 
ATOM     25  C   UNL     1       0.672   3.526  20.351  0.00  0.00    +0.000 A 
ATOM     26  C   UNL     1       1.419   3.844  19.214  0.00  0.00    +0.000 A 
ENDBRANCH  19  21
ENDBRANCH  15  16
ENDBRANCH  14  15
ENDBRANCH   2  14
TORSDOF 7
ENDMDL
MODEL 9
REMARK VINA RESULT:      -8.3      1.806      2.230
REMARK  Name = 
REMARK  7 active torsions:
REMARK  status: ('A' for Active; 'I' for Inactive)
REMARK    1  A    between atoms: C_2  and  C_3
REMARK    2  A    between atoms: C_2  and  O_14
REMARK    3  A    between atoms: C_4  and  C_5
REMARK    4  A    between atoms: C_8  and  N_9
REMARK    5  A    between atoms: O_14  and  C_15
REMARK    6  A    between atoms: C_15  and  C_16
REMARK    7  A    between atoms: C_19  and  C_20
REMARK                            x       y       z     vdW  Elec       q    Type
REMARK                         _______ _______ _______ _____ _____    ______ ____
ROOT
ATOM      1  O   UNL     1       8.302   7.327  18.663  0.00  0.00    +0.000 OA
ATOM      2  C   UNL     1       7.780   8.042  17.820  0.00  0.00    +0.000 C 
ENDROOT
BRANCH   2   3
ATOM      3  C   UNL     1       8.111   9.479  17.716  0.00  0.00    +0.000 C 
ATOM      4  C   UNL     1       9.271  10.037  18.098  0.00  0.00    +0.000 C 
BRANCH   4   5
ATOM      5  C   UNL     1       9.557  11.478  17.995  0.00  0.00    +0.000 A 
ATOM      6  C   UNL     1       8.548  12.449  18.101  0.00  0.00    +0.000 A 
ATOM      7  C   UNL     1       8.854  13.813  18.029  0.00  0.00    +0.000 A 
ATOM      8  C   UNL     1      10.183  14.216  17.862  0.00  0.00    +0.000 A 
ATOM      9  C   UNL     1      11.205  13.263  17.771  0.00  0.00    +0.000 A 
ATOM     10  C   UNL     1      10.886  11.901  17.843  0.00  0.00    +0.000 A 
BRANCH   8  11
ATOM     11  N   UNL     1      10.508  15.646  17.791  0.00  0.00    +0.000 N 
ATOM     12  O   UNL     1      11.132  16.046  16.798  0.00  0.00    +0.000 OA
ATOM     13  O   UNL     1      10.136  16.369  18.727  0.00  0.00    +0.000 OA
ENDBRANCH   8  11
ENDBRANCH   4   5
ENDBRANCH   2   3
BRANCH   2  14
ATOM     14  O   UNL     1       6.880   7.656  16.889  0.00  0.00    +0.000 OA
BRANCH  14  15
ATOM     15  C   UNL     1       6.408   6.305  16.998  0.00  0.00    +0.000 C 
BRANCH  15  16
ATOM     16  C   UNL     1       5.022   6.372  17.503  0.00  0.00    +0.000 A 
ATOM     17  C   UNL     1       3.999   7.280  17.386  0.00  0.00    +0.000 A 
ATOM     18  N   UNL     1       2.892   6.830  18.059  0.00  0.00    +0.000 NA
ATOM     19  C   UNL     1       3.269   5.667  18.560  0.00  0.00    +0.000 A 
ATOM     20  O   UNL     1       4.569   5.332  18.268  0.00  0.00    +0.000 OA
BRANCH  19  21
ATOM     21  C   UNL     1       2.489   4.697  19.324  0.00  0.00    +0.000 A 
ATOM     22  C   UNL     1       1.585   3.855  18.659  0.00  0.00    +0.000 A 
ATOM     23  C   UNL     1       0.853   2.891  19.358  0.00  0.00    +0.000 A 
ATOM     24  C   UNL     1       1.012   2.760  20.736  0.00  0.00    +0.000 A 
ATOM     25  C   UNL     1       1.896   3.596  21.415  0.00  0.00    +0.000 A 
ATOM     26  C   UNL     1       2.629   4.558  20.715  0.00  0.00    +0.000 A 
ENDBRANCH  19  21
ENDBRANCH  15  16
ENDBRANCH  14  15
ENDBRANCH   2  14
TORSDOF 7
ENDMDL
