MODEL 1
REMARK VINA RESULT:     -10.1      0.000      0.000
REMARK  Name = 
REMARK  3 active torsions:
REMARK  status: ('A' for Active; 'I' for Inactive)
REMARK    1  A    between atoms: C_9  and  C_10
REMARK    2  A    between atoms: C_14  and  C_15
REMARK    3  A    between atoms: N_17  and  C_18
REMARK                            x       y       z     vdW  Elec       q    Type
REMARK                         _______ _______ _______ _____ _____    ______ ____
ROOT
ATOM      1  C   UNL     1       1.372   7.678  20.567  0.00  0.00    +0.000 A 
ATOM      2  C   UNL     1       2.395   7.851  19.628  0.00  0.00    +0.000 A 
ATOM      3  C   UNL     1       3.100   6.761  19.107  0.00  0.00    +0.000 A 
ATOM      4  C   UNL     1       2.929   5.452  19.613  0.00  0.00    +0.000 A 
ATOM      5  C   UNL     1       3.679   4.303  19.237  0.00  0.00    +0.000 A 
ATOM      6  C   UNL     1       3.373   3.043  19.792  0.00  0.00    +0.000 A 
ATOM      7  C   UNL     1       2.352   2.893  20.718  0.00  0.00    +0.000 A 
ATOM      8  C   UNL     1       1.613   4.009  21.097  0.00  0.00    +0.000 A 
ATOM      9  C   UNL     1       1.886   5.271  20.549  0.00  0.00    +0.000 A 
ATOM     10  C   UNL     1       1.089   6.359  20.928  0.00  0.00    +0.000 A 
ENDROOT
BRANCH   1  19
ATOM     11  N   UNL     1       0.573   9.538  17.814  0.00  0.00    +0.000 N 
ATOM     12  C   UNL     1       0.078  10.236  18.846  0.00  0.00    +0.000 A 
ATOM     13  N   UNL     1      -0.499  11.411  18.626  0.00  0.00    +0.000 NA
ATOM     14  N   UNL     1      -0.898  11.794  19.843  0.00  0.00    +0.000 N 
ATOM     15  C   UNL     1      -0.582  10.933  20.847  0.00  0.00    +0.000 A 
ATOM     16  C   UNL     1      -0.841  11.028  22.223  0.00  0.00    +0.000 A 
ATOM     17  C   UNL     1      -0.376   9.998  23.030  0.00  0.00    +0.000 A 
ATOM     18  C   UNL     1       0.319   8.929  22.473  0.00  0.00    +0.000 A 
ATOM     19  C   UNL     1       0.589   8.823  21.080  0.00  0.00    +0.000 A 
ATOM     20  C   UNL     1       0.096   9.872  20.244  0.00  0.00    +0.000 A 
ATOM     21  H   UNL     1       0.429   9.908  16.882  0.00  0.00    +0.000 HD
ATOM     22  H   UNL     1       0.664   8.529  17.849  0.00  0.00    +0.000 HD
ATOM     23  H   UNL     1      -1.395  12.686  19.919  0.00  0.00    +0.000 HD
ENDBRANCH   1  19
BRANCH   5  24
ATOM     24  C   UNL     1       4.788   4.302  18.236  0.00  0.00    +0.000 C 
ATOM     25  O   UNL     1       5.931   4.135  18.669  0.00  0.00    +0.000 OA
ATOM     26  N   UNL     1       4.465   4.570  16.919  0.00  0.00    +0.000 N 
ATOM     27  H   UNL     1       3.520   4.874  16.719  0.00  0.00    +0.000 HD
BRANCH  26  28
ATOM     28  C   UNL     1       5.392   4.672  15.852  0.00  0.00    +0.000 A 
ATOM     29  C   UNL     1       5.307   3.937  14.672  0.00  0.00    +0.000 A 
ATOM     30  C   UNL     1       6.326   4.017  13.726  0.00  0.00    +0.000 A 
ATOM     31  C   UNL     1       7.395   4.857  13.978  0.00  0.00    +0.000 A 
ATOM     32  N   UNL     1       7.488   5.638  15.075  0.00  0.00    +0.000 NA
ATOM     33  C   UNL     1       6.482   5.532  15.977  0.00  0.00    +0.000 A 
ENDBRANCH  26  28
ENDBRANCH   5  24
TORSDOF 3
ENDMDL
MODEL 2
REMARK VINA RESULT:      -9.5      1.149      1.358
REMARK  Name = 
REMARK  3 active torsions:
REMARK  status: ('A' for Active; 'I' for Inactive)
REMARK    1  A    between atoms: C_9  and  C_10
REMARK    2  A    between atoms: C_14  and  C_15
REMARK    3  A    between atoms: N_17  and  C_18
REMARK                            x       y       z     vdW  Elec       q    Type
REMARK                         _______ _______ _______ _____ _____    ______ ____
ROOT
ATOM      1  C   UNL     1       1.542   8.076  20.033  0.00  0.00    +0.000 A 
ATOM      2  C   UNL     1       2.174   8.460  18.845  0.00  0.00    +0.000 A 
ATOM      3  C   UNL     1       2.926   7.553  18.091  0.00  0.00    +0.000 A 
ATOM      4  C   UNL     1       3.219   6.253  18.565  0.00  0.00    +0.000 A 
ATOM      5  C   UNL     1       4.070   5.303  17.934  0.00  0.00    +0.000 A 
ATOM      6  C   UNL     1       4.241   4.021  18.496  0.00  0.00    +0.000 A 
ATOM      7  C   UNL     1       3.603   3.660  19.673  0.00  0.00    +0.000 A 
ATOM      8  C   UNL     1       2.771   4.581  20.301  0.00  0.00    +0.000 A 
ATOM      9  C   UNL     1       2.570   5.856  19.756  0.00  0.00    +0.000 A 
ATOM     10  C   UNL     1       1.691   6.736  20.400  0.00  0.00    +0.000 A 
ENDROOT
BRANCH   1  19
ATOM     11  N   UNL     1      -0.078   9.969  17.696  0.00  0.00    +0.000 N 
ATOM     12  C   UNL     1      -0.464  10.484  18.872  0.00  0.00    +0.000 A 
ATOM     13  N   UNL     1      -1.256  11.551  18.893  0.00  0.00    +0.000 NA
ATOM     14  N   UNL     1      -1.461  11.759  20.197  0.00  0.00    +0.000 N 
ATOM     15  C   UNL     1      -0.817  10.895  21.025  0.00  0.00    +0.000 A 
ATOM     16  C   UNL     1      -0.808  10.834  22.427  0.00  0.00    +0.000 A 
ATOM     17  C   UNL     1      -0.031   9.845  23.016  0.00  0.00    +0.000 A 
ATOM     18  C   UNL     1       0.702   8.965  22.226  0.00  0.00    +0.000 A 
ATOM     19  C   UNL     1       0.702   9.018  20.804  0.00  0.00    +0.000 A 
ATOM     20  C   UNL     1      -0.110  10.023  20.194  0.00  0.00    +0.000 A 
ATOM     21  H   UNL     1      -0.464  10.379  16.853  0.00  0.00    +0.000 HD
ATOM     22  H   UNL     1       0.180   8.994  17.602  0.00  0.00    +0.000 HD
ATOM     23  H   UNL     1      -2.070  12.539  20.461  0.00  0.00    +0.000 HD
ENDBRANCH   1  19
BRANCH   5  24
ATOM     24  C   UNL     1       4.803   5.536  16.653  0.00  0.00    +0.000 C 
ATOM     25  O   UNL     1       4.883   6.703  16.260  0.00  0.00    +0.000 OA
ATOM     26  N   UNL     1       5.262   4.429  15.964  0.00  0.00    +0.000 N 
ATOM     27  H   UNL     1       4.972   3.517  16.294  0.00  0.00    +0.000 HD
BRANCH  26  28
ATOM     28  C   UNL     1       5.917   4.459  14.709  0.00  0.00    +0.000 A 
ATOM     29  C   UNL     1       5.499   3.738  13.594  0.00  0.00    +0.000 A 
ATOM     30  C   UNL     1       6.270   3.737  12.433  0.00  0.00    +0.000 A 
ATOM     31  C   UNL     1       7.433   4.486  12.415  0.00  0.00    +0.000 A 
ATOM     32  N   UNL     1       7.843   5.253  13.448  0.00  0.00    +0.000 NA
ATOM     33  C   UNL     1       7.072   5.226  14.562  0.00  0.00    +0.000 A 
ENDBRANCH  26  28
ENDBRANCH   5  24
TORSDOF 3
ENDMDL
MODEL 3
REMARK VINA RESULT:      -9.5      3.439      8.298
REMARK  Name = 
REMARK  3 active torsions:
REMARK  status: ('A' for Active; 'I' for Inactive)
REMARK    1  A    between atoms: C_9  and  C_10
REMARK    2  A    between atoms: C_14  and  C_15
REMARK    3  A    between atoms: N_17  and  C_18
REMARK                            x       y       z     vdW  Elec       q    Type
REMARK                         _______ _______ _______ _____ _____    ______ ____
ROOT
ATOM      1  C   UNL     1       2.225   6.691  18.711  0.00  0.00    +0.000 A 
ATOM      2  C   UNL     1       2.267   7.788  17.843  0.00  0.00    +0.000 A 
ATOM      3  C   UNL     1       1.975   9.082  18.287  0.00  0.00    +0.000 A 
ATOM      4  C   UNL     1       1.472   9.329  19.585  0.00  0.00    +0.000 A 
ATOM      5  C   UNL     1       1.034  10.585  20.089  0.00  0.00    +0.000 A 
ATOM      6  C   UNL     1       0.593  10.699  21.424  0.00  0.00    +0.000 A 
ATOM      7  C   UNL     1       0.563   9.600  22.269  0.00  0.00    +0.000 A 
ATOM      8  C   UNL     1       0.986   8.366  21.787  0.00  0.00    +0.000 A 
ATOM      9  C   UNL     1       1.444   8.227  20.469  0.00  0.00    +0.000 A 
ATOM     10  C   UNL     1       1.899   6.974  20.040  0.00  0.00    +0.000 A 
ENDROOT
BRANCH   1  19
ATOM     11  N   UNL     1       5.400   6.954  17.476  0.00  0.00    +0.000 N 
ATOM     12  C   UNL     1       5.059   5.677  17.256  0.00  0.00    +0.000 A 
ATOM     13  N   UNL     1       5.899   4.874  16.613  0.00  0.00    +0.000 NA
ATOM     14  N   UNL     1       5.264   3.699  16.607  0.00  0.00    +0.000 N 
ATOM     15  C   UNL     1       4.036   3.707  17.192  0.00  0.00    +0.000 A 
ATOM     16  C   UNL     1       3.112   2.663  17.351  0.00  0.00    +0.000 A 
ATOM     17  C   UNL     1       1.910   2.968  17.976  0.00  0.00    +0.000 A 
ATOM     18  C   UNL     1       1.656   4.263  18.415  0.00  0.00    +0.000 A 
ATOM     19  C   UNL     1       2.584   5.330  18.258  0.00  0.00    +0.000 A 
ATOM     20  C   UNL     1       3.830   5.016  17.631  0.00  0.00    +0.000 A 
ATOM     21  H   UNL     1       6.329   7.249  17.197  0.00  0.00    +0.000 HD
ATOM     22  H   UNL     1       5.013   7.482  18.249  0.00  0.00    +0.000 HD
ATOM     23  H   UNL     1       5.740   2.905  16.168  0.00  0.00    +0.000 HD
ENDBRANCH   1  19
BRANCH   5  24
ATOM     24  C   UNL     1       1.031  11.860  19.310  0.00  0.00    +0.000 C 
ATOM     25  O   UNL     1       0.210  11.954  18.394  0.00  0.00    +0.000 OA
ATOM     26  N   UNL     1       1.997  12.801  19.614  0.00  0.00    +0.000 N 
ATOM     27  H   UNL     1       2.730  12.531  20.259  0.00  0.00    +0.000 HD
BRANCH  26  28
ATOM     28  C   UNL     1       2.183  14.033  18.939  0.00  0.00    +0.000 A 
ATOM     29  C   UNL     1       3.208  14.275  18.028  0.00  0.00    +0.000 A 
ATOM     30  C   UNL     1       3.383  15.552  17.498  0.00  0.00    +0.000 A 
ATOM     31  C   UNL     1       2.504  16.549  17.880  0.00  0.00    +0.000 A 
ATOM     32  N   UNL     1       1.457  16.345  18.707  0.00  0.00    +0.000 NA
ATOM     33  C   UNL     1       1.319  15.094  19.208  0.00  0.00    +0.000 A 
ENDBRANCH  26  28
ENDBRANCH   5  24
TORSDOF 3
ENDMDL
MODEL 4
REMARK VINA RESULT:      -9.3      1.536      2.184
REMARK  Name = 
REMARK  3 active torsions:
REMARK  status: ('A' for Active; 'I' for Inactive)
REMARK    1  A    between atoms: C_9  and  C_10
REMARK    2  A    between atoms: C_14  and  C_15
REMARK    3  A    between atoms: N_17  and  C_18
REMARK                            x       y       z     vdW  Elec       q    Type
REMARK                         _______ _______ _______ _____ _____    ______ ____
ROOT
ATOM      1  C   UNL     1       1.647   8.247  19.139  0.00  0.00    +0.000 A 
ATOM      2  C   UNL     1       2.575   8.250  18.093  0.00  0.00    +0.000 A 
ATOM      3  C   UNL     1       3.357   7.125  17.807  0.00  0.00    +0.000 A 
ATOM      4  C   UNL     1       3.366   5.991  18.650  0.00  0.00    +0.000 A 
ATOM      5  C   UNL     1       4.209   4.852  18.514  0.00  0.00    +0.000 A 
ATOM      6  C   UNL     1       4.082   3.766  19.405  0.00  0.00    +0.000 A 
ATOM      7  C   UNL     1       3.152   3.782  20.433  0.00  0.00    +0.000 A 
ATOM      8  C   UNL     1       2.324   4.890  20.578  0.00  0.00    +0.000 A 
ATOM      9  C   UNL     1       2.418   5.977  19.698  0.00  0.00    +0.000 A 
ATOM     10  C   UNL     1       1.535   7.053  19.856  0.00  0.00    +0.000 A 
ENDROOT
BRANCH   1  19
ATOM     11  N   UNL     1       1.782   8.712  22.522  0.00  0.00    +0.000 N 
ATOM     12  C   UNL     1       0.917   9.641  22.089  0.00  0.00    +0.000 A 
ATOM     13  N   UNL     1       0.301  10.423  22.968  0.00  0.00    +0.000 NA
ATOM     14  N   UNL     1      -0.437  11.231  22.201  0.00  0.00    +0.000 N 
ATOM     15  C   UNL     1      -0.351  10.990  20.865  0.00  0.00    +0.000 A 
ATOM     16  C   UNL     1      -0.989  11.636  19.795  0.00  0.00    +0.000 A 
ATOM     17  C   UNL     1      -0.729  11.158  18.517  0.00  0.00    +0.000 A 
ATOM     18  C   UNL     1       0.130  10.080  18.333  0.00  0.00    +0.000 A 
ATOM     19  C   UNL     1       0.781   9.416  19.410  0.00  0.00    +0.000 A 
ATOM     20  C   UNL     1       0.530   9.916  20.725  0.00  0.00    +0.000 A 
ATOM     21  H   UNL     1       1.988   8.685  23.514  0.00  0.00    +0.000 HD
ATOM     22  H   UNL     1       2.534   8.371  21.934  0.00  0.00    +0.000 HD
ATOM     23  H   UNL     1      -0.999  11.947  22.670  0.00  0.00    +0.000 HD
ENDBRANCH   1  19
BRANCH   5  24
ATOM     24  C   UNL     1       5.238   4.679  17.445  0.00  0.00    +0.000 C 
ATOM     25  O   UNL     1       6.404   4.516  17.813  0.00  0.00    +0.000 OA
ATOM     26  N   UNL     1       4.825   4.796  16.131  0.00  0.00    +0.000 N 
ATOM     27  H   UNL     1       3.879   5.115  15.962  0.00  0.00    +0.000 HD
BRANCH  26  28
ATOM     28  C   UNL     1       5.671   4.725  14.997  0.00  0.00    +0.000 A 
ATOM     29  C   UNL     1       5.446   3.886  13.908  0.00  0.00    +0.000 A 
ATOM     30  C   UNL     1       6.391   3.798  12.889  0.00  0.00    +0.000 A 
ATOM     31  C   UNL     1       7.530   4.578  12.977  0.00  0.00    +0.000 A 
ATOM     32  N   UNL     1       7.759   5.454  13.978  0.00  0.00    +0.000 NA
ATOM     33  C   UNL     1       6.822   5.511  14.955  0.00  0.00    +0.000 A 
ENDBRANCH  26  28
ENDBRANCH   5  24
TORSDOF 3
ENDMDL
MODEL 5
REMARK VINA RESULT:      -9.3      3.216      8.933
REMARK  Name = 
REMARK  3 active torsions:
REMARK  status: ('A' for Active; 'I' for Inactive)
REMARK    1  A    between atoms: C_9  and  C_10
REMARK    2  A    between atoms: C_14  and  C_15
REMARK    3  A    between atoms: N_17  and  C_18
REMARK                            x       y       z     vdW  Elec       q    Type
REMARK                         _______ _______ _______ _____ _____    ______ ____
ROOT
ATOM      1  C   UNL     1       2.664   7.517  18.327  0.00  0.00    +0.000 A 
ATOM      2  C   UNL     1       2.241   8.674  17.665  0.00  0.00    +0.000 A 
ATOM      3  C   UNL     1       1.488   9.656  18.318  0.00  0.00    +0.000 A 
ATOM      4  C   UNL     1       0.982   9.460  19.624  0.00  0.00    +0.000 A 
ATOM      5  C   UNL     1       0.111  10.339  20.326  0.00  0.00    +0.000 A 
ATOM      6  C   UNL     1      -0.284  10.042  21.647  0.00  0.00    +0.000 A 
ATOM      7  C   UNL     1       0.151   8.890  22.286  0.00  0.00    +0.000 A 
ATOM      8  C   UNL     1       1.000   8.021  21.609  0.00  0.00    +0.000 A 
ATOM      9  C   UNL     1       1.421   8.300  20.302  0.00  0.00    +0.000 A 
ATOM     10  C   UNL     1       2.310   7.418  19.674  0.00  0.00    +0.000 A 
ENDROOT
BRANCH   1  19
ATOM     11  N   UNL     1       1.312   4.499  19.187  0.00  0.00    +0.000 N 
ATOM     12  C   UNL     1       2.390   4.187  18.453  0.00  0.00    +0.000 A 
ATOM     13  N   UNL     1       2.721   2.913  18.282  0.00  0.00    +0.000 NA
ATOM     14  N   UNL     1       3.795   2.974  17.489  0.00  0.00    +0.000 N 
ATOM     15  C   UNL     1       4.193   4.231  17.160  0.00  0.00    +0.000 A 
ATOM     16  C   UNL     1       5.269   4.651  16.362  0.00  0.00    +0.000 A 
ATOM     17  C   UNL     1       5.456   6.019  16.213  0.00  0.00    +0.000 A 
ATOM     18  C   UNL     1       4.599   6.916  16.843  0.00  0.00    +0.000 A 
ATOM     19  C   UNL     1       3.506   6.503  17.655  0.00  0.00    +0.000 A 
ATOM     20  C   UNL     1       3.300   5.096  17.795  0.00  0.00    +0.000 A 
ATOM     21  H   UNL     1       0.742   3.736  19.535  0.00  0.00    +0.000 HD
ATOM     22  H   UNL     1       0.804   5.364  19.043  0.00  0.00    +0.000 HD
ATOM     23  H   UNL     1       4.224   2.089  17.203  0.00  0.00    +0.000 HD
ENDBRANCH   1  19
BRANCH   5  24
ATOM     24  C   UNL     1      -0.419  11.625  19.781  0.00  0.00    +0.000 C 
ATOM     25  O   UNL     1      -1.223  11.548  18.849  0.00  0.00    +0.000 OA
ATOM     26  N   UNL     1       0.091  12.802  20.299  0.00  0.00    +0.000 N 
ATOM     27  H   UNL     1       0.881  12.734  20.929  0.00  0.00    +0.000 HD
BRANCH  26  28
ATOM     28  C   UNL     1      -0.248  14.105  19.860  0.00  0.00    +0.000 A 
ATOM     29  C   UNL     1       0.447  14.800  18.874  0.00  0.00    +0.000 A 
ATOM     30  C   UNL     1       0.115  16.122  18.586  0.00  0.00    +0.000 A 
ATOM     31  C   UNL     1      -0.929  16.705  19.281  0.00  0.00    +0.000 A 
ATOM     32  N   UNL     1      -1.674  16.050  20.197  0.00  0.00    +0.000 NA
ATOM     33  C   UNL     1      -1.320  14.768  20.456  0.00  0.00    +0.000 A 
ENDBRANCH  26  28
ENDBRANCH   5  24
TORSDOF 3
ENDMDL
MODEL 6
REMARK VINA RESULT:      -9.3      1.873      2.718
REMARK  Name = 
REMARK  3 active torsions:
REMARK  status: ('A' for Active; 'I' for Inactive)
REMARK    1  A    between atoms: C_9  and  C_10
REMARK    2  A    between atoms: C_14  and  C_15
REMARK    3  A    between atoms: N_17  and  C_18
REMARK                            x       y       z     vdW  Elec       q    Type
REMARK                         _______ _______ _______ _____ _____    ______ ____
ROOT
ATOM      1  C   UNL     1       1.643   8.573  18.880  0.00  0.00    +0.000 A 
ATOM      2  C   UNL     1       2.437   8.757  17.743  0.00  0.00    +0.000 A 
ATOM      3  C   UNL     1       3.315   7.763  17.296  0.00  0.00    +0.000 A 
ATOM      4  C   UNL     1       3.563   6.594  18.052  0.00  0.00    +0.000 A 
ATOM      5  C   UNL     1       4.521   5.587  17.748  0.00  0.00    +0.000 A 
ATOM      6  C   UNL     1       4.635   4.445  18.568  0.00  0.00    +0.000 A 
ATOM      7  C   UNL     1       3.835   4.282  19.689  0.00  0.00    +0.000 A 
ATOM      8  C   UNL     1       2.898   5.261  20.000  0.00  0.00    +0.000 A 
ATOM      9  C   UNL     1       2.752   6.398  19.193  0.00  0.00    +0.000 A 
ATOM     10  C   UNL     1       1.766   7.337  19.520  0.00  0.00    +0.000 A 
ENDROOT
BRANCH   1  19
ATOM     11  N   UNL     1       1.948   8.699  22.281  0.00  0.00    +0.000 N 
ATOM     12  C   UNL     1       0.960   9.561  22.000  0.00  0.00    +0.000 A 
ATOM     13  N   UNL     1       0.322  10.173  22.991  0.00  0.00    +0.000 NA
ATOM     14  N   UNL     1      -0.549  10.965  22.358  0.00  0.00    +0.000 N 
ATOM     15  C   UNL     1      -0.524  10.875  21.001  0.00  0.00    +0.000 A 
ATOM     16  C   UNL     1      -1.297  11.550  20.044  0.00  0.00    +0.000 A 
ATOM     17  C   UNL     1      -1.070  11.240  18.710  0.00  0.00    +0.000 A 
ATOM     18  C   UNL     1      -0.114  10.292  18.362  0.00  0.00    +0.000 A 
ATOM     19  C   UNL     1       0.675   9.600  19.324  0.00  0.00    +0.000 A 
ATOM     20  C   UNL     1       0.458   9.930  20.697  0.00  0.00    +0.000 A 
ATOM     21  H   UNL     1       2.219   8.593  23.252  0.00  0.00    +0.000 HD
ATOM     22  H   UNL     1       2.692   8.509  21.620  0.00  0.00    +0.000 HD
ATOM     23  H   UNL     1      -1.153  11.559  22.933  0.00  0.00    +0.000 HD
ENDBRANCH   1  19
BRANCH   5  24
ATOM     24  C   UNL     1       5.433   5.610  16.565  0.00  0.00    +0.000 C 
ATOM     25  O   UNL     1       6.164   6.597  16.442  0.00  0.00    +0.000 OA
ATOM     26  N   UNL     1       5.332   4.574  15.655  0.00  0.00    +0.000 N 
ATOM     27  H   UNL     1       4.566   3.922  15.768  0.00  0.00    +0.000 HD
BRANCH  26  28
ATOM     28  C   UNL     1       6.069   4.467  14.450  0.00  0.00    +0.000 A 
ATOM     29  C   UNL     1       7.245   5.166  14.191  0.00  0.00    +0.000 A 
ATOM     30  C   UNL     1       7.841   5.087  12.934  0.00  0.00    +0.000 A 
ATOM     31  C   UNL     1       7.251   4.284  11.975  0.00  0.00    +0.000 A 
ATOM     32  N   UNL     1       6.150   3.537  12.201  0.00  0.00    +0.000 NA
ATOM     33  C   UNL     1       5.593   3.641  13.432  0.00  0.00    +0.000 A 
ENDBRANCH  26  28
ENDBRANCH   5  24
TORSDOF 3
ENDMDL
MODEL 7
REMARK VINA RESULT:      -9.2      3.344      8.717
REMARK  Name = 
REMARK  3 active torsions:
REMARK  status: ('A' for Active; 'I' for Inactive)
REMARK    1  A    between atoms: C_9  and  C_10
REMARK    2  A    between atoms: C_14  and  C_15
REMARK    3  A    between atoms: N_17  and  C_18
REMARK                            x       y       z     vdW  Elec       q    Type
REMARK                         _______ _______ _______ _____ _____    ______ ____
ROOT
ATOM      1  C   UNL     1       2.680   7.268  18.375  0.00  0.00    +0.000 A 
ATOM      2  C   UNL     1       2.432   8.453  17.674  0.00  0.00    +0.000 A 
ATOM      3  C   UNL     1       1.788   9.538  18.277  0.00  0.00    +0.000 A 
ATOM      4  C   UNL     1       1.215   9.442  19.566  0.00  0.00    +0.000 A 
ATOM      5  C   UNL     1       0.439  10.442  20.216  0.00  0.00    +0.000 A 
ATOM      6  C   UNL     1      -0.037  10.230  21.527  0.00  0.00    +0.000 A 
ATOM      7  C   UNL     1       0.224   9.050  22.206  0.00  0.00    +0.000 A 
ATOM      8  C   UNL     1       0.978   8.063  21.580  0.00  0.00    +0.000 A 
ATOM      9  C   UNL     1       1.477   8.253  20.284  0.00  0.00    +0.000 A 
ATOM     10  C   UNL     1       2.268   7.249  19.710  0.00  0.00    +0.000 A 
ENDROOT
BRANCH   1  19
ATOM     11  N   UNL     1       1.149   4.448  19.549  0.00  0.00    +0.000 N 
ATOM     12  C   UNL     1       2.162   3.993  18.799  0.00  0.00    +0.000 A 
ATOM     13  N   UNL     1       2.388   2.686  18.724  0.00  0.00    +0.000 NA
ATOM     14  N   UNL     1       3.422   2.597  17.883  0.00  0.00    +0.000 N 
ATOM     15  C   UNL     1       3.898   3.787  17.430  0.00  0.00    +0.000 A 
ATOM     16  C   UNL     1       4.961   4.053  16.554  0.00  0.00    +0.000 A 
ATOM     17  C   UNL     1       5.243   5.385  16.280  0.00  0.00    +0.000 A 
ATOM     18  C   UNL     1       4.488   6.396  16.866  0.00  0.00    +0.000 A 
ATOM     19  C   UNL     1       3.409   6.139  17.757  0.00  0.00    +0.000 A 
ATOM     20  C   UNL     1       3.104   4.769  18.027  0.00  0.00    +0.000 A 
ATOM     21  H   UNL     1       0.541   3.764  19.985  0.00  0.00    +0.000 HD
ATOM     22  H   UNL     1       0.700   5.336  19.354  0.00  0.00    +0.000 HD
ATOM     23  H   UNL     1       3.768   1.660  17.656  0.00  0.00    +0.000 HD
ENDBRANCH   1  19
BRANCH   5  24
ATOM     24  C   UNL     1       0.098  11.771  19.625  0.00  0.00    +0.000 C 
ATOM     25  O   UNL     1      -0.687  11.774  18.673  0.00  0.00    +0.000 OA
ATOM     26  N   UNL     1       0.746  12.884  20.127  0.00  0.00    +0.000 N 
ATOM     27  H   UNL     1       1.505  12.731  20.780  0.00  0.00    +0.000 HD
BRANCH  26  28
ATOM     28  C   UNL     1       0.595  14.207  19.646  0.00  0.00    +0.000 A 
ATOM     29  C   UNL     1      -0.592  14.933  19.720  0.00  0.00    +0.000 A 
ATOM     30  C   UNL     1      -0.682  16.186  19.119  0.00  0.00    +0.000 A 
ATOM     31  C   UNL     1       0.435  16.691  18.479  0.00  0.00    +0.000 A 
ATOM     32  N   UNL     1       1.625  16.055  18.440  0.00  0.00    +0.000 NA
ATOM     33  C   UNL     1       1.676  14.836  19.031  0.00  0.00    +0.000 A 
ENDBRANCH  26  28
ENDBRANCH   5  24
TORSDOF 3
ENDMDL
MODEL 8
REMARK VINA RESULT:      -9.2      3.267      8.839
REMARK  Name = 
REMARK  3 active torsions:
REMARK  status: ('A' for Active; 'I' for Inactive)
REMARK    1  A    between atoms: C_9  and  C_10
REMARK    2  A    between atoms: C_14  and  C_15
REMARK    3  A    between atoms: N_17  and  C_18
REMARK                            x       y       z     vdW  Elec       q    Type
REMARK                         _______ _______ _______ _____ _____    ______ ____
ROOT
ATOM      1  C   UNL     1       2.699   7.361  18.272  0.00  0.00    +0.000 A 
ATOM      2  C   UNL     1       1.876   8.158  17.469  0.00  0.00    +0.000 A 
ATOM      3  C   UNL     1       0.986   9.083  18.026  0.00  0.00    +0.000 A 
ATOM      4  C   UNL     1       0.757   9.150  19.419  0.00  0.00    +0.000 A 
ATOM      5  C   UNL     1      -0.208   9.966  20.072  0.00  0.00    +0.000 A 
ATOM      6  C   UNL     1      -0.302   9.968  21.479  0.00  0.00    +0.000 A 
ATOM      7  C   UNL     1       0.527   9.173  22.256  0.00  0.00    +0.000 A 
ATOM      8  C   UNL     1       1.473   8.368  21.630  0.00  0.00    +0.000 A 
ATOM      9  C   UNL     1       1.598   8.359  20.234  0.00  0.00    +0.000 A 
ATOM     10  C   UNL     1       2.593   7.565  19.650  0.00  0.00    +0.000 A 
ENDROOT
BRANCH   1  19
ATOM     11  N   UNL     1       1.506   4.241  18.989  0.00  0.00    +0.000 N 
ATOM     12  C   UNL     1       2.672   4.019  18.366  0.00  0.00    +0.000 A 
ATOM     13  N   UNL     1       3.116   2.776  18.227  0.00  0.00    +0.000 NA
ATOM     14  N   UNL     1       4.255   2.926  17.545  0.00  0.00    +0.000 N 
ATOM     15  C   UNL     1       4.586   4.213  17.258  0.00  0.00    +0.000 A 
ATOM     16  C   UNL     1       5.699   4.721  16.572  0.00  0.00    +0.000 A 
ATOM     17  C   UNL     1       5.793   6.101  16.444  0.00  0.00    +0.000 A 
ATOM     18  C   UNL     1       4.812   6.924  16.986  0.00  0.00    +0.000 A 
ATOM     19  C   UNL     1       3.679   6.421  17.685  0.00  0.00    +0.000 A 
ATOM     20  C   UNL     1       3.570   5.001  17.803  0.00  0.00    +0.000 A 
ATOM     21  H   UNL     1       0.965   3.434  19.278  0.00  0.00    +0.000 HD
ATOM     22  H   UNL     1       0.949   5.065  18.798  0.00  0.00    +0.000 HD
ATOM     23  H   UNL     1       4.777   2.079  17.302  0.00  0.00    +0.000 HD
ENDBRANCH   1  19
BRANCH   5  24
ATOM     24  C   UNL     1      -1.151  10.891  19.373  0.00  0.00    +0.000 C 
ATOM     25  O   UNL     1      -0.838  12.084  19.335  0.00  0.00    +0.000 OA
ATOM     26  N   UNL     1      -2.337  10.362  18.898  0.00  0.00    +0.000 N 
ATOM     27  H   UNL     1      -2.563   9.409  19.155  0.00  0.00    +0.000 HD
BRANCH  26  28
ATOM     28  C   UNL     1      -3.371  11.100  18.271  0.00  0.00    +0.000 A 
ATOM     29  C   UNL     1      -4.300  11.878  18.957  0.00  0.00    +0.000 A 
ATOM     30  C   UNL     1      -5.352  12.477  18.268  0.00  0.00    +0.000 A 
ATOM     31  C   UNL     1      -5.427  12.301  16.898  0.00  0.00    +0.000 A 
ATOM     32  N   UNL     1      -4.513  11.613  16.182  0.00  0.00    +0.000 NA
ATOM     33  C   UNL     1      -3.506  11.039  16.884  0.00  0.00    +0.000 A 
ENDBRANCH  26  28
ENDBRANCH   5  24
TORSDOF 3
ENDMDL
MODEL 9
REMARK VINA RESULT:      -9.2      3.156      9.214
REMARK  Name = 
REMARK  3 active torsions:
REMARK  status: ('A' for Active; 'I' for Inactive)
REMARK    1  A    between atoms: C_9  and  C_10
REMARK    2  A    between atoms: C_14  and  C_15
REMARK    3  A    between atoms: N_17  and  C_18
REMARK                            x       y       z     vdW  Elec       q    Type
REMARK                         _______ _______ _______ _____ _____    ______ ____
ROOT
ATOM      1  C   UNL     1       1.838   6.418  20.134  0.00  0.00    +0.000 A 
ATOM      2  C   UNL     1       1.168   7.065  21.178  0.00  0.00    +0.000 A 
ATOM      3  C   UNL     1       0.783   8.406  21.078  0.00  0.00    +0.000 A 
ATOM      4  C   UNL     1       1.186   9.219  19.994  0.00  0.00    +0.000 A 
ATOM      5  C   UNL     1       0.951  10.615  19.859  0.00  0.00    +0.000 A 
ATOM      6  C   UNL     1       1.372  11.298  18.699  0.00  0.00    +0.000 A 
ATOM      7  C   UNL     1       2.032  10.635  17.674  0.00  0.00    +0.000 A 
ATOM      8  C   UNL     1       2.271   9.271  17.795  0.00  0.00    +0.000 A 
ATOM      9  C   UNL     1       1.849   8.565  18.930  0.00  0.00    +0.000 A 
ATOM     10  C   UNL     1       2.073   7.184  18.989  0.00  0.00    +0.000 A 
ENDROOT
BRANCH   1  19
ATOM     11  N   UNL     1       5.069   6.232  19.039  0.00  0.00    +0.000 N 
ATOM     12  C   UNL     1       4.721   4.959  19.274  0.00  0.00    +0.000 A 
ATOM     13  N   UNL     1       5.578   3.982  19.001  0.00  0.00    +0.000 NA
ATOM     14  N   UNL     1       4.927   2.881  19.385  0.00  0.00    +0.000 N 
ATOM     15  C   UNL     1       3.674   3.094  19.869  0.00  0.00    +0.000 A 
ATOM     16  C   UNL     1       2.729   2.173  20.345  0.00  0.00    +0.000 A 
ATOM     17  C   UNL     1       1.504   2.677  20.763  0.00  0.00    +0.000 A 
ATOM     18  C   UNL     1       1.248   4.042  20.697  0.00  0.00    +0.000 A 
ATOM     19  C   UNL     1       2.198   4.986  20.214  0.00  0.00    +0.000 A 
ATOM     20  C   UNL     1       3.466   4.473  19.801  0.00  0.00    +0.000 A 
ATOM     21  H   UNL     1       6.014   6.410  18.719  0.00  0.00    +0.000 HD
ATOM     22  H   UNL     1       4.655   7.000  19.554  0.00  0.00    +0.000 HD
ATOM     23  H   UNL     1       5.412   1.984  19.281  0.00  0.00    +0.000 HD
ENDBRANCH   1  19
BRANCH   5  24
ATOM     24  C   UNL     1       0.234  11.457  20.863  0.00  0.00    +0.000 C 
ATOM     25  O   UNL     1       0.920  11.980  21.746  0.00  0.00    +0.000 OA
ATOM     26  N   UNL     1      -1.144  11.522  20.782  0.00  0.00    +0.000 N 
ATOM     27  H   UNL     1      -1.606  10.901  20.128  0.00  0.00    +0.000 HD
BRANCH  26  28
ATOM     28  C   UNL     1      -1.987  12.216  21.684  0.00  0.00    +0.000 A 
ATOM     29  C   UNL     1      -2.248  11.798  22.987  0.00  0.00    +0.000 A 
ATOM     30  C   UNL     1      -3.180  12.481  23.765  0.00  0.00    +0.000 A 
ATOM     31  C   UNL     1      -3.809  13.586  23.221  0.00  0.00    +0.000 A 
ATOM     32  N   UNL     1      -3.540  14.067  21.989  0.00  0.00    +0.000 NA
ATOM     33  C   UNL     1      -2.632  13.376  21.257  0.00  0.00    +0.000 A 
ENDBRANCH  26  28
ENDBRANCH   5  24
TORSDOF 3
ENDMDL
