MODEL 1
REMARK VINA RESULT:      -6.0      0.000      0.000
REMARK  Name = 
REMARK  7 active torsions:
REMARK  status: ('A' for Active; 'I' for Inactive)
REMARK    1  A    between atoms: C_1  and  C_2
REMARK    2  A    between atoms: C_2  and  C_3
REMARK    3  A    between atoms: C_3  and  C_4
REMARK    4  A    between atoms: C_4  and  C_5
REMARK    5  A    between atoms: C_5  and  N_6
REMARK    6  A    between atoms: N_6  and  C_7
REMARK    7  A    between atoms: C_7  and  C_8
REMARK                            x       y       z     vdW  Elec       q    Type
REMARK                         _______ _______ _______ _____ _____    ______ ____
ROOT
ATOM      1  C   UNL     1       6.531   4.900  14.117  0.00  0.00    +0.000 C 
ENDROOT
BRANCH   1   2
ATOM      2  C   UNL     1       5.576   5.060  15.279  0.00  0.00    +0.000 A 
ATOM      3  C   UNL     1       5.306   6.320  15.835  0.00  0.00    +0.000 A 
ATOM      4  C   UNL     1       4.391   6.451  16.884  0.00  0.00    +0.000 A 
ATOM      5  C   UNL     1       3.748   5.324  17.390  0.00  0.00    +0.000 A 
ATOM      6 BR   UNL     1       2.507   5.503  18.806  0.00  0.00    +0.000 Br
ATOM      7  C   UNL     1       4.011   4.065  16.861  0.00  0.00    +0.000 A 
ATOM      8  C   UNL     1       4.920   3.937  15.807  0.00  0.00    +0.000 A 
ENDBRANCH   1   2
BRANCH   1   9
ATOM      9  N   UNL     1       6.543   3.526  13.615  0.00  0.00    +0.000 NA
ATOM     10  H   UNL     1       7.393   3.068  13.940  0.00  0.00    +0.000 HD
BRANCH   9  11
ATOM     11  C   UNL     1       6.499   3.480  12.154  0.00  0.00    +0.000 C 
BRANCH  11  12
ATOM     12  C   UNL     1       5.261   2.690  11.728  0.00  0.00    +0.000 C 
BRANCH  12  13
ATOM     13  C   UNL     1       4.079   3.621  11.468  0.00  0.00    +0.000 C 
BRANCH  13  15
ATOM     14  C   UNL     1       2.795   4.436   9.476  0.00  0.00    +0.000 C 
ATOM     15  C   UNL     1       3.316   3.212  10.211  0.00  0.00    +0.000 C 
ENDBRANCH  13  15
ENDBRANCH  12  13
ENDBRANCH  11  12
ENDBRANCH   9  11
ENDBRANCH   1   9
TORSDOF 6
ENDMDL
MODEL 2
REMARK VINA RESULT:      -5.9      4.949      6.649
REMARK  Name = 
REMARK  7 active torsions:
REMARK  status: ('A' for Active; 'I' for Inactive)
REMARK    1  A    between atoms: C_1  and  C_2
REMARK    2  A    between atoms: C_2  and  C_3
REMARK    3  A    between atoms: C_3  and  C_4
REMARK    4  A    between atoms: C_4  and  C_5
REMARK    5  A    between atoms: C_5  and  N_6
REMARK    6  A    between atoms: N_6  and  C_7
REMARK    7  A    between atoms: C_7  and  C_8
REMARK                            x       y       z     vdW  Elec       q    Type
REMARK                         _______ _______ _______ _____ _____    ______ ____
ROOT
ATOM      1  C   UNL     1       2.456   6.503  19.892  0.00  0.00    +0.000 C 
ENDROOT
BRANCH   1   2
ATOM      2  C   UNL     1       3.582   6.071  18.979  0.00  0.00    +0.000 A 
ATOM      3  C   UNL     1       4.569   5.172  19.412  0.00  0.00    +0.000 A 
ATOM      4  C   UNL     1       5.579   4.755  18.539  0.00  0.00    +0.000 A 
ATOM      5  C   UNL     1       5.615   5.240  17.234  0.00  0.00    +0.000 A 
ATOM      6 BR   UNL     1       6.979   4.672  16.054  0.00  0.00    +0.000 Br
ATOM      7  C   UNL     1       4.652   6.139  16.790  0.00  0.00    +0.000 A 
ATOM      8  C   UNL     1       3.638   6.549  17.660  0.00  0.00    +0.000 A 
ENDBRANCH   1   2
BRANCH   1   9
ATOM      9  N   UNL     1       2.198   5.512  20.937  0.00  0.00    +0.000 NA
ATOM     10  H   UNL     1       3.061   5.001  21.121  0.00  0.00    +0.000 HD
BRANCH   9  11
ATOM     11  C   UNL     1       1.154   4.567  20.544  0.00  0.00    +0.000 C 
BRANCH  11  12
ATOM     12  C   UNL     1       1.667   3.146  20.786  0.00  0.00    +0.000 C 
BRANCH  12  13
ATOM     13  C   UNL     1       1.537   2.295  19.525  0.00  0.00    +0.000 C 
BRANCH  13  15
ATOM     14  C   UNL     1       2.545   2.922  17.319  0.00  0.00    +0.000 C 
ATOM     15  C   UNL     1       1.392   3.164  18.279  0.00  0.00    +0.000 C 
ENDBRANCH  13  15
ENDBRANCH  12  13
ENDBRANCH  11  12
ENDBRANCH   9  11
ENDBRANCH   1   9
TORSDOF 6
ENDMDL
MODEL 3
REMARK VINA RESULT:      -5.8      4.891      6.092
REMARK  Name = 
REMARK  7 active torsions:
REMARK  status: ('A' for Active; 'I' for Inactive)
REMARK    1  A    between atoms: C_1  and  C_2
REMARK    2  A    between atoms: C_2  and  C_3
REMARK    3  A    between atoms: C_3  and  C_4
REMARK    4  A    between atoms: C_4  and  C_5
REMARK    5  A    between atoms: C_5  and  N_6
REMARK    6  A    between atoms: N_6  and  C_7
REMARK    7  A    between atoms: C_7  and  C_8
REMARK                            x       y       z     vdW  Elec       q    Type
REMARK                         _______ _______ _______ _____ _____    ______ ____
ROOT
ATOM      1  C   UNL     1       4.880   4.071  19.023  0.00  0.00    +0.000 C 
ENDROOT
BRANCH   1   2
ATOM      2  C   UNL     1       4.132   5.362  18.776  0.00  0.00    +0.000 A 
ATOM      3  C   UNL     1       4.386   6.149  17.642  0.00  0.00    +0.000 A 
ATOM      4  C   UNL     1       3.656   7.319  17.413  0.00  0.00    +0.000 A 
ATOM      5  C   UNL     1       2.676   7.716  18.319  0.00  0.00    +0.000 A 
ATOM      6 BR   UNL     1       1.686   9.297  18.006  0.00  0.00    +0.000 Br
ATOM      7  C   UNL     1       2.417   6.956  19.455  0.00  0.00    +0.000 A 
ATOM      8  C   UNL     1       3.141   5.783  19.679  0.00  0.00    +0.000 A 
ENDBRANCH   1   2
BRANCH   1   9
ATOM      9  N   UNL     1       4.700   3.126  17.921  0.00  0.00    +0.000 NA
ATOM     10  H   UNL     1       4.447   3.647  17.083  0.00  0.00    +0.000 HD
BRANCH   9  11
ATOM     11  C   UNL     1       3.656   2.144  18.211  0.00  0.00    +0.000 C 
BRANCH  11  12
ATOM     12  C   UNL     1       2.347   2.625  17.583  0.00  0.00    +0.000 C 
BRANCH  12  13
ATOM     13  C   UNL     1       1.222   2.652  18.615  0.00  0.00    +0.000 C 
BRANCH  13  15
ATOM     14  C   UNL     1       1.203   3.171  21.066  0.00  0.00    +0.000 C 
ATOM     15  C   UNL     1       1.720   2.227  19.994  0.00  0.00    +0.000 C 
ENDBRANCH  13  15
ENDBRANCH  12  13
ENDBRANCH  11  12
ENDBRANCH   9  11
ENDBRANCH   1   9
TORSDOF 6
ENDMDL
MODEL 4
REMARK VINA RESULT:      -5.8      4.421      6.739
REMARK  Name = 
REMARK  7 active torsions:
REMARK  status: ('A' for Active; 'I' for Inactive)
REMARK    1  A    between atoms: C_1  and  C_2
REMARK    2  A    between atoms: C_2  and  C_3
REMARK    3  A    between atoms: C_3  and  C_4
REMARK    4  A    between atoms: C_4  and  C_5
REMARK    5  A    between atoms: C_5  and  N_6
REMARK    6  A    between atoms: N_6  and  C_7
REMARK    7  A    between atoms: C_7  and  C_8
REMARK                            x       y       z     vdW  Elec       q    Type
REMARK                         _______ _______ _______ _____ _____    ______ ____
ROOT
ATOM      1  C   UNL     1       3.331   2.163  18.101  0.00  0.00    +0.000 C 
ENDROOT
BRANCH   1   2
ATOM      2  C   UNL     1       4.249   3.358  17.970  0.00  0.00    +0.000 A 
ATOM      3  C   UNL     1       5.023   3.808  19.051  0.00  0.00    +0.000 A 
ATOM      4  C   UNL     1       5.895   4.890  18.897  0.00  0.00    +0.000 A 
ATOM      5  C   UNL     1       5.991   5.535  17.667  0.00  0.00    +0.000 A 
ATOM      6 BR   UNL     1       7.174   6.996  17.459  0.00  0.00    +0.000 Br
ATOM      7  C   UNL     1       5.225   5.112  16.586  0.00  0.00    +0.000 A 
ATOM      8  C   UNL     1       4.361   4.025  16.739  0.00  0.00    +0.000 A 
ENDBRANCH   1   2
BRANCH   1   9
ATOM      9  N   UNL     1       2.529   2.231  19.322  0.00  0.00    +0.000 NA
ATOM     10  H   UNL     1       2.466   1.296  19.723  0.00  0.00    +0.000 HD
BRANCH   9  11
ATOM     11  C   UNL     1       1.182   2.735  19.060  0.00  0.00    +0.000 C 
BRANCH  11  12
ATOM     12  C   UNL     1       0.792   3.691  20.189  0.00  0.00    +0.000 C 
BRANCH  12  13
ATOM     13  C   UNL     1       2.006   4.469  20.692  0.00  0.00    +0.000 C 
BRANCH  13  15
ATOM     14  C   UNL     1       2.559   6.544  19.401  0.00  0.00    +0.000 C 
ATOM     15  C   UNL     1       1.787   5.976  20.580  0.00  0.00    +0.000 C 
ENDBRANCH  13  15
ENDBRANCH  12  13
ENDBRANCH  11  12
ENDBRANCH   9  11
ENDBRANCH   1   9
TORSDOF 6
ENDMDL
MODEL 5
REMARK VINA RESULT:      -5.7      4.423      6.741
REMARK  Name = 
REMARK  7 active torsions:
REMARK  status: ('A' for Active; 'I' for Inactive)
REMARK    1  A    between atoms: C_1  and  C_2
REMARK    2  A    between atoms: C_2  and  C_3
REMARK    3  A    between atoms: C_3  and  C_4
REMARK    4  A    between atoms: C_4  and  C_5
REMARK    5  A    between atoms: C_5  and  N_6
REMARK    6  A    between atoms: N_6  and  C_7
REMARK    7  A    between atoms: C_7  and  C_8
REMARK                            x       y       z     vdW  Elec       q    Type
REMARK                         _______ _______ _______ _____ _____    ______ ____
ROOT
ATOM      1  C   UNL     1       3.522   2.649  18.197  0.00  0.00    +0.000 C 
ENDROOT
BRANCH   1   2
ATOM      2  C   UNL     1       4.498   3.787  18.002  0.00  0.00    +0.000 A 
ATOM      3  C   UNL     1       4.607   4.455  16.772  0.00  0.00    +0.000 A 
ATOM      4  C   UNL     1       5.489   5.530  16.625  0.00  0.00    +0.000 A 
ATOM      5  C   UNL     1       6.273   5.939  17.700  0.00  0.00    +0.000 A 
ATOM      6 BR   UNL     1       7.461   7.397  17.501  0.00  0.00    +0.000 Br
ATOM      7  C   UNL     1       6.187   5.284  18.924  0.00  0.00    +0.000 A 
ATOM      8  C   UNL     1       5.300   4.215  19.073  0.00  0.00    +0.000 A 
ENDBRANCH   1   2
BRANCH   1   9
ATOM      9  N   UNL     1       2.140   3.127  18.250  0.00  0.00    +0.000 NA
ATOM     10  H   UNL     1       2.151   4.140  18.363  0.00  0.00    +0.000 HD
BRANCH   9  11
ATOM     11  C   UNL     1       1.399   2.525  19.357  0.00  0.00    +0.000 C 
BRANCH  11  12
ATOM     12  C   UNL     1       0.837   3.646  20.233  0.00  0.00    +0.000 C 
BRANCH  12  13
ATOM     13  C   UNL     1       1.959   4.516  20.795  0.00  0.00    +0.000 C 
BRANCH  13  15
ATOM     14  C   UNL     1       2.561   6.612  19.560  0.00  0.00    +0.000 C 
ATOM     15  C   UNL     1       1.655   6.002  20.616  0.00  0.00    +0.000 C 
ENDBRANCH  13  15
ENDBRANCH  12  13
ENDBRANCH  11  12
ENDBRANCH   9  11
ENDBRANCH   1   9
TORSDOF 6
ENDMDL
MODEL 6
REMARK VINA RESULT:      -5.7      4.665      6.250
REMARK  Name = 
REMARK  7 active torsions:
REMARK  status: ('A' for Active; 'I' for Inactive)
REMARK    1  A    between atoms: C_1  and  C_2
REMARK    2  A    between atoms: C_2  and  C_3
REMARK    3  A    between atoms: C_3  and  C_4
REMARK    4  A    between atoms: C_4  and  C_5
REMARK    5  A    between atoms: C_5  and  N_6
REMARK    6  A    between atoms: N_6  and  C_7
REMARK    7  A    between atoms: C_7  and  C_8
REMARK                            x       y       z     vdW  Elec       q    Type
REMARK                         _______ _______ _______ _____ _____    ______ ____
ROOT
ATOM      1  C   UNL     1       4.295   3.348  17.314  0.00  0.00    +0.000 C 
ENDROOT
BRANCH   1   2
ATOM      2  C   UNL     1       5.179   4.570  17.437  0.00  0.00    +0.000 A 
ATOM      3  C   UNL     1       6.485   4.480  17.943  0.00  0.00    +0.000 A 
ATOM      4  C   UNL     1       7.298   5.615  18.012  0.00  0.00    +0.000 A 
ATOM      5  C   UNL     1       6.810   6.847  17.584  0.00  0.00    +0.000 A 
ATOM      6 BR   UNL     1       7.913   8.381  17.672  0.00  0.00    +0.000 Br
ATOM      7  C   UNL     1       5.515   6.959  17.089  0.00  0.00    +0.000 A 
ATOM      8  C   UNL     1       4.706   5.822  17.014  0.00  0.00    +0.000 A 
ENDBRANCH   1   2
BRANCH   1   9
ATOM      9  N   UNL     1       4.360   2.514  18.515  0.00  0.00    +0.000 NA
ATOM     10  H   UNL     1       5.162   1.891  18.435  0.00  0.00    +0.000 HD
BRANCH   9  11
ATOM     11  C   UNL     1       3.146   1.718  18.689  0.00  0.00    +0.000 C 
BRANCH  11  12
ATOM     12  C   UNL     1       1.986   2.443  18.006  0.00  0.00    +0.000 C 
BRANCH  12  13
ATOM     13  C   UNL     1       0.785   2.560  18.942  0.00  0.00    +0.000 C 
BRANCH  13  15
ATOM     14  C   UNL     1       1.292   4.386  20.582  0.00  0.00    +0.000 C 
ATOM     15  C   UNL     1       1.221   2.883  20.369  0.00  0.00    +0.000 C 
ENDBRANCH  13  15
ENDBRANCH  12  13
ENDBRANCH  11  12
ENDBRANCH   9  11
ENDBRANCH   1   9
TORSDOF 6
ENDMDL
MODEL 7
REMARK VINA RESULT:      -5.6      4.253      6.534
REMARK  Name = 
REMARK  7 active torsions:
REMARK  status: ('A' for Active; 'I' for Inactive)
REMARK    1  A    between atoms: C_1  and  C_2
REMARK    2  A    between atoms: C_2  and  C_3
REMARK    3  A    between atoms: C_3  and  C_4
REMARK    4  A    between atoms: C_4  and  C_5
REMARK    5  A    between atoms: C_5  and  N_6
REMARK    6  A    between atoms: N_6  and  C_7
REMARK    7  A    between atoms: C_7  and  C_8
REMARK                            x       y       z     vdW  Elec       q    Type
REMARK                         _______ _______ _______ _____ _____    ______ ____
ROOT
ATOM      1  C   UNL     1       3.504   2.720  17.722  0.00  0.00    +0.000 C 
ENDROOT
BRANCH   1   2
ATOM      2  C   UNL     1       4.468   3.885  17.721  0.00  0.00    +0.000 A 
ATOM      3  C   UNL     1       5.143   4.278  18.887  0.00  0.00    +0.000 A 
ATOM      4  C   UNL     1       6.059   5.333  18.855  0.00  0.00    +0.000 A 
ATOM      5  C   UNL     1       6.300   6.009  17.662  0.00  0.00    +0.000 A 
ATOM      6 BR   UNL     1       7.544   7.433  17.619  0.00  0.00    +0.000 Br
ATOM      7  C   UNL     1       5.633   5.642  16.497  0.00  0.00    +0.000 A 
ATOM      8  C   UNL     1       4.724   4.582  16.529  0.00  0.00    +0.000 A 
ENDBRANCH   1   2
BRANCH   1   9
ATOM      9  N   UNL     1       2.200   3.098  17.176  0.00  0.00    +0.000 NA
ATOM     10  H   UNL     1       2.338   3.488  16.244  0.00  0.00    +0.000 HD
BRANCH   9  11
ATOM     11  C   UNL     1       1.525   4.086  18.016  0.00  0.00    +0.000 C 
BRANCH  11  12
ATOM     12  C   UNL     1       1.135   3.418  19.336  0.00  0.00    +0.000 C 
BRANCH  12  13
ATOM     13  C   UNL     1       1.284   4.388  20.506  0.00  0.00    +0.000 C 
BRANCH  13  15
ATOM     14  C   UNL     1       1.561   6.864  20.770  0.00  0.00    +0.000 C 
ATOM     15  C   UNL     1       2.113   5.609  20.115  0.00  0.00    +0.000 C 
ENDBRANCH  13  15
ENDBRANCH  12  13
ENDBRANCH  11  12
ENDBRANCH   9  11
ENDBRANCH   1   9
TORSDOF 6
ENDMDL
MODEL 8
REMARK VINA RESULT:      -5.6      4.411      6.225
REMARK  Name = 
REMARK  7 active torsions:
REMARK  status: ('A' for Active; 'I' for Inactive)
REMARK    1  A    between atoms: C_1  and  C_2
REMARK    2  A    between atoms: C_2  and  C_3
REMARK    3  A    between atoms: C_3  and  C_4
REMARK    4  A    between atoms: C_4  and  C_5
REMARK    5  A    between atoms: C_5  and  N_6
REMARK    6  A    between atoms: N_6  and  C_7
REMARK    7  A    between atoms: C_7  and  C_8
REMARK                            x       y       z     vdW  Elec       q    Type
REMARK                         _______ _______ _______ _____ _____    ______ ____
ROOT
ATOM      1  C   UNL     1       4.752   3.427  16.845  0.00  0.00    +0.000 C 
ENDROOT
BRANCH   1   2
ATOM      2  C   UNL     1       5.560   4.687  17.063  0.00  0.00    +0.000 A 
ATOM      3  C   UNL     1       5.097   5.937  16.623  0.00  0.00    +0.000 A 
ATOM      4  C   UNL     1       5.841   7.095  16.868  0.00  0.00    +0.000 A 
ATOM      5  C   UNL     1       7.055   7.011  17.546  0.00  0.00    +0.000 A 
ATOM      6 BR   UNL     1       8.057   8.579  17.882  0.00  0.00    +0.000 Br
ATOM      7  C   UNL     1       7.535   5.780  17.981  0.00  0.00    +0.000 A 
ATOM      8  C   UNL     1       6.787   4.625  17.742  0.00  0.00    +0.000 A 
ENDBRANCH   1   2
BRANCH   1   9
ATOM      9  N   UNL     1       4.153   2.949  18.091  0.00  0.00    +0.000 NA
ATOM     10  H   UNL     1       4.740   2.207  18.471  0.00  0.00    +0.000 HD
BRANCH   9  11
ATOM     11  C   UNL     1       2.801   2.434  17.881  0.00  0.00    +0.000 C 
BRANCH  11  12
ATOM     12  C   UNL     1       1.817   3.603  17.956  0.00  0.00    +0.000 C 
BRANCH  12  13
ATOM     13  C   UNL     1       1.942   4.340  19.287  0.00  0.00    +0.000 C 
BRANCH  13  15
ATOM     14  C   UNL     1       1.563   2.959  21.344  0.00  0.00    +0.000 C 
ATOM     15  C   UNL     1       0.909   3.845  20.297  0.00  0.00    +0.000 C 
ENDBRANCH  13  15
ENDBRANCH  12  13
ENDBRANCH  11  12
ENDBRANCH   9  11
ENDBRANCH   1   9
TORSDOF 6
ENDMDL
MODEL 9
REMARK VINA RESULT:      -5.6      4.078      6.755
REMARK  Name = 
REMARK  7 active torsions:
REMARK  status: ('A' for Active; 'I' for Inactive)
REMARK    1  A    between atoms: C_1  and  C_2
REMARK    2  A    between atoms: C_2  and  C_3
REMARK    3  A    between atoms: C_3  and  C_4
REMARK    4  A    between atoms: C_4  and  C_5
REMARK    5  A    between atoms: C_5  and  N_6
REMARK    6  A    between atoms: N_6  and  C_7
REMARK    7  A    between atoms: C_7  and  C_8
REMARK                            x       y       z     vdW  Elec       q    Type
REMARK                         _______ _______ _______ _____ _____    ______ ____
ROOT
ATOM      1  C   UNL     1       3.656   6.172  19.211  0.00  0.00    +0.000 C 
ENDROOT
BRANCH   1   2
ATOM      2  C   UNL     1       4.250   5.675  17.912  0.00  0.00    +0.000 A 
ATOM      3  C   UNL     1       4.716   6.566  16.932  0.00  0.00    +0.000 A 
ATOM      4  C   UNL     1       5.297   6.085  15.755  0.00  0.00    +0.000 A 
ATOM      5  C   UNL     1       5.408   4.713  15.545  0.00  0.00    +0.000 A 
ATOM      6 BR   UNL     1       6.199   4.063  13.955  0.00  0.00    +0.000 Br
ATOM      7  C   UNL     1       4.943   3.813  16.499  0.00  0.00    +0.000 A 
ATOM      8  C   UNL     1       4.369   4.295  17.678  0.00  0.00    +0.000 A 
ENDBRANCH   1   2
BRANCH   1   9
ATOM      9  N   UNL     1       2.209   5.967  19.255  0.00  0.00    +0.000 NA
ATOM     10  H   UNL     1       1.748   6.831  18.970  0.00  0.00    +0.000 HD
BRANCH   9  11
ATOM     11  C   UNL     1       1.752   5.597  20.593  0.00  0.00    +0.000 C 
BRANCH  11  12
ATOM     12  C   UNL     1       2.387   4.257  20.971  0.00  0.00    +0.000 C 
BRANCH  12  13
ATOM     13  C   UNL     1       1.336   3.151  21.031  0.00  0.00    +0.000 C 
BRANCH  13  15
ATOM     14  C   UNL     1       1.714   2.116  18.780  0.00  0.00    +0.000 C 
ATOM     15  C   UNL     1       0.733   2.880  19.655  0.00  0.00    +0.000 C 
ENDBRANCH  13  15
ENDBRANCH  12  13
ENDBRANCH  11  12
ENDBRANCH   9  11
ENDBRANCH   1   9
TORSDOF 6
ENDMDL
