MODEL 1
REMARK VINA RESULT:      -6.6      0.000      0.000
REMARK  Name = 
REMARK  3 active torsions:
REMARK  status: ('A' for Active; 'I' for Inactive)
REMARK    1  A    between atoms: C_1  and  N_2
REMARK    2  A    between atoms: C_5  and  C_6
REMARK    3  A    between atoms: C_6  and  C_7
REMARK                            x       y       z     vdW  Elec       q    Type
REMARK                         _______ _______ _______ _____ _____    ______ ____
ROOT
ATOM      1  C   UNL     1       6.509   4.381  14.480  0.00  0.00    +0.000 C 
ATOM      2  N   UNL     1       5.654   4.805  15.601  0.00  0.00    +0.000 N 
ATOM      3  C   UNL     1       5.122   3.885  16.435  0.00  0.00    +0.000 A 
ATOM      4  C   UNL     1       4.223   4.267  17.430  0.00  0.00    +0.000 A 
ATOM      5  C   UNL     1       3.863   5.609  17.562  0.00  0.00    +0.000 A 
ATOM      6  C   UNL     1       4.480   6.545  16.730  0.00  0.00    +0.000 A 
ATOM      7  C   UNL     1       5.371   6.120  15.750  0.00  0.00    +0.000 A 
ENDROOT
BRANCH   5   8
ATOM      8  C   UNL     1       2.788   6.029  18.540  0.00  0.00    +0.000 C 
BRANCH   8   9
ATOM      9  C   UNL     1       2.195   4.921  19.372  0.00  0.00    +0.000 A 
ATOM     10  C   UNL     1       1.317   3.991  18.798  0.00  0.00    +0.000 A 
ATOM     11  C   UNL     1       0.840   2.911  19.545  0.00  0.00    +0.000 A 
ATOM     12  C   UNL     1       1.227   2.755  20.873  0.00  0.00    +0.000 A 
ATOM     13  C   UNL     1       2.083   3.684  21.461  0.00  0.00    +0.000 A 
ATOM     14  C   UNL     1       2.562   4.764  20.717  0.00  0.00    +0.000 A 
ENDBRANCH   8   9
ENDBRANCH   5   8
TORSDOF 2
ENDMDL
MODEL 2
REMARK VINA RESULT:      -6.5      0.663      1.379
REMARK  Name = 
REMARK  3 active torsions:
REMARK  status: ('A' for Active; 'I' for Inactive)
REMARK    1  A    between atoms: C_1  and  N_2
REMARK    2  A    between atoms: C_5  and  C_6
REMARK    3  A    between atoms: C_6  and  C_7
REMARK                            x       y       z     vdW  Elec       q    Type
REMARK                         _______ _______ _______ _____ _____    ______ ____
ROOT
ATOM      1  C   UNL     1       7.338   4.750  15.797  0.00  0.00    +0.000 C 
ATOM      2  N   UNL     1       6.004   5.059  16.337  0.00  0.00    +0.000 N 
ATOM      3  C   UNL     1       5.706   6.316  16.733  0.00  0.00    +0.000 A 
ATOM      4  C   UNL     1       4.486   6.595  17.347  0.00  0.00    +0.000 A 
ATOM      5  C   UNL     1       3.566   5.568  17.562  0.00  0.00    +0.000 A 
ATOM      6  C   UNL     1       3.873   4.293  17.081  0.00  0.00    +0.000 A 
ATOM      7  C   UNL     1       5.102   4.059  16.474  0.00  0.00    +0.000 A 
ENDROOT
BRANCH   5   8
ATOM      8  C   UNL     1       2.298   5.816  18.348  0.00  0.00    +0.000 C 
BRANCH   8   9
ATOM      9  C   UNL     1       1.942   4.760  19.361  0.00  0.00    +0.000 A 
ATOM     10  C   UNL     1       1.136   3.670  19.000  0.00  0.00    +0.000 A 
ATOM     11  C   UNL     1       0.882   2.643  19.914  0.00  0.00    +0.000 A 
ATOM     12  C   UNL     1       1.420   2.700  21.196  0.00  0.00    +0.000 A 
ATOM     13  C   UNL     1       2.205   3.788  21.573  0.00  0.00    +0.000 A 
ATOM     14  C   UNL     1       2.462   4.815  20.662  0.00  0.00    +0.000 A 
ENDBRANCH   8   9
ENDBRANCH   5   8
TORSDOF 2
ENDMDL
MODEL 3
REMARK VINA RESULT:      -6.5      0.564      1.861
REMARK  Name = 
REMARK  3 active torsions:
REMARK  status: ('A' for Active; 'I' for Inactive)
REMARK    1  A    between atoms: C_1  and  N_2
REMARK    2  A    between atoms: C_5  and  C_6
REMARK    3  A    between atoms: C_6  and  C_7
REMARK                            x       y       z     vdW  Elec       q    Type
REMARK                         _______ _______ _______ _____ _____    ______ ____
ROOT
ATOM      1  C   UNL     1       7.285   4.865  15.521  0.00  0.00    +0.000 C 
ATOM      2  N   UNL     1       5.991   5.156  16.159  0.00  0.00    +0.000 N 
ATOM      3  C   UNL     1       5.685   6.419  16.531  0.00  0.00    +0.000 A 
ATOM      4  C   UNL     1       4.512   6.685  17.235  0.00  0.00    +0.000 A 
ATOM      5  C   UNL     1       3.647   5.640  17.564  0.00  0.00    +0.000 A 
ATOM      6  C   UNL     1       3.955   4.357  17.107  0.00  0.00    +0.000 A 
ATOM      7  C   UNL     1       5.137   4.136  16.408  0.00  0.00    +0.000 A 
ENDROOT
BRANCH   5   8
ATOM      8  C   UNL     1       2.441   5.882  18.444  0.00  0.00    +0.000 C 
BRANCH   8   9
ATOM      9  C   UNL     1       2.088   4.762  19.388  0.00  0.00    +0.000 A 
ATOM     10  C   UNL     1       2.618   4.731  20.686  0.00  0.00    +0.000 A 
ATOM     11  C   UNL     1       2.220   3.743  21.591  0.00  0.00    +0.000 A 
ATOM     12  C   UNL     1       1.297   2.775  21.206  0.00  0.00    +0.000 A 
ATOM     13  C   UNL     1       0.778   2.783  19.913  0.00  0.00    +0.000 A 
ATOM     14  C   UNL     1       1.174   3.769  19.007  0.00  0.00    +0.000 A 
ENDBRANCH   8   9
ENDBRANCH   5   8
TORSDOF 2
ENDMDL
MODEL 4
REMARK VINA RESULT:      -6.4      1.404      2.356
REMARK  Name = 
REMARK  3 active torsions:
REMARK  status: ('A' for Active; 'I' for Inactive)
REMARK    1  A    between atoms: C_1  and  N_2
REMARK    2  A    between atoms: C_5  and  C_6
REMARK    3  A    between atoms: C_6  and  C_7
REMARK                            x       y       z     vdW  Elec       q    Type
REMARK                         _______ _______ _______ _____ _____    ______ ____
ROOT
ATOM      1  C   UNL     1       7.412   7.030  17.066  0.00  0.00    +0.000 C 
ATOM      2  N   UNL     1       6.255   6.122  16.996  0.00  0.00    +0.000 N 
ATOM      3  C   UNL     1       5.038   6.539  17.409  0.00  0.00    +0.000 A 
ATOM      4  C   UNL     1       3.962   5.653  17.451  0.00  0.00    +0.000 A 
ATOM      5  C   UNL     1       4.143   4.323  17.071  0.00  0.00    +0.000 A 
ATOM      6  C   UNL     1       5.394   3.937  16.585  0.00  0.00    +0.000 A 
ATOM      7  C   UNL     1       6.440   4.854  16.561  0.00  0.00    +0.000 A 
ENDROOT
BRANCH   5   8
ATOM      8  C   UNL     1       3.031   3.312  17.238  0.00  0.00    +0.000 C 
BRANCH   8   9
ATOM      9  C   UNL     1       2.488   3.166  18.636  0.00  0.00    +0.000 A 
ATOM     10  C   UNL     1       3.327   2.772  19.688  0.00  0.00    +0.000 A 
ATOM     11  C   UNL     1       2.845   2.725  21.000  0.00  0.00    +0.000 A 
ATOM     12  C   UNL     1       1.522   3.063  21.270  0.00  0.00    +0.000 A 
ATOM     13  C   UNL     1       0.673   3.436  20.230  0.00  0.00    +0.000 A 
ATOM     14  C   UNL     1       1.151   3.484  18.919  0.00  0.00    +0.000 A 
ENDBRANCH   8   9
ENDBRANCH   5   8
TORSDOF 2
ENDMDL
MODEL 5
REMARK VINA RESULT:      -6.4      1.823      2.440
REMARK  Name = 
REMARK  3 active torsions:
REMARK  status: ('A' for Active; 'I' for Inactive)
REMARK    1  A    between atoms: C_1  and  N_2
REMARK    2  A    between atoms: C_5  and  C_6
REMARK    3  A    between atoms: C_6  and  C_7
REMARK                            x       y       z     vdW  Elec       q    Type
REMARK                         _______ _______ _______ _____ _____    ______ ____
ROOT
ATOM      1  C   UNL     1       7.618   7.689  17.473  0.00  0.00    +0.000 C 
ATOM      2  N   UNL     1       6.585   6.653  17.640  0.00  0.00    +0.000 N 
ATOM      3  C   UNL     1       6.746   5.676  18.560  0.00  0.00    +0.000 A 
ATOM      4  C   UNL     1       5.828   4.631  18.650  0.00  0.00    +0.000 A 
ATOM      5  C   UNL     1       4.739   4.587  17.779  0.00  0.00    +0.000 A 
ATOM      6  C   UNL     1       4.562   5.645  16.885  0.00  0.00    +0.000 A 
ATOM      7  C   UNL     1       5.503   6.668  16.829  0.00  0.00    +0.000 A 
ENDROOT
BRANCH   5   8
ATOM      8  C   UNL     1       3.808   3.394  17.763  0.00  0.00    +0.000 C 
BRANCH   8   9
ATOM      9  C   UNL     1       2.922   3.244  18.972  0.00  0.00    +0.000 A 
ATOM     10  C   UNL     1       3.407   2.640  20.141  0.00  0.00    +0.000 A 
ATOM     11  C   UNL     1       2.615   2.583  21.291  0.00  0.00    +0.000 A 
ATOM     12  C   UNL     1       1.330   3.120  21.281  0.00  0.00    +0.000 A 
ATOM     13  C   UNL     1       0.829   3.703  20.120  0.00  0.00    +0.000 A 
ATOM     14  C   UNL     1       1.618   3.762  18.969  0.00  0.00    +0.000 A 
ENDBRANCH   8   9
ENDBRANCH   5   8
TORSDOF 2
ENDMDL
MODEL 6
REMARK VINA RESULT:      -6.4      2.667      5.529
REMARK  Name = 
REMARK  3 active torsions:
REMARK  status: ('A' for Active; 'I' for Inactive)
REMARK    1  A    between atoms: C_1  and  N_2
REMARK    2  A    between atoms: C_5  and  C_6
REMARK    3  A    between atoms: C_6  and  C_7
REMARK                            x       y       z     vdW  Elec       q    Type
REMARK                         _______ _______ _______ _____ _____    ______ ____
ROOT
ATOM      1  C   UNL     1       1.510   2.621  21.640  0.00  0.00    +0.000 C 
ATOM      2  N   UNL     1       2.037   3.407  20.512  0.00  0.00    +0.000 N 
ATOM      3  C   UNL     1       2.537   2.782  19.423  0.00  0.00    +0.000 A 
ATOM      4  C   UNL     1       3.138   3.515  18.400  0.00  0.00    +0.000 A 
ATOM      5  C   UNL     1       3.231   4.903  18.503  0.00  0.00    +0.000 A 
ATOM      6  C   UNL     1       2.646   5.527  19.606  0.00  0.00    +0.000 A 
ATOM      7  C   UNL     1       2.057   4.757  20.604  0.00  0.00    +0.000 A 
ENDROOT
BRANCH   5   8
ATOM      8  C   UNL     1       3.999   5.705  17.475  0.00  0.00    +0.000 C 
BRANCH   8   9
ATOM      9  C   UNL     1       5.433   6.007  17.824  0.00  0.00    +0.000 A 
ATOM     10  C   UNL     1       6.142   6.998  17.131  0.00  0.00    +0.000 A 
ATOM     11  C   UNL     1       7.442   7.341  17.515  0.00  0.00    +0.000 A 
ATOM     12  C   UNL     1       8.047   6.691  18.586  0.00  0.00    +0.000 A 
ATOM     13  C   UNL     1       7.362   5.689  19.270  0.00  0.00    +0.000 A 
ATOM     14  C   UNL     1       6.063   5.345  18.889  0.00  0.00    +0.000 A 
ENDBRANCH   8   9
ENDBRANCH   5   8
TORSDOF 2
ENDMDL
MODEL 7
REMARK VINA RESULT:      -6.4      3.405      4.931
REMARK  Name = 
REMARK  3 active torsions:
REMARK  status: ('A' for Active; 'I' for Inactive)
REMARK    1  A    between atoms: C_1  and  N_2
REMARK    2  A    between atoms: C_5  and  C_6
REMARK    3  A    between atoms: C_6  and  C_7
REMARK                            x       y       z     vdW  Elec       q    Type
REMARK                         _______ _______ _______ _____ _____    ______ ____
ROOT
ATOM      1  C   UNL     1       0.208  11.535  19.088  0.00  0.00    +0.000 C 
ATOM      2  N   UNL     1       0.797  10.187  19.151  0.00  0.00    +0.000 N 
ATOM      3  C   UNL     1       0.840   9.518  20.324  0.00  0.00    +0.000 A 
ATOM      4  C   UNL     1       1.494   8.291  20.416  0.00  0.00    +0.000 A 
ATOM      5  C   UNL     1       2.117   7.750  19.290  0.00  0.00    +0.000 A 
ATOM      6  C   UNL     1       1.998   8.430  18.077  0.00  0.00    +0.000 A 
ATOM      7  C   UNL     1       1.337   9.653  18.030  0.00  0.00    +0.000 A 
ENDROOT
BRANCH   5   8
ATOM      8  C   UNL     1       2.949   6.491  19.396  0.00  0.00    +0.000 C 
BRANCH   8   9
ATOM      9  C   UNL     1       2.177   5.197  19.381  0.00  0.00    +0.000 A 
ATOM     10  C   UNL     1       1.945   4.519  18.176  0.00  0.00    +0.000 A 
ATOM     11  C   UNL     1       1.310   3.274  18.173  0.00  0.00    +0.000 A 
ATOM     12  C   UNL     1       0.893   2.701  19.371  0.00  0.00    +0.000 A 
ATOM     13  C   UNL     1       1.098   3.374  20.574  0.00  0.00    +0.000 A 
ATOM     14  C   UNL     1       1.733   4.618  20.579  0.00  0.00    +0.000 A 
ENDBRANCH   8   9
ENDBRANCH   5   8
TORSDOF 2
ENDMDL
MODEL 8
REMARK VINA RESULT:      -6.3      2.688      5.599
REMARK  Name = 
REMARK  3 active torsions:
REMARK  status: ('A' for Active; 'I' for Inactive)
REMARK    1  A    between atoms: C_1  and  N_2
REMARK    2  A    between atoms: C_5  and  C_6
REMARK    3  A    between atoms: C_6  and  C_7
REMARK                            x       y       z     vdW  Elec       q    Type
REMARK                         _______ _______ _______ _____ _____    ______ ____
ROOT
ATOM      1  C   UNL     1       1.436   2.797  21.369  0.00  0.00    +0.000 C 
ATOM      2  N   UNL     1       2.141   3.333  20.193  0.00  0.00    +0.000 N 
ATOM      3  C   UNL     1       2.987   2.546  19.492  0.00  0.00    +0.000 A 
ATOM      4  C   UNL     1       3.743   3.074  18.446  0.00  0.00    +0.000 A 
ATOM      5  C   UNL     1       3.631   4.428  18.124  0.00  0.00    +0.000 A 
ATOM      6  C   UNL     1       2.700   5.200  18.821  0.00  0.00    +0.000 A 
ATOM      7  C   UNL     1       1.967   4.632  19.858  0.00  0.00    +0.000 A 
ENDROOT
BRANCH   5   8
ATOM      8  C   UNL     1       4.539   5.054  17.088  0.00  0.00    +0.000 C 
BRANCH   8   9
ATOM      9  C   UNL     1       5.751   5.765  17.629  0.00  0.00    +0.000 A 
ATOM     10  C   UNL     1       6.473   5.227  18.705  0.00  0.00    +0.000 A 
ATOM     11  C   UNL     1       7.649   5.839  19.147  0.00  0.00    +0.000 A 
ATOM     12  C   UNL     1       8.110   6.996  18.526  0.00  0.00    +0.000 A 
ATOM     13  C   UNL     1       7.391   7.553  17.470  0.00  0.00    +0.000 A 
ATOM     14  C   UNL     1       6.216   6.943  17.026  0.00  0.00    +0.000 A 
ENDBRANCH   8   9
ENDBRANCH   5   8
TORSDOF 2
ENDMDL
MODEL 9
REMARK VINA RESULT:      -6.3      1.374      1.697
REMARK  Name = 
REMARK  3 active torsions:
REMARK  status: ('A' for Active; 'I' for Inactive)
REMARK    1  A    between atoms: C_1  and  N_2
REMARK    2  A    between atoms: C_5  and  C_6
REMARK    3  A    between atoms: C_6  and  C_7
REMARK                            x       y       z     vdW  Elec       q    Type
REMARK                         _______ _______ _______ _____ _____    ______ ____
ROOT
ATOM      1  C   UNL     1       6.958   4.825  14.336  0.00  0.00    +0.000 C 
ATOM      2  N   UNL     1       6.391   5.064  15.673  0.00  0.00    +0.000 N 
ATOM      3  C   UNL     1       6.993   4.552  16.768  0.00  0.00    +0.000 A 
ATOM      4  C   UNL     1       6.404   4.679  18.026  0.00  0.00    +0.000 A 
ATOM      5  C   UNL     1       5.179   5.334  18.155  0.00  0.00    +0.000 A 
ATOM      6  C   UNL     1       4.613   5.912  17.016  0.00  0.00    +0.000 A 
ATOM      7  C   UNL     1       5.235   5.761  15.781  0.00  0.00    +0.000 A 
ENDROOT
BRANCH   5   8
ATOM      8  C   UNL     1       4.454   5.365  19.482  0.00  0.00    +0.000 C 
BRANCH   8   9
ATOM      9  C   UNL     1       3.237   4.481  19.580  0.00  0.00    +0.000 A 
ATOM     10  C   UNL     1       2.131   4.875  20.346  0.00  0.00    +0.000 A 
ATOM     11  C   UNL     1       0.968   4.099  20.363  0.00  0.00    +0.000 A 
ATOM     12  C   UNL     1       0.904   2.921  19.624  0.00  0.00    +0.000 A 
ATOM     13  C   UNL     1       2.004   2.509  18.875  0.00  0.00    +0.000 A 
ATOM     14  C   UNL     1       3.167   3.282  18.856  0.00  0.00    +0.000 A 
ENDBRANCH   8   9
ENDBRANCH   5   8
TORSDOF 2
ENDMDL
