MODEL 1
REMARK VINA RESULT:      -8.1      0.000      0.000
REMARK  Name = 
REMARK  8 active torsions:
REMARK  status: ('A' for Active; 'I' for Inactive)
REMARK    1  A    between atoms: C_1  and  O_2
REMARK    2  A    between atoms: O_2  and  C_3
REMARK    3  A    between atoms: C_6  and  C_7
REMARK    4  A    between atoms: C_7  and  C_9
REMARK    5  A    between atoms: N_12  and  C_13
REMARK    6  A    between atoms: N_16  and  C_17
REMARK    7  A    between atoms: C_17  and  C_18
REMARK    8  A    between atoms: C_26  and  O_27
REMARK                            x       y       z     vdW  Elec       q    Type
REMARK                         _______ _______ _______ _____ _____    ______ ____
ROOT
ATOM      1  C   UNL     1       6.219   6.023  18.250  0.00  0.00    +0.000 C 
ATOM      2  C   UNL     1       5.184   5.477  19.221  0.00  0.00    +0.000 C 
ATOM      3  C   UNL     1       3.789   5.433  18.650  0.00  0.00    +0.000 C 
ATOM      4  N   UNL     1       3.419   6.674  17.990  0.00  0.00    +0.000 NA
ATOM      5  C   UNL     1       4.244   6.973  16.846  0.00  0.00    +0.000 C 
ATOM      6  C   UNL     1       5.727   7.008  17.165  0.00  0.00    +0.000 C 
ENDROOT
BRANCH   4   7
ATOM      7  C   UNL     1       2.803   7.773  18.743  0.00  0.00    +0.000 C 
ATOM      8  C   UNL     1       2.379   8.774  17.669  0.00  0.00    +0.000 C 
ATOM      9  C   UNL     1       1.910  10.048  18.300  0.00  0.00    +0.000 C 
ATOM     10  N   UNL     1       0.636   9.719  18.940  0.00  0.00    +0.000 NA
ATOM     11  C   UNL     1       0.873   8.876  20.123  0.00  0.00    +0.000 C 
ATOM     12  C   UNL     1       1.627   7.541  19.757  0.00  0.00    +0.000 C 
BRANCH  12  13
ATOM     13  O   UNL     1       2.107   6.917  20.961  0.00  0.00    +0.000 OA
ATOM     14  H   UNL     1       3.041   6.680  20.827  0.00  0.00    +0.000 HD
ENDBRANCH  12  13
BRANCH  10  15
ATOM     15  C   UNL     1      -0.099  10.964  19.124  0.00  0.00    +0.000 C 
BRANCH  15  16
ATOM     16  C   UNL     1      -1.490  11.010  18.558  0.00  0.00    +0.000 A 
ATOM     17  C   UNL     1      -1.855  10.063  17.589  0.00  0.00    +0.000 A 
ATOM     18  C   UNL     1      -3.170   9.988  17.133  0.00  0.00    +0.000 A 
ATOM     19  C   UNL     1      -4.116  10.858  17.653  0.00  0.00    +0.000 A 
ATOM     20  F   UNL     1      -5.384  10.772  17.234  0.00  0.00    +0.000 F 
ATOM     21  C   UNL     1      -3.781  11.802  18.622  0.00  0.00    +0.000 A 
ATOM     22  C   UNL     1      -2.467  11.878  19.078  0.00  0.00    +0.000 A 
ENDBRANCH  15  16
ENDBRANCH  10  15
ENDBRANCH   4   7
BRANCH   1  23
ATOM     23  C   UNL     1       7.040   4.911  17.602  0.00  0.00    +0.000 C 
ATOM     24  O   UNL     1       7.946   4.322  18.187  0.00  0.00    +0.000 OA
BRANCH  23  28
ATOM     25  C   UNL     1       5.992   3.878  13.547  0.00  0.00    +0.000 A 
ATOM     26  C   UNL     1       5.253   3.376  14.626  0.00  0.00    +0.000 A 
ATOM     27  C   UNL     1       5.582   3.719  15.950  0.00  0.00    +0.000 A 
ATOM     28  C   UNL     1       6.679   4.542  16.197  0.00  0.00    +0.000 A 
ATOM     29  C   UNL     1       7.430   5.020  15.115  0.00  0.00    +0.000 A 
ATOM     30  C   UNL     1       7.103   4.682  13.806  0.00  0.00    +0.000 A 
BRANCH  25  32
ATOM     31  C   UNL     1       6.407   2.533  11.668  0.00  0.00    +0.000 C 
ATOM     32  O   UNL     1       5.585   3.509  12.305  0.00  0.00    +0.000 OA
ENDBRANCH  25  32
ENDBRANCH  23  28
ENDBRANCH   1  23
TORSDOF 7
ENDMDL
MODEL 2
REMARK VINA RESULT:      -8.1      1.184      1.592
REMARK  Name = 
REMARK  8 active torsions:
REMARK  status: ('A' for Active; 'I' for Inactive)
REMARK    1  A    between atoms: C_1  and  O_2
REMARK    2  A    between atoms: O_2  and  C_3
REMARK    3  A    between atoms: C_6  and  C_7
REMARK    4  A    between atoms: C_7  and  C_9
REMARK    5  A    between atoms: N_12  and  C_13
REMARK    6  A    between atoms: N_16  and  C_17
REMARK    7  A    between atoms: C_17  and  C_18
REMARK    8  A    between atoms: C_26  and  O_27
REMARK                            x       y       z     vdW  Elec       q    Type
REMARK                         _______ _______ _______ _____ _____    ______ ____
ROOT
ATOM      1  C   UNL     1       4.607   5.502  19.263  0.00  0.00    +0.000 C 
ATOM      2  C   UNL     1       3.138   5.302  19.603  0.00  0.00    +0.000 C 
ATOM      3  C   UNL     1       2.199   5.876  18.572  0.00  0.00    +0.000 C 
ATOM      4  N   UNL     1       2.563   7.229  18.182  0.00  0.00    +0.000 NA
ATOM      5  C   UNL     1       3.853   7.306  17.546  0.00  0.00    +0.000 C 
ATOM      6  C   UNL     1       4.974   6.717  18.381  0.00  0.00    +0.000 C 
ENDROOT
BRANCH   4   7
ATOM      7  C   UNL     1       2.052   8.389  18.924  0.00  0.00    +0.000 C 
ATOM      8  C   UNL     1       1.314   9.213  17.870  0.00  0.00    +0.000 C 
ATOM      9  C   UNL     1       0.905  10.537  18.437  0.00  0.00    +0.000 C 
ATOM     10  N   UNL     1      -0.157  10.236  19.399  0.00  0.00    +0.000 NA
ATOM     11  C   UNL     1       0.412   9.574  20.583  0.00  0.00    +0.000 C 
ATOM     12  C   UNL     1       1.164   8.239  20.210  0.00  0.00    +0.000 C 
BRANCH  12  13
ATOM     13  O   UNL     1       1.957   7.808  21.330  0.00  0.00    +0.000 OA
ATOM     14  H   UNL     1       1.374   7.335  21.949  0.00  0.00    +0.000 HD
ENDBRANCH  12  13
BRANCH  10  15
ATOM     15  C   UNL     1      -0.925  11.458  19.602  0.00  0.00    +0.000 C 
BRANCH  15  16
ATOM     16  C   UNL     1      -2.310  11.483  19.019  0.00  0.00    +0.000 A 
ATOM     17  C   UNL     1      -2.624  10.582  17.989  0.00  0.00    +0.000 A 
ATOM     18  C   UNL     1      -3.928  10.484  17.510  0.00  0.00    +0.000 A 
ATOM     19  C   UNL     1      -4.915  11.282  18.066  0.00  0.00    +0.000 A 
ATOM     20  F   UNL     1      -6.174  11.172  17.623  0.00  0.00    +0.000 F 
ATOM     21  C   UNL     1      -4.631  12.178  19.094  0.00  0.00    +0.000 A 
ATOM     22  C   UNL     1      -3.327  12.279  19.575  0.00  0.00    +0.000 A 
ENDBRANCH  15  16
ENDBRANCH  10  15
ENDBRANCH   4   7
BRANCH   1  23
ATOM     23  C   UNL     1       5.239   4.237  18.687  0.00  0.00    +0.000 C 
ATOM     24  O   UNL     1       5.397   3.210  19.343  0.00  0.00    +0.000 OA
BRANCH  23  28
ATOM     25  C   UNL     1       6.427   4.358  14.542  0.00  0.00    +0.000 A 
ATOM     26  C   UNL     1       7.362   4.583  15.560  0.00  0.00    +0.000 A 
ATOM     27  C   UNL     1       6.984   4.533  16.914  0.00  0.00    +0.000 A 
ATOM     28  C   UNL     1       5.654   4.290  17.250  0.00  0.00    +0.000 A 
ATOM     29  C   UNL     1       4.718   4.092  16.226  0.00  0.00    +0.000 A 
ATOM     30  C   UNL     1       5.093   4.140  14.888  0.00  0.00    +0.000 A 
BRANCH  25  32
ATOM     31  C   UNL     1       6.282   3.481  12.369  0.00  0.00    +0.000 C 
ATOM     32  O   UNL     1       6.892   4.406  13.266  0.00  0.00    +0.000 OA
ENDBRANCH  25  32
ENDBRANCH  23  28
ENDBRANCH   1  23
TORSDOF 7
ENDMDL
MODEL 3
REMARK VINA RESULT:      -7.5      4.925     11.263
REMARK  Name = 
REMARK  8 active torsions:
REMARK  status: ('A' for Active; 'I' for Inactive)
REMARK    1  A    between atoms: C_1  and  O_2
REMARK    2  A    between atoms: O_2  and  C_3
REMARK    3  A    between atoms: C_6  and  C_7
REMARK    4  A    between atoms: C_7  and  C_9
REMARK    5  A    between atoms: N_12  and  C_13
REMARK    6  A    between atoms: N_16  and  C_17
REMARK    7  A    between atoms: C_17  and  C_18
REMARK    8  A    between atoms: C_26  and  O_27
REMARK                            x       y       z     vdW  Elec       q    Type
REMARK                         _______ _______ _______ _____ _____    ______ ____
ROOT
ATOM      1  C   UNL     1      -0.474  13.426  22.187  0.00  0.00    +0.000 C 
ATOM      2  C   UNL     1      -0.104  13.586  20.720  0.00  0.00    +0.000 C 
ATOM      3  C   UNL     1      -0.706  12.527  19.830  0.00  0.00    +0.000 C 
ATOM      4  N   UNL     1      -0.534  11.187  20.367  0.00  0.00    +0.000 NA
ATOM      5  C   UNL     1      -1.205  10.992  21.627  0.00  0.00    +0.000 C 
ATOM      6  C   UNL     1      -0.804  12.001  22.686  0.00  0.00    +0.000 C 
ENDROOT
BRANCH   4   7
ATOM      7  C   UNL     1       0.668  10.402  20.060  0.00  0.00    +0.000 C 
ATOM      8  C   UNL     1       0.498   9.120  20.875  0.00  0.00    +0.000 C 
ATOM      9  C   UNL     1       1.749   8.299  20.821  0.00  0.00    +0.000 C 
ATOM     10  N   UNL     1       1.819   7.790  19.450  0.00  0.00    +0.000 NA
ATOM     11  C   UNL     1       2.148   8.885  18.525  0.00  0.00    +0.000 C 
ATOM     12  C   UNL     1       1.089  10.052  18.588  0.00  0.00    +0.000 C 
BRANCH  12  13
ATOM     13  O   UNL     1       1.614  11.211  17.918  0.00  0.00    +0.000 OA
ATOM     14  H   UNL     1       2.558  11.056  17.739  0.00  0.00    +0.000 HD
ENDBRANCH  12  13
BRANCH  10  15
ATOM     15  C   UNL     1       2.688   6.619  19.460  0.00  0.00    +0.000 C 
BRANCH  15  16
ATOM     16  C   UNL     1       2.018   5.287  19.269  0.00  0.00    +0.000 A 
ATOM     17  C   UNL     1       2.061   4.687  18.001  0.00  0.00    +0.000 A 
ATOM     18  C   UNL     1       1.566   3.399  17.812  0.00  0.00    +0.000 A 
ATOM     19  C   UNL     1       1.035   2.713  18.893  0.00  0.00    +0.000 A 
ATOM     20  F   UNL     1       0.581   1.466  18.719  0.00  0.00    +0.000 F 
ATOM     21  C   UNL     1       0.988   3.283  20.164  0.00  0.00    +0.000 A 
ATOM     22  C   UNL     1       1.482   4.572  20.355  0.00  0.00    +0.000 A 
ENDBRANCH  15  16
ENDBRANCH  10  15
ENDBRANCH   4   7
BRANCH   1  23
ATOM     23  C   UNL     1      -1.581  14.390  22.607  0.00  0.00    +0.000 C 
ATOM     24  O   UNL     1      -1.402  15.598  22.735  0.00  0.00    +0.000 OA
BRANCH  23  28
ATOM     25  C   UNL     1      -5.491  12.699  23.283  0.00  0.00    +0.000 A 
ATOM     26  C   UNL     1      -4.606  12.901  24.350  0.00  0.00    +0.000 A 
ATOM     27  C   UNL     1      -3.334  13.463  24.138  0.00  0.00    +0.000 A 
ATOM     28  C   UNL     1      -2.933  13.794  22.845  0.00  0.00    +0.000 A 
ATOM     29  C   UNL     1      -3.814  13.565  21.779  0.00  0.00    +0.000 A 
ATOM     30  C   UNL     1      -5.072  13.011  21.990  0.00  0.00    +0.000 A 
BRANCH  25  32
ATOM     31  C   UNL     1      -7.806  12.745  22.889  0.00  0.00    +0.000 C 
ATOM     32  O   UNL     1      -6.705  12.171  23.591  0.00  0.00    +0.000 OA
ENDBRANCH  25  32
ENDBRANCH  23  28
ENDBRANCH   1  23
TORSDOF 7
ENDMDL
MODEL 4
REMARK VINA RESULT:      -7.5      2.581      3.169
REMARK  Name = 
REMARK  8 active torsions:
REMARK  status: ('A' for Active; 'I' for Inactive)
REMARK    1  A    between atoms: C_1  and  O_2
REMARK    2  A    between atoms: O_2  and  C_3
REMARK    3  A    between atoms: C_6  and  C_7
REMARK    4  A    between atoms: C_7  and  C_9
REMARK    5  A    between atoms: N_12  and  C_13
REMARK    6  A    between atoms: N_16  and  C_17
REMARK    7  A    between atoms: C_17  and  C_18
REMARK    8  A    between atoms: C_26  and  O_27
REMARK                            x       y       z     vdW  Elec       q    Type
REMARK                         _______ _______ _______ _____ _____    ______ ____
ROOT
ATOM      1  C   UNL     1       4.644   5.643  19.316  0.00  0.00    +0.000 C 
ATOM      2  C   UNL     1       3.234   5.467  19.857  0.00  0.00    +0.000 C 
ATOM      3  C   UNL     1       2.162   5.921  18.899  0.00  0.00    +0.000 C 
ATOM      4  N   UNL     1       2.444   7.229  18.330  0.00  0.00    +0.000 NA
ATOM      5  C   UNL     1       3.643   7.251  17.531  0.00  0.00    +0.000 C 
ATOM      6  C   UNL     1       4.872   6.762  18.275  0.00  0.00    +0.000 C 
ENDROOT
BRANCH   4   7
ATOM      7  C   UNL     1       2.004   8.455  19.007  0.00  0.00    +0.000 C 
ATOM      8  C   UNL     1       1.322   9.268  17.906  0.00  0.00    +0.000 C 
ATOM      9  C   UNL     1       0.995  10.643  18.401  0.00  0.00    +0.000 C 
ATOM     10  N   UNL     1      -0.087  10.459  19.369  0.00  0.00    +0.000 NA
ATOM     11  C   UNL     1       0.434   9.825  20.590  0.00  0.00    +0.000 C 
ATOM     12  C   UNL     1       1.103   8.428  20.293  0.00  0.00    +0.000 C 
BRANCH  12  13
ATOM     13  O   UNL     1       1.863   8.008  21.439  0.00  0.00    +0.000 OA
ATOM     14  H   UNL     1       1.900   7.036  21.438  0.00  0.00    +0.000 HD
ENDBRANCH  12  13
BRANCH  10  15
ATOM     15  C   UNL     1      -0.779  11.735  19.503  0.00  0.00    +0.000 C 
BRANCH  15  16
ATOM     16  C   UNL     1      -0.831  12.326  20.884  0.00  0.00    +0.000 A 
ATOM     17  C   UNL     1      -0.015  13.430  21.175  0.00  0.00    +0.000 A 
ATOM     18  C   UNL     1      -0.126  14.087  22.399  0.00  0.00    +0.000 A 
ATOM     19  C   UNL     1      -1.056  13.641  23.324  0.00  0.00    +0.000 A 
ATOM     20  F   UNL     1      -1.180  14.285  24.491  0.00  0.00    +0.000 F 
ATOM     21  C   UNL     1      -1.883  12.552  23.056  0.00  0.00    +0.000 A 
ATOM     22  C   UNL     1      -1.774  11.894  21.833  0.00  0.00    +0.000 A 
ENDBRANCH  15  16
ENDBRANCH  10  15
ENDBRANCH   4   7
BRANCH   1  23
ATOM     23  C   UNL     1       5.228   4.331  18.798  0.00  0.00    +0.000 C 
ATOM     24  O   UNL     1       5.326   3.323  19.494  0.00  0.00    +0.000 OA
BRANCH  23  28
ATOM     25  C   UNL     1       6.509   4.308  14.679  0.00  0.00    +0.000 A 
ATOM     26  C   UNL     1       5.194   3.967  15.020  0.00  0.00    +0.000 A 
ATOM     27  C   UNL     1       4.766   3.984  16.361  0.00  0.00    +0.000 A 
ATOM     28  C   UNL     1       5.671   4.312  17.369  0.00  0.00    +0.000 A 
ATOM     29  C   UNL     1       6.991   4.627  17.023  0.00  0.00    +0.000 A 
ATOM     30  C   UNL     1       7.413   4.612  15.698  0.00  0.00    +0.000 A 
BRANCH  25  32
ATOM     31  C   UNL     1       5.984   3.451  12.557  0.00  0.00    +0.000 C 
ATOM     32  O   UNL     1       6.821   4.283  13.357  0.00  0.00    +0.000 OA
ENDBRANCH  25  32
ENDBRANCH  23  28
ENDBRANCH   1  23
TORSDOF 7
ENDMDL
MODEL 5
REMARK VINA RESULT:      -7.4      3.749     10.378
REMARK  Name = 
REMARK  8 active torsions:
REMARK  status: ('A' for Active; 'I' for Inactive)
REMARK    1  A    between atoms: C_1  and  O_2
REMARK    2  A    between atoms: O_2  and  C_3
REMARK    3  A    between atoms: C_6  and  C_7
REMARK    4  A    between atoms: C_7  and  C_9
REMARK    5  A    between atoms: N_12  and  C_13
REMARK    6  A    between atoms: N_16  and  C_17
REMARK    7  A    between atoms: C_17  and  C_18
REMARK    8  A    between atoms: C_26  and  O_27
REMARK                            x       y       z     vdW  Elec       q    Type
REMARK                         _______ _______ _______ _____ _____    ______ ____
ROOT
ATOM      1  C   UNL     1      -1.002  10.076  19.022  0.00  0.00    +0.000 C 
ATOM      2  C   UNL     1      -0.510   9.475  20.330  0.00  0.00    +0.000 C 
ATOM      3  C   UNL     1       0.988   9.526  20.489  0.00  0.00    +0.000 C 
ATOM      4  N   UNL     1       1.689   9.069  19.299  0.00  0.00    +0.000 NA
ATOM      5  C   UNL     1       1.442   9.897  18.145  0.00  0.00    +0.000 C 
ATOM      6  C   UNL     1      -0.032  10.053  17.819  0.00  0.00    +0.000 C 
ENDROOT
BRANCH   4   7
ATOM      7  C   UNL     1       2.011   7.649  19.114  0.00  0.00    +0.000 C 
ATOM      8  C   UNL     1       3.050   7.642  17.993  0.00  0.00    +0.000 C 
ATOM      9  C   UNL     1       3.331   6.239  17.552  0.00  0.00    +0.000 C 
ATOM     10  N   UNL     1       4.062   5.623  18.660  0.00  0.00    +0.000 NA
ATOM     11  C   UNL     1       3.154   5.396  19.796  0.00  0.00    +0.000 C 
ATOM     12  C   UNL     1       2.489   6.735  20.298  0.00  0.00    +0.000 C 
BRANCH  12  13
ATOM     13  O   UNL     1       1.394   6.424  21.177  0.00  0.00    +0.000 OA
ATOM     14  H   UNL     1       0.891   5.689  20.785  0.00  0.00    +0.000 HD
ENDBRANCH  12  13
BRANCH  10  15
ATOM     15  C   UNL     1       4.787   4.477  18.125  0.00  0.00    +0.000 C 
BRANCH  15  16
ATOM     16  C   UNL     1       5.456   4.670  16.793  0.00  0.00    +0.000 A 
ATOM     17  C   UNL     1       6.702   5.315  16.752  0.00  0.00    +0.000 A 
ATOM     18  C   UNL     1       7.414   5.401  15.558  0.00  0.00    +0.000 A 
ATOM     19  C   UNL     1       6.880   4.837  14.410  0.00  0.00    +0.000 A 
ATOM     20  F   UNL     1       7.573   4.898  13.267  0.00  0.00    +0.000 F 
ATOM     21  C   UNL     1       5.649   4.185  14.426  0.00  0.00    +0.000 A 
ATOM     22  C   UNL     1       4.935   4.098  15.619  0.00  0.00    +0.000 A 
ENDBRANCH  15  16
ENDBRANCH  10  15
ENDBRANCH   4   7
BRANCH   1  23
ATOM     23  C   UNL     1      -1.554  11.487  19.212  0.00  0.00    +0.000 C 
ATOM     24  O   UNL     1      -0.895  12.403  19.696  0.00  0.00    +0.000 OA
BRANCH  23  28
ATOM     25  C   UNL     1      -5.595  12.187  17.876  0.00  0.00    +0.000 A 
ATOM     26  C   UNL     1      -5.207  12.518  19.180  0.00  0.00    +0.000 A 
ATOM     27  C   UNL     1      -3.888  12.303  19.618  0.00  0.00    +0.000 A 
ATOM     28  C   UNL     1      -2.960  11.722  18.755  0.00  0.00    +0.000 A 
ATOM     29  C   UNL     1      -3.363  11.370  17.460  0.00  0.00    +0.000 A 
ATOM     30  C   UNL     1      -4.667  11.584  17.028  0.00  0.00    +0.000 A 
BRANCH  25  32
ATOM     31  C   UNL     1      -7.088  13.693  16.866  0.00  0.00    +0.000 C 
ATOM     32  O   UNL     1      -6.885  12.452  17.539  0.00  0.00    +0.000 OA
ENDBRANCH  25  32
ENDBRANCH  23  28
ENDBRANCH   1  23
TORSDOF 7
ENDMDL
MODEL 6
REMARK VINA RESULT:      -7.3      0.968      1.481
REMARK  Name = 
REMARK  8 active torsions:
REMARK  status: ('A' for Active; 'I' for Inactive)
REMARK    1  A    between atoms: C_1  and  O_2
REMARK    2  A    between atoms: O_2  and  C_3
REMARK    3  A    between atoms: C_6  and  C_7
REMARK    4  A    between atoms: C_7  and  C_9
REMARK    5  A    between atoms: N_12  and  C_13
REMARK    6  A    between atoms: N_16  and  C_17
REMARK    7  A    between atoms: C_17  and  C_18
REMARK    8  A    between atoms: C_26  and  O_27
REMARK                            x       y       z     vdW  Elec       q    Type
REMARK                         _______ _______ _______ _____ _____    ______ ____
ROOT
ATOM      1  C   UNL     1       6.482   5.614  18.175  0.00  0.00    +0.000 C 
ATOM      2  C   UNL     1       5.559   4.854  19.115  0.00  0.00    +0.000 C 
ATOM      3  C   UNL     1       4.134   4.779  18.627  0.00  0.00    +0.000 C 
ATOM      4  N   UNL     1       3.632   6.068  18.179  0.00  0.00    +0.000 NA
ATOM      5  C   UNL     1       4.350   6.592  17.045  0.00  0.00    +0.000 C 
ATOM      6  C   UNL     1       5.846   6.700  17.277  0.00  0.00    +0.000 C 
ENDROOT
BRANCH   4   7
ATOM      7  C   UNL     1       2.993   6.996  19.121  0.00  0.00    +0.000 C 
ATOM      8  C   UNL     1       2.480   8.133  18.239  0.00  0.00    +0.000 C 
ATOM      9  C   UNL     1       1.976   9.262  19.084  0.00  0.00    +0.000 C 
ATOM     10  N   UNL     1       0.745   8.765  19.700  0.00  0.00    +0.000 NA
ATOM     11  C   UNL     1       1.067   7.755  20.722  0.00  0.00    +0.000 C 
ATOM     12  C   UNL     1       1.870   6.539  20.119  0.00  0.00    +0.000 C 
BRANCH  12  13
ATOM     13  O   UNL     1       2.426   5.756  21.189  0.00  0.00    +0.000 OA
ATOM     14  H   UNL     1       1.992   6.024  22.018  0.00  0.00    +0.000 HD
ENDBRANCH  12  13
BRANCH  10  15
ATOM     15  C   UNL     1      -0.041   9.923  20.108  0.00  0.00    +0.000 C 
BRANCH  15  16
ATOM     16  C   UNL     1      -1.073  10.409  19.130  0.00  0.00    +0.000 A 
ATOM     17  C   UNL     1      -0.944  11.703  18.602  0.00  0.00    +0.000 A 
ATOM     18  C   UNL     1      -1.804  12.145  17.599  0.00  0.00    +0.000 A 
ATOM     19  C   UNL     1      -2.786  11.290  17.123  0.00  0.00    +0.000 A 
ATOM     20  F   UNL     1      -3.597  11.705  16.143  0.00  0.00    +0.000 F 
ATOM     21  C   UNL     1      -2.929   9.999  17.625  0.00  0.00    +0.000 A 
ATOM     22  C   UNL     1      -2.071   9.554  18.629  0.00  0.00    +0.000 A 
ENDBRANCH  15  16
ENDBRANCH  10  15
ENDBRANCH   4   7
BRANCH   1  23
ATOM     23  C   UNL     1       7.332   4.675  17.323  0.00  0.00    +0.000 C 
ATOM     24  O   UNL     1       8.360   4.144  17.737  0.00  0.00    +0.000 OA
BRANCH  23  28
ATOM     25  C   UNL     1       5.933   3.860  13.325  0.00  0.00    +0.000 A 
ATOM     26  C   UNL     1       7.054   4.672  13.538  0.00  0.00    +0.000 A 
ATOM     27  C   UNL     1       7.523   4.932  14.839  0.00  0.00    +0.000 A 
ATOM     28  C   UNL     1       6.845   4.402  15.935  0.00  0.00    +0.000 A 
ATOM     29  C   UNL     1       5.709   3.612  15.716  0.00  0.00    +0.000 A 
ATOM     30  C   UNL     1       5.247   3.354  14.429  0.00  0.00    +0.000 A 
BRANCH  25  32
ATOM     31  C   UNL     1       5.756   2.314  11.566  0.00  0.00    +0.000 C 
ATOM     32  O   UNL     1       5.570   3.649  12.033  0.00  0.00    +0.000 OA
ENDBRANCH  25  32
ENDBRANCH  23  28
ENDBRANCH   1  23
TORSDOF 7
ENDMDL
MODEL 7
REMARK VINA RESULT:      -7.3      1.836      2.381
REMARK  Name = 
REMARK  8 active torsions:
REMARK  status: ('A' for Active; 'I' for Inactive)
REMARK    1  A    between atoms: C_1  and  O_2
REMARK    2  A    between atoms: O_2  and  C_3
REMARK    3  A    between atoms: C_6  and  C_7
REMARK    4  A    between atoms: C_7  and  C_9
REMARK    5  A    between atoms: N_12  and  C_13
REMARK    6  A    between atoms: N_16  and  C_17
REMARK    7  A    between atoms: C_17  and  C_18
REMARK    8  A    between atoms: C_26  and  O_27
REMARK                            x       y       z     vdW  Elec       q    Type
REMARK                         _______ _______ _______ _____ _____    ______ ____
ROOT
ATOM      1  C   UNL     1       4.577   5.738  18.947  0.00  0.00    +0.000 C 
ATOM      2  C   UNL     1       3.411   5.614  19.915  0.00  0.00    +0.000 C 
ATOM      3  C   UNL     1       2.092   6.045  19.324  0.00  0.00    +0.000 C 
ATOM      4  N   UNL     1       2.185   7.320  18.631  0.00  0.00    +0.000 NA
ATOM      5  C   UNL     1       3.068   7.282  17.493  0.00  0.00    +0.000 C 
ATOM      6  C   UNL     1       4.468   6.804  17.833  0.00  0.00    +0.000 C 
ENDROOT
BRANCH   4   7
ATOM      7  C   UNL     1       1.987   8.584  19.350  0.00  0.00    +0.000 C 
ATOM      8  C   UNL     1       1.447   9.541  18.288  0.00  0.00    +0.000 C 
ATOM      9  C   UNL     1       1.384  10.936  18.827  0.00  0.00    +0.000 C 
ATOM     10  N   UNL     1       0.303  10.923  19.813  0.00  0.00    +0.000 NA
ATOM     11  C   UNL     1       0.721  10.167  21.005  0.00  0.00    +0.000 C 
ATOM     12  C   UNL     1       1.119   8.682  20.655  0.00  0.00    +0.000 C 
BRANCH  12  13
ATOM     13  O   UNL     1       1.808   8.095  21.772  0.00  0.00    +0.000 OA
ATOM     14  H   UNL     1       2.739   7.969  21.520  0.00  0.00    +0.000 HD
ENDBRANCH  12  13
BRANCH  10  15
ATOM     15  C   UNL     1      -0.141  12.299  19.997  0.00  0.00    +0.000 C 
BRANCH  15  16
ATOM     16  C   UNL     1      -1.551  12.487  20.483  0.00  0.00    +0.000 A 
ATOM     17  C   UNL     1      -2.601  12.389  19.557  0.00  0.00    +0.000 A 
ATOM     18  C   UNL     1      -3.926  12.429  19.985  0.00  0.00    +0.000 A 
ATOM     19  C   UNL     1      -4.197  12.563  21.338  0.00  0.00    +0.000 A 
ATOM     20  F   UNL     1      -5.469  12.578  21.753  0.00  0.00    +0.000 F 
ATOM     21  C   UNL     1      -3.172  12.655  22.277  0.00  0.00    +0.000 A 
ATOM     22  C   UNL     1      -1.846  12.615  21.852  0.00  0.00    +0.000 A 
ENDBRANCH  15  16
ENDBRANCH  10  15
ENDBRANCH   4   7
BRANCH   1  23
ATOM     23  C   UNL     1       4.961   4.392  18.336  0.00  0.00    +0.000 C 
ATOM     24  O   UNL     1       4.814   3.325  18.926  0.00  0.00    +0.000 OA
BRANCH  23  28
ATOM     25  C   UNL     1       6.569   4.444  14.334  0.00  0.00    +0.000 A 
ATOM     26  C   UNL     1       7.380   4.751  15.433  0.00  0.00    +0.000 A 
ATOM     27  C   UNL     1       6.865   4.724  16.743  0.00  0.00    +0.000 A 
ATOM     28  C   UNL     1       5.521   4.420  16.949  0.00  0.00    +0.000 A 
ATOM     29  C   UNL     1       4.709   4.139  15.842  0.00  0.00    +0.000 A 
ATOM     30  C   UNL     1       5.219   4.164  14.549  0.00  0.00    +0.000 A 
BRANCH  25  32
ATOM     31  C   UNL     1       6.644   3.541  12.168  0.00  0.00    +0.000 C 
ATOM     32  O   UNL     1       7.162   4.475  13.112  0.00  0.00    +0.000 OA
ENDBRANCH  25  32
ENDBRANCH  23  28
ENDBRANCH   1  23
TORSDOF 7
ENDMDL
MODEL 8
REMARK VINA RESULT:      -7.3      3.727     10.500
REMARK  Name = 
REMARK  8 active torsions:
REMARK  status: ('A' for Active; 'I' for Inactive)
REMARK    1  A    between atoms: C_1  and  O_2
REMARK    2  A    between atoms: O_2  and  C_3
REMARK    3  A    between atoms: C_6  and  C_7
REMARK    4  A    between atoms: C_7  and  C_9
REMARK    5  A    between atoms: N_12  and  C_13
REMARK    6  A    between atoms: N_16  and  C_17
REMARK    7  A    between atoms: C_17  and  C_18
REMARK    8  A    between atoms: C_26  and  O_27
REMARK                            x       y       z     vdW  Elec       q    Type
REMARK                         _______ _______ _______ _____ _____    ______ ____
ROOT
ATOM      1  C   UNL     1      -0.867  10.240  18.827  0.00  0.00    +0.000 C 
ATOM      2  C   UNL     1      -0.484   9.654  20.177  0.00  0.00    +0.000 C 
ATOM      3  C   UNL     1       1.005   9.610  20.412  0.00  0.00    +0.000 C 
ATOM      4  N   UNL     1       1.730   9.065  19.276  0.00  0.00    +0.000 NA
ATOM      5  C   UNL     1       1.599   9.865  18.085  0.00  0.00    +0.000 C 
ATOM      6  C   UNL     1       0.158  10.109  17.678  0.00  0.00    +0.000 C 
ENDROOT
BRANCH   4   7
ATOM      7  C   UNL     1       1.962   7.620  19.154  0.00  0.00    +0.000 C 
ATOM      8  C   UNL     1       2.978   7.498  18.019  0.00  0.00    +0.000 C 
ATOM      9  C   UNL     1       3.165   6.061  17.640  0.00  0.00    +0.000 C 
ATOM     10  N   UNL     1       3.878   5.453  18.765  0.00  0.00    +0.000 NA
ATOM     11  C   UNL     1       2.980   5.336  19.924  0.00  0.00    +0.000 C 
ATOM     12  C   UNL     1       2.406   6.735  20.372  0.00  0.00    +0.000 C 
BRANCH  12  13
ATOM     13  O   UNL     1       1.310   6.533  21.282  0.00  0.00    +0.000 OA
ATOM     14  H   UNL     1       0.622   7.189  21.077  0.00  0.00    +0.000 HD
ENDBRANCH  12  13
BRANCH  10  15
ATOM     15  C   UNL     1       4.523   4.242  18.274  0.00  0.00    +0.000 C 
BRANCH  15  16
ATOM     16  C   UNL     1       5.433   4.401  17.088  0.00  0.00    +0.000 A 
ATOM     17  C   UNL     1       5.001   3.927  15.840  0.00  0.00    +0.000 A 
ATOM     18  C   UNL     1       5.755   4.168  14.694  0.00  0.00    +0.000 A 
ATOM     19  C   UNL     1       6.936   4.886  14.800  0.00  0.00    +0.000 A 
ATOM     20  F   UNL     1       7.650   5.139  13.696  0.00  0.00    +0.000 F 
ATOM     21  C   UNL     1       7.382   5.373  16.026  0.00  0.00    +0.000 A 
ATOM     22  C   UNL     1       6.630   5.133  17.174  0.00  0.00    +0.000 A 
ENDBRANCH  15  16
ENDBRANCH  10  15
ENDBRANCH   4   7
BRANCH   1  23
ATOM     23  C   UNL     1      -1.330  11.691  18.942  0.00  0.00    +0.000 C 
ATOM     24  O   UNL     1      -0.557  12.644  18.888  0.00  0.00    +0.000 OA
BRANCH  23  28
ATOM     25  C   UNL     1      -5.568  12.317  19.444  0.00  0.00    +0.000 A 
ATOM     26  C   UNL     1      -5.076  11.614  18.337  0.00  0.00    +0.000 A 
ATOM     27  C   UNL     1      -3.696  11.396  18.173  0.00  0.00    +0.000 A 
ATOM     28  C   UNL     1      -2.800  11.914  19.107  0.00  0.00    +0.000 A 
ATOM     29  C   UNL     1      -3.298  12.638  20.199  0.00  0.00    +0.000 A 
ATOM     30  C   UNL     1      -4.662  12.851  20.360  0.00  0.00    +0.000 A 
BRANCH  25  32
ATOM     31  C   UNL     1      -7.554  11.604  20.475  0.00  0.00    +0.000 C 
ATOM     32  O   UNL     1      -6.917  12.457  19.526  0.00  0.00    +0.000 OA
ENDBRANCH  25  32
ENDBRANCH  23  28
ENDBRANCH   1  23
TORSDOF 7
ENDMDL
MODEL 9
REMARK VINA RESULT:      -7.2      2.685      3.447
REMARK  Name = 
REMARK  8 active torsions:
REMARK  status: ('A' for Active; 'I' for Inactive)
REMARK    1  A    between atoms: C_1  and  O_2
REMARK    2  A    between atoms: O_2  and  C_3
REMARK    3  A    between atoms: C_6  and  C_7
REMARK    4  A    between atoms: C_7  and  C_9
REMARK    5  A    between atoms: N_12  and  C_13
REMARK    6  A    between atoms: N_16  and  C_17
REMARK    7  A    between atoms: C_17  and  C_18
REMARK    8  A    between atoms: C_26  and  O_27
REMARK                            x       y       z     vdW  Elec       q    Type
REMARK                         _______ _______ _______ _____ _____    ______ ____
ROOT
ATOM      1  C   UNL     1       4.737   5.660  19.196  0.00  0.00    +0.000 C 
ATOM      2  C   UNL     1       3.389   5.460  19.870  0.00  0.00    +0.000 C 
ATOM      3  C   UNL     1       2.221   5.886  19.015  0.00  0.00    +0.000 C 
ATOM      4  N   UNL     1       2.422   7.194  18.413  0.00  0.00    +0.000 NA
ATOM      5  C   UNL     1       3.539   7.233  17.504  0.00  0.00    +0.000 C 
ATOM      6  C   UNL     1       4.843   6.775  18.131  0.00  0.00    +0.000 C 
ENDROOT
BRANCH   4   7
ATOM      7  C   UNL     1       2.023   8.417  19.121  0.00  0.00    +0.000 C 
ATOM      8  C   UNL     1       1.361   9.275  18.043  0.00  0.00    +0.000 C 
ATOM      9  C   UNL     1       1.078  10.648  18.571  0.00  0.00    +0.000 C 
ATOM     10  N   UNL     1      -0.004  10.474  19.542  0.00  0.00    +0.000 NA
ATOM     11  C   UNL     1       0.505   9.797  20.745  0.00  0.00    +0.000 C 
ATOM     12  C   UNL     1       1.129   8.388  20.411  0.00  0.00    +0.000 C 
BRANCH  12  13
ATOM     13  O   UNL     1       1.882   7.918  21.543  0.00  0.00    +0.000 OA
ATOM     14  H   UNL     1       2.582   8.567  21.731  0.00  0.00    +0.000 HD
ENDBRANCH  12  13
BRANCH  10  15
ATOM     15  C   UNL     1      -0.655  11.768  19.709  0.00  0.00    +0.000 C 
BRANCH  15  16
ATOM     16  C   UNL     1       0.249  12.961  19.835  0.00  0.00    +0.000 A 
ATOM     17  C   UNL     1       0.279  13.897  18.790  0.00  0.00    +0.000 A 
ATOM     18  C   UNL     1       1.004  15.080  18.921  0.00  0.00    +0.000 A 
ATOM     19  C   UNL     1       1.692  15.325  20.099  0.00  0.00    +0.000 A 
ATOM     20  F   UNL     1       2.369  16.471  20.236  0.00  0.00    +0.000 F 
ATOM     21  C   UNL     1       1.671  14.415  21.155  0.00  0.00    +0.000 A 
ATOM     22  C   UNL     1       0.947  13.232  21.026  0.00  0.00    +0.000 A 
ENDBRANCH  15  16
ENDBRANCH  10  15
ENDBRANCH   4   7
BRANCH   1  23
ATOM     23  C   UNL     1       5.296   4.355  18.634  0.00  0.00    +0.000 C 
ATOM     24  O   UNL     1       5.392   3.327  19.300  0.00  0.00    +0.000 OA
BRANCH  23  28
ATOM     25  C   UNL     1       6.502   4.366  14.493  0.00  0.00    +0.000 A 
ATOM     26  C   UNL     1       7.394   4.762  15.497  0.00  0.00    +0.000 A 
ATOM     27  C   UNL     1       7.011   4.749  16.851  0.00  0.00    +0.000 A 
ATOM     28  C   UNL     1       5.716   4.369  17.198  0.00  0.00    +0.000 A 
ATOM     29  C   UNL     1       4.821   3.999  16.185  0.00  0.00    +0.000 A 
ATOM     30  C   UNL     1       5.201   4.011  14.847  0.00  0.00    +0.000 A 
BRANCH  25  32
ATOM     31  C   UNL     1       6.327   3.488  12.322  0.00  0.00    +0.000 C 
ATOM     32  O   UNL     1       6.971   4.391  13.218  0.00  0.00    +0.000 OA
ENDBRANCH  25  32
ENDBRANCH  23  28
ENDBRANCH   1  23
TORSDOF 7
ENDMDL
