MODEL 1
REMARK VINA RESULT:      -8.2      0.000      0.000
REMARK  Name = 
REMARK  4 active torsions:
REMARK  status: ('A' for Active; 'I' for Inactive)
REMARK    1  A    between atoms: C_2  and  C_10
REMARK    2  A    between atoms: N_3  and  C_4
REMARK    3  A    between atoms: C_4  and  C_5
REMARK    4  A    between atoms: N_19  and  C_20
REMARK                            x       y       z     vdW  Elec       q    Type
REMARK                         _______ _______ _______ _____ _____    ______ ____
ROOT
ATOM      1  C   UNL     1       2.640   5.991  17.896  0.00  0.00    +0.000 C 
ATOM      2  C   UNL     1       2.482   4.516  18.149  0.00  0.00    +0.000 A 
ATOM      3  C   UNL     1       2.751   3.433  17.327  0.00  0.00    +0.000 A 
ATOM      4  C   UNL     1       2.529   2.147  17.834  0.00  0.00    +0.000 A 
ATOM      5  C   UNL     1       2.043   1.956  19.141  0.00  0.00    +0.000 A 
ATOM      6  C   UNL     1       1.770   3.049  19.960  0.00  0.00    +0.000 A 
ATOM      7  C   UNL     1       2.002   4.308  19.437  0.00  0.00    +0.000 A 
ATOM      8  C   UNL     1       1.804   5.610  20.078  0.00  0.00    +0.000 C 
ATOM      9  O   UNL     1       1.322   5.739  21.187  0.00  0.00    +0.000 OA
ATOM     10  N   UNL     1       2.218   6.581  19.179  0.00  0.00    +0.000 N 
ENDROOT
BRANCH  10  11
ATOM     11  C   UNL     1       2.182   8.037  19.410  0.00  0.00    +0.000 C 
ATOM     12  C   UNL     1       1.566   8.789  18.216  0.00  0.00    +0.000 C 
ATOM     13  C   UNL     1       1.841  10.296  18.189  0.00  0.00    +0.000 C 
ATOM     14  C   UNL     1       1.260  11.161  19.309  0.00  0.00    +0.000 C 
ATOM     15  C   UNL     1      -0.199  10.882  19.665  0.00  0.00    +0.000 C 
ATOM     16  C   UNL     1      -0.391  10.050  20.934  0.00  0.00    +0.000 C 
ATOM     17  C   UNL     1       0.055   8.589  20.856  0.00  0.00    +0.000 C 
ATOM     18  C   UNL     1       1.572   8.370  20.789  0.00  0.00    +0.000 C 
ENDBRANCH  10  11
BRANCH   1  20
ATOM     19  O   UNL     1       4.367   7.108  16.555  0.00  0.00    +0.000 OA
ATOM     20  C   UNL     1       4.087   6.317  17.456  0.00  0.00    +0.000 C 
ATOM     21  N   UNL     1       5.057   5.651  18.188  0.00  0.00    +0.000 N 
ATOM     22  H   UNL     1       4.796   4.829  18.721  0.00  0.00    +0.000 HD
BRANCH  21  23
ATOM     23  C   UNL     1       6.483   5.797  17.927  0.00  0.00    +0.000 C 
BRANCH  23  24
ATOM     24  C   UNL     1       6.981   4.881  16.803  0.00  0.00    +0.000 C 
ATOM     25  C   UNL     1       7.164   5.557  15.454  0.00  0.00    +0.000 C 
ATOM     26  C   UNL     1       6.870   4.446  14.482  0.00  0.00    +0.000 C 
ATOM     27  C   UNL     1       5.796   3.662  15.203  0.00  0.00    +0.000 C 
ATOM     28  O   UNL     1       6.039   3.802  16.608  0.00  0.00    +0.000 OA
ENDBRANCH  23  24
ENDBRANCH  21  23
ENDBRANCH   1  20
TORSDOF 4
ENDMDL
MODEL 2
REMARK VINA RESULT:      -8.0      3.148      5.597
REMARK  Name = 
REMARK  4 active torsions:
REMARK  status: ('A' for Active; 'I' for Inactive)
REMARK    1  A    between atoms: C_2  and  C_10
REMARK    2  A    between atoms: N_3  and  C_4
REMARK    3  A    between atoms: C_4  and  C_5
REMARK    4  A    between atoms: N_19  and  C_20
REMARK                            x       y       z     vdW  Elec       q    Type
REMARK                         _______ _______ _______ _____ _____    ______ ____
ROOT
ATOM      1  C   UNL     1       5.919   6.458  16.522  0.00  0.00    +0.000 C 
ATOM      2  C   UNL     1       6.231   5.597  15.328  0.00  0.00    +0.000 A 
ATOM      3  C   UNL     1       7.185   5.757  14.335  0.00  0.00    +0.000 A 
ATOM      4  C   UNL     1       7.273   4.777  13.339  0.00  0.00    +0.000 A 
ATOM      5  C   UNL     1       6.416   3.661  13.341  0.00  0.00    +0.000 A 
ATOM      6  C   UNL     1       5.456   3.510  14.339  0.00  0.00    +0.000 A 
ATOM      7  C   UNL     1       5.393   4.489  15.314  0.00  0.00    +0.000 A 
ATOM      8  C   UNL     1       4.490   4.572  16.464  0.00  0.00    +0.000 C 
ATOM      9  O   UNL     1       3.595   3.772  16.665  0.00  0.00    +0.000 OA
ATOM     10  N   UNL     1       4.835   5.706  17.180  0.00  0.00    +0.000 N 
ENDROOT
BRANCH  10  11
ATOM     11  C   UNL     1       4.174   6.180  18.411  0.00  0.00    +0.000 C 
ATOM     12  C   UNL     1       2.706   6.568  18.157  0.00  0.00    +0.000 C 
ATOM     13  C   UNL     1       2.064   7.425  19.252  0.00  0.00    +0.000 C 
ATOM     14  C   UNL     1       1.886   6.813  20.643  0.00  0.00    +0.000 C 
ATOM     15  C   UNL     1       1.327   5.392  20.669  0.00  0.00    +0.000 C 
ATOM     16  C   UNL     1       2.376   4.305  20.909  0.00  0.00    +0.000 C 
ATOM     17  C   UNL     1       3.383   4.079  19.781  0.00  0.00    +0.000 C 
ATOM     18  C   UNL     1       4.408   5.203  19.583  0.00  0.00    +0.000 C 
ENDBRANCH  10  11
BRANCH   1  20
ATOM     19  O   UNL     1       7.865   5.775  17.854  0.00  0.00    +0.000 OA
ATOM     20  C   UNL     1       7.188   6.686  17.378  0.00  0.00    +0.000 C 
ATOM     21  N   UNL     1       7.513   8.022  17.548  0.00  0.00    +0.000 N 
ATOM     22  H   UNL     1       6.806   8.728  17.379  0.00  0.00    +0.000 HD
BRANCH  21  23
ATOM     23  C   UNL     1       8.657   8.461  18.337  0.00  0.00    +0.000 C 
BRANCH  23  24
ATOM     24  C   UNL     1       8.650   9.969  18.611  0.00  0.00    +0.000 C 
ATOM     25  C   UNL     1       9.586  10.787  17.737  0.00  0.00    +0.000 C 
ATOM     26  C   UNL     1       9.974  11.928  18.641  0.00  0.00    +0.000 C 
ATOM     27  C   UNL     1      10.006  11.266  20.000  0.00  0.00    +0.000 C 
ATOM     28  O   UNL     1       9.035  10.212  19.983  0.00  0.00    +0.000 OA
ENDBRANCH  23  24
ENDBRANCH  21  23
ENDBRANCH   1  20
TORSDOF 4
ENDMDL
MODEL 3
REMARK VINA RESULT:      -8.0      0.992      1.701
REMARK  Name = 
REMARK  4 active torsions:
REMARK  status: ('A' for Active; 'I' for Inactive)
REMARK    1  A    between atoms: C_2  and  C_10
REMARK    2  A    between atoms: N_3  and  C_4
REMARK    3  A    between atoms: C_4  and  C_5
REMARK    4  A    between atoms: N_19  and  C_20
REMARK                            x       y       z     vdW  Elec       q    Type
REMARK                         _______ _______ _______ _____ _____    ______ ____
ROOT
ATOM      1  C   UNL     1       2.604   5.815  17.832  0.00  0.00    +0.000 C 
ATOM      2  C   UNL     1       2.586   4.339  18.123  0.00  0.00    +0.000 A 
ATOM      3  C   UNL     1       2.800   3.258  17.282  0.00  0.00    +0.000 A 
ATOM      4  C   UNL     1       2.745   1.971  17.832  0.00  0.00    +0.000 A 
ATOM      5  C   UNL     1       2.478   1.778  19.200  0.00  0.00    +0.000 A 
ATOM      6  C   UNL     1       2.260   2.868  20.038  0.00  0.00    +0.000 A 
ATOM      7  C   UNL     1       2.323   4.128  19.472  0.00  0.00    +0.000 A 
ATOM      8  C   UNL     1       2.138   5.428  20.120  0.00  0.00    +0.000 C 
ATOM      9  O   UNL     1       1.822   5.549  21.289  0.00  0.00    +0.000 OA
ATOM     10  N   UNL     1       2.342   6.404  19.158  0.00  0.00    +0.000 N 
ENDROOT
BRANCH  10  11
ATOM     11  C   UNL     1       2.243   7.860  19.374  0.00  0.00    +0.000 C 
ATOM     12  C   UNL     1       1.509   8.560  18.216  0.00  0.00    +0.000 C 
ATOM     13  C   UNL     1       1.700  10.079  18.154  0.00  0.00    +0.000 C 
ATOM     14  C   UNL     1       1.149  10.928  19.301  0.00  0.00    +0.000 C 
ATOM     15  C   UNL     1      -0.266  10.577  19.758  0.00  0.00    +0.000 C 
ATOM     16  C   UNL     1      -0.327   9.754  21.046  0.00  0.00    +0.000 C 
ATOM     17  C   UNL     1       0.191   8.318  20.954  0.00  0.00    +0.000 C 
ATOM     18  C   UNL     1       1.710   8.180  20.788  0.00  0.00    +0.000 C 
ENDBRANCH  10  11
BRANCH   1  20
ATOM     19  O   UNL     1       4.389   7.372  17.188  0.00  0.00    +0.000 OA
ATOM     20  C   UNL     1       3.941   6.226  17.171  0.00  0.00    +0.000 C 
ATOM     21  N   UNL     1       4.612   5.174  16.568  0.00  0.00    +0.000 N 
ATOM     22  H   UNL     1       4.102   4.327  16.343  0.00  0.00    +0.000 HD
BRANCH  21  23
ATOM     23  C   UNL     1       5.880   5.343  15.870  0.00  0.00    +0.000 C 
BRANCH  23  24
ATOM     24  C   UNL     1       7.086   5.359  16.815  0.00  0.00    +0.000 C 
ATOM     25  C   UNL     1       6.791   4.929  18.243  0.00  0.00    +0.000 C 
ATOM     26  C   UNL     1       7.781   5.733  19.044  0.00  0.00    +0.000 C 
ATOM     27  C   UNL     1       7.859   7.023  18.259  0.00  0.00    +0.000 C 
ATOM     28  O   UNL     1       7.627   6.699  16.883  0.00  0.00    +0.000 OA
ENDBRANCH  23  24
ENDBRANCH  21  23
ENDBRANCH   1  20
TORSDOF 4
ENDMDL
MODEL 4
REMARK VINA RESULT:      -7.7      0.908      1.213
REMARK  Name = 
REMARK  4 active torsions:
REMARK  status: ('A' for Active; 'I' for Inactive)
REMARK    1  A    between atoms: C_2  and  C_10
REMARK    2  A    between atoms: N_3  and  C_4
REMARK    3  A    between atoms: C_4  and  C_5
REMARK    4  A    between atoms: N_19  and  C_20
REMARK                            x       y       z     vdW  Elec       q    Type
REMARK                         _______ _______ _______ _____ _____    ______ ____
ROOT
ATOM      1  C   UNL     1       2.589   5.756  17.823  0.00  0.00    +0.000 C 
ATOM      2  C   UNL     1       2.431   4.298  18.155  0.00  0.00    +0.000 A 
ATOM      3  C   UNL     1       2.630   3.174  17.369  0.00  0.00    +0.000 A 
ATOM      4  C   UNL     1       2.428   1.916  17.950  0.00  0.00    +0.000 A 
ATOM      5  C   UNL     1       2.030   1.793  19.294  0.00  0.00    +0.000 A 
ATOM      6  C   UNL     1       1.826   2.927  20.077  0.00  0.00    +0.000 A 
ATOM      7  C   UNL     1       2.037   4.157  19.481  0.00  0.00    +0.000 A 
ATOM      8  C   UNL     1       1.899   5.490  20.072  0.00  0.00    +0.000 C 
ATOM      9  O   UNL     1       1.494   5.676  21.204  0.00  0.00    +0.000 OA
ATOM     10  N   UNL     1       2.261   6.411  19.103  0.00  0.00    +0.000 N 
ENDROOT
BRANCH  10  11
ATOM     11  C   UNL     1       2.259   7.877  19.267  0.00  0.00    +0.000 C 
ATOM     12  C   UNL     1       1.630   8.586  18.053  0.00  0.00    +0.000 C 
ATOM     13  C   UNL     1       1.932  10.084  17.950  0.00  0.00    +0.000 C 
ATOM     14  C   UNL     1       1.393  11.011  19.042  0.00  0.00    +0.000 C 
ATOM     15  C   UNL     1      -0.062  10.778  19.442  0.00  0.00    +0.000 C 
ATOM     16  C   UNL     1      -0.240  10.009  20.752  0.00  0.00    +0.000 C 
ATOM     17  C   UNL     1       0.176   8.537  20.732  0.00  0.00    +0.000 C 
ATOM     18  C   UNL     1       1.687   8.286  20.642  0.00  0.00    +0.000 C 
ENDBRANCH  10  11
BRANCH   1  20
ATOM     19  O   UNL     1       4.476   7.171  17.141  0.00  0.00    +0.000 OA
ATOM     20  C   UNL     1       4.006   6.041  17.272  0.00  0.00    +0.000 C 
ATOM     21  N   UNL     1       4.721   4.897  16.954  0.00  0.00    +0.000 N 
ATOM     22  H   UNL     1       4.223   4.025  16.820  0.00  0.00    +0.000 HD
BRANCH  21  23
ATOM     23  C   UNL     1       6.068   4.937  16.399  0.00  0.00    +0.000 C 
BRANCH  23  24
ATOM     24  C   UNL     1       6.083   5.127  14.879  0.00  0.00    +0.000 C 
ATOM     25  C   UNL     1       5.795   3.873  14.070  0.00  0.00    +0.000 C 
ATOM     26  C   UNL     1       6.595   4.096  12.813  0.00  0.00    +0.000 C 
ATOM     27  C   UNL     1       7.807   4.838  13.331  0.00  0.00    +0.000 C 
ATOM     28  O   UNL     1       7.385   5.604  14.466  0.00  0.00    +0.000 OA
ENDBRANCH  23  24
ENDBRANCH  21  23
ENDBRANCH   1  20
TORSDOF 4
ENDMDL
MODEL 5
REMARK VINA RESULT:      -7.6      1.856      4.287
REMARK  Name = 
REMARK  4 active torsions:
REMARK  status: ('A' for Active; 'I' for Inactive)
REMARK    1  A    between atoms: C_2  and  C_10
REMARK    2  A    between atoms: N_3  and  C_4
REMARK    3  A    between atoms: C_4  and  C_5
REMARK    4  A    between atoms: N_19  and  C_20
REMARK                            x       y       z     vdW  Elec       q    Type
REMARK                         _______ _______ _______ _____ _____    ______ ____
ROOT
ATOM      1  C   UNL     1       2.973   6.669  19.799  0.00  0.00    +0.000 C 
ATOM      2  C   UNL     1       3.979   6.350  18.728  0.00  0.00    +0.000 A 
ATOM      3  C   UNL     1       4.990   5.402  18.704  0.00  0.00    +0.000 A 
ATOM      4  C   UNL     1       5.778   5.305  17.550  0.00  0.00    +0.000 A 
ATOM      5  C   UNL     1       5.553   6.147  16.445  0.00  0.00    +0.000 A 
ATOM      6  C   UNL     1       4.539   7.100  16.478  0.00  0.00    +0.000 A 
ATOM      7  C   UNL     1       3.772   7.173  17.627  0.00  0.00    +0.000 A 
ATOM      8  C   UNL     1       2.654   8.073  17.920  0.00  0.00    +0.000 C 
ATOM      9  O   UNL     1       2.295   8.955  17.163  0.00  0.00    +0.000 OA
ATOM     10  N   UNL     1       2.174   7.740  19.176  0.00  0.00    +0.000 N 
ENDROOT
BRANCH  10  11
ATOM     11  C   UNL     1       1.054   8.403  19.871  0.00  0.00    +0.000 C 
ATOM     12  C   UNL     1       1.381   8.671  21.351  0.00  0.00    +0.000 C 
ATOM     13  C   UNL     1       0.169   8.985  22.235  0.00  0.00    +0.000 C 
ATOM     14  C   UNL     1      -0.622  10.264  21.955  0.00  0.00    +0.000 C 
ATOM     15  C   UNL     1       0.217  11.519  21.721  0.00  0.00    +0.000 C 
ATOM     16  C   UNL     1       0.356  11.919  20.251  0.00  0.00    +0.000 C 
ATOM     17  C   UNL     1       1.188  10.982  19.373  0.00  0.00    +0.000 C 
ATOM     18  C   UNL     1       0.543   9.622  19.073  0.00  0.00    +0.000 C 
ENDBRANCH  10  11
BRANCH   1  20
ATOM     19  O   UNL     1       2.093   4.993  21.363  0.00  0.00    +0.000 OA
ATOM     20  C   UNL     1       2.185   5.401  20.205  0.00  0.00    +0.000 C 
ATOM     21  N   UNL     1       1.566   4.764  19.142  0.00  0.00    +0.000 N 
ATOM     22  H   UNL     1       1.877   4.963  18.198  0.00  0.00    +0.000 HD
BRANCH  21  23
ATOM     23  C   UNL     1       0.791   3.540  19.297  0.00  0.00    +0.000 C 
BRANCH  23  24
ATOM     24  C   UNL     1       1.544   2.292  18.825  0.00  0.00    +0.000 C 
ATOM     25  C   UNL     1       2.748   1.908  19.669  0.00  0.00    +0.000 C 
ATOM     26  C   UNL     1       3.671   1.271  18.663  0.00  0.00    +0.000 C 
ATOM     27  C   UNL     1       3.393   2.078  17.415  0.00  0.00    +0.000 C 
ATOM     28  O   UNL     1       2.025   2.500  17.477  0.00  0.00    +0.000 OA
ENDBRANCH  23  24
ENDBRANCH  21  23
ENDBRANCH   1  20
TORSDOF 4
ENDMDL
MODEL 6
REMARK VINA RESULT:      -7.4      1.986      6.653
REMARK  Name = 
REMARK  4 active torsions:
REMARK  status: ('A' for Active; 'I' for Inactive)
REMARK    1  A    between atoms: C_2  and  C_10
REMARK    2  A    between atoms: N_3  and  C_4
REMARK    3  A    between atoms: C_4  and  C_5
REMARK    4  A    between atoms: N_19  and  C_20
REMARK                            x       y       z     vdW  Elec       q    Type
REMARK                         _______ _______ _______ _____ _____    ______ ____
ROOT
ATOM      1  C   UNL     1       4.198   6.491  17.433  0.00  0.00    +0.000 C 
ATOM      2  C   UNL     1       5.629   6.894  17.660  0.00  0.00    +0.000 A 
ATOM      3  C   UNL     1       6.352   7.959  17.146  0.00  0.00    +0.000 A 
ATOM      4  C   UNL     1       7.684   8.110  17.550  0.00  0.00    +0.000 A 
ATOM      5  C   UNL     1       8.276   7.206  18.451  0.00  0.00    +0.000 A 
ATOM      6  C   UNL     1       7.546   6.136  18.960  0.00  0.00    +0.000 A 
ATOM      7  C   UNL     1       6.231   6.010  18.549  0.00  0.00    +0.000 A 
ATOM      8  C   UNL     1       5.252   4.990  18.929  0.00  0.00    +0.000 C 
ATOM      9  O   UNL     1       5.522   4.042  19.642  0.00  0.00    +0.000 OA
ATOM     10  N   UNL     1       4.059   5.306  18.299  0.00  0.00    +0.000 N 
ENDROOT
BRANCH  10  11
ATOM     11  C   UNL     1       2.805   4.536  18.396  0.00  0.00    +0.000 C 
ATOM     12  C   UNL     1       3.041   3.031  18.171  0.00  0.00    +0.000 C 
ATOM     13  C   UNL     1       1.781   2.217  17.864  0.00  0.00    +0.000 C 
ATOM     14  C   UNL     1       0.705   2.106  18.946  0.00  0.00    +0.000 C 
ATOM     15  C   UNL     1       1.217   1.801  20.353  0.00  0.00    +0.000 C 
ATOM     16  C   UNL     1       1.271   3.015  21.281  0.00  0.00    +0.000 C 
ATOM     17  C   UNL     1       2.314   4.080  20.939  0.00  0.00    +0.000 C 
ATOM     18  C   UNL     1       2.021   4.900  19.676  0.00  0.00    +0.000 C 
ENDBRANCH  10  11
BRANCH   1  20
ATOM     19  O   UNL     1       2.930   8.535  16.938  0.00  0.00    +0.000 OA
ATOM     20  C   UNL     1       3.243   7.666  17.752  0.00  0.00    +0.000 C 
ATOM     21  N   UNL     1       2.745   7.645  19.045  0.00  0.00    +0.000 N 
ATOM     22  H   UNL     1       3.220   7.090  19.748  0.00  0.00    +0.000 HD
BRANCH  21  23
ATOM     23  C   UNL     1       1.846   8.669  19.562  0.00  0.00    +0.000 C 
BRANCH  23  24
ATOM     24  C   UNL     1       1.173   8.264  20.878  0.00  0.00    +0.000 C 
ATOM     25  C   UNL     1      -0.295   8.639  20.993  0.00  0.00    +0.000 C 
ATOM     26  C   UNL     1      -0.465   8.872  22.472  0.00  0.00    +0.000 C 
ATOM     27  C   UNL     1       0.873   9.461  22.860  0.00  0.00    +0.000 C 
ATOM     28  O   UNL     1       1.857   8.897  21.984  0.00  0.00    +0.000 OA
ENDBRANCH  23  24
ENDBRANCH  21  23
ENDBRANCH   1  20
TORSDOF 4
ENDMDL
MODEL 7
REMARK VINA RESULT:      -7.4      1.086      1.158
REMARK  Name = 
REMARK  4 active torsions:
REMARK  status: ('A' for Active; 'I' for Inactive)
REMARK    1  A    between atoms: C_2  and  C_10
REMARK    2  A    between atoms: N_3  and  C_4
REMARK    3  A    between atoms: C_4  and  C_5
REMARK    4  A    between atoms: N_19  and  C_20
REMARK                            x       y       z     vdW  Elec       q    Type
REMARK                         _______ _______ _______ _____ _____    ______ ____
ROOT
ATOM      1  C   UNL     1       2.726   5.885  18.447  0.00  0.00    +0.000 C 
ATOM      2  C   UNL     1       2.372   4.497  18.903  0.00  0.00    +0.000 A 
ATOM      3  C   UNL     1       2.695   3.265  18.356  0.00  0.00    +0.000 A 
ATOM      4  C   UNL     1       2.245   2.112  19.010  0.00  0.00    +0.000 A 
ATOM      5  C   UNL     1       1.482   2.197  20.189  0.00  0.00    +0.000 A 
ATOM      6  C   UNL     1       1.156   3.438  20.731  0.00  0.00    +0.000 A 
ATOM      7  C   UNL     1       1.616   4.562  20.069  0.00  0.00    +0.000 A 
ATOM      8  C   UNL     1       1.421   5.970  20.421  0.00  0.00    +0.000 C 
ATOM      9  O   UNL     1       0.735   6.332  21.357  0.00  0.00    +0.000 OA
ATOM     10  N   UNL     1       2.107   6.729  19.487  0.00  0.00    +0.000 N 
ENDROOT
BRANCH  10  11
ATOM     11  C   UNL     1       2.171   8.202  19.455  0.00  0.00    +0.000 C 
ATOM     12  C   UNL     1       1.716   8.764  18.096  0.00  0.00    +0.000 C 
ATOM     13  C   UNL     1       2.113  10.220  17.832  0.00  0.00    +0.000 C 
ATOM     14  C   UNL     1       1.515  11.309  18.724  0.00  0.00    +0.000 C 
ATOM     15  C   UNL     1       0.014  11.195  18.985  0.00  0.00    +0.000 C 
ATOM     16  C   UNL     1      -0.346  10.620  20.356  0.00  0.00    +0.000 C 
ATOM     17  C   UNL     1      -0.015   9.143  20.576  0.00  0.00    +0.000 C 
ATOM     18  C   UNL     1       1.480   8.819  20.691  0.00  0.00    +0.000 C 
ENDBRANCH  10  11
BRANCH   1  20
ATOM     19  O   UNL     1       5.075   5.585  19.094  0.00  0.00    +0.000 OA
ATOM     20  C   UNL     1       4.258   6.036  18.292  0.00  0.00    +0.000 C 
ATOM     21  N   UNL     1       4.639   6.712  17.144  0.00  0.00    +0.000 N 
ATOM     22  H   UNL     1       3.958   7.288  16.662  0.00  0.00    +0.000 HD
BRANCH  21  23
ATOM     23  C   UNL     1       6.032   6.983  16.812  0.00  0.00    +0.000 C 
BRANCH  23  24
ATOM     24  C   UNL     1       6.592   6.023  15.758  0.00  0.00    +0.000 C 
ATOM     25  C   UNL     1       5.560   5.424  14.817  0.00  0.00    +0.000 C 
ATOM     26  C   UNL     1       6.146   4.074  14.494  0.00  0.00    +0.000 C 
ATOM     27  C   UNL     1       6.826   3.700  15.792  0.00  0.00    +0.000 C 
ATOM     28  O   UNL     1       7.253   4.918  16.416  0.00  0.00    +0.000 OA
ENDBRANCH  23  24
ENDBRANCH  21  23
ENDBRANCH   1  20
TORSDOF 4
ENDMDL
MODEL 8
REMARK VINA RESULT:      -7.3      2.219      4.458
REMARK  Name = 
REMARK  4 active torsions:
REMARK  status: ('A' for Active; 'I' for Inactive)
REMARK    1  A    between atoms: C_2  and  C_10
REMARK    2  A    between atoms: N_3  and  C_4
REMARK    3  A    between atoms: C_4  and  C_5
REMARK    4  A    between atoms: N_19  and  C_20
REMARK                            x       y       z     vdW  Elec       q    Type
REMARK                         _______ _______ _______ _____ _____    ______ ____
ROOT
ATOM      1  C   UNL     1       2.621   6.967  20.053  0.00  0.00    +0.000 C 
ATOM      2  C   UNL     1       3.560   6.645  18.923  0.00  0.00    +0.000 A 
ATOM      3  C   UNL     1       4.564   5.693  18.836  0.00  0.00    +0.000 A 
ATOM      4  C   UNL     1       5.280   5.595  17.637  0.00  0.00    +0.000 A 
ATOM      5  C   UNL     1       4.994   6.441  16.549  0.00  0.00    +0.000 A 
ATOM      6  C   UNL     1       3.988   7.399  16.645  0.00  0.00    +0.000 A 
ATOM      7  C   UNL     1       3.292   7.473  17.838  0.00  0.00    +0.000 A 
ATOM      8  C   UNL     1       2.198   8.377  18.200  0.00  0.00    +0.000 C 
ATOM      9  O   UNL     1       1.799   9.263  17.468  0.00  0.00    +0.000 OA
ATOM     10  N   UNL     1       1.792   8.043  19.482  0.00  0.00    +0.000 N 
ENDROOT
BRANCH  10  11
ATOM     11  C   UNL     1       0.719   8.709  20.244  0.00  0.00    +0.000 C 
ATOM     12  C   UNL     1       1.162   9.039  21.681  0.00  0.00    +0.000 C 
ATOM     13  C   UNL     1       0.021   9.362  22.652  0.00  0.00    +0.000 C 
ATOM     14  C   UNL     1      -0.820  10.614  22.394  0.00  0.00    +0.000 C 
ATOM     15  C   UNL     1      -0.031  11.875  22.046  0.00  0.00    +0.000 C 
ATOM     16  C   UNL     1      -0.024  12.223  20.556  0.00  0.00    +0.000 C 
ATOM     17  C   UNL     1       0.753  11.270  19.645  0.00  0.00    +0.000 C 
ATOM     18  C   UNL     1       0.116   9.888  19.449  0.00  0.00    +0.000 C 
ENDBRANCH  10  11
BRANCH   1  20
ATOM     19  O   UNL     1       0.657   5.513  20.285  0.00  0.00    +0.000 OA
ATOM     20  C   UNL     1       1.854   5.701  20.502  0.00  0.00    +0.000 C 
ATOM     21  N   UNL     1       2.644   4.773  21.161  0.00  0.00    +0.000 N 
ATOM     22  H   UNL     1       3.532   5.069  21.551  0.00  0.00    +0.000 HD
BRANCH  21  23
ATOM     23  C   UNL     1       2.119   3.520  21.688  0.00  0.00    +0.000 C 
BRANCH  23  24
ATOM     24  C   UNL     1       2.282   2.347  20.714  0.00  0.00    +0.000 C 
ATOM     25  C   UNL     1       3.571   2.352  19.910  0.00  0.00    +0.000 C 
ATOM     26  C   UNL     1       3.162   1.690  18.621  0.00  0.00    +0.000 C 
ATOM     27  C   UNL     1       1.737   2.168  18.451  0.00  0.00    +0.000 C 
ATOM     28  O   UNL     1       1.192   2.357  19.763  0.00  0.00    +0.000 OA
ENDBRANCH  23  24
ENDBRANCH  21  23
ENDBRANCH   1  20
TORSDOF 4
ENDMDL
MODEL 9
REMARK VINA RESULT:      -7.2      1.739      6.909
REMARK  Name = 
REMARK  4 active torsions:
REMARK  status: ('A' for Active; 'I' for Inactive)
REMARK    1  A    between atoms: C_2  and  C_10
REMARK    2  A    between atoms: N_3  and  C_4
REMARK    3  A    between atoms: C_4  and  C_5
REMARK    4  A    between atoms: N_19  and  C_20
REMARK                            x       y       z     vdW  Elec       q    Type
REMARK                         _______ _______ _______ _____ _____    ______ ____
ROOT
ATOM      1  C   UNL     1       3.414   5.558  19.641  0.00  0.00    +0.000 C 
ATOM      2  C   UNL     1       2.597   4.409  20.163  0.00  0.00    +0.000 A 
ATOM      3  C   UNL     1       1.700   4.355  21.219  0.00  0.00    +0.000 A 
ATOM      4  C   UNL     1       1.052   3.140  21.474  0.00  0.00    +0.000 A 
ATOM      5  C   UNL     1       1.303   2.003  20.684  0.00  0.00    +0.000 A 
ATOM      6  C   UNL     1       2.209   2.064  19.627  0.00  0.00    +0.000 A 
ATOM      7  C   UNL     1       2.833   3.275  19.393  0.00  0.00    +0.000 A 
ATOM      8  C   UNL     1       3.814   3.609  18.359  0.00  0.00    +0.000 C 
ATOM      9  O   UNL     1       4.266   2.789  17.583  0.00  0.00    +0.000 OA
ATOM     10  N   UNL     1       4.115   4.955  18.492  0.00  0.00    +0.000 N 
ENDROOT
BRANCH  10  11
ATOM     11  C   UNL     1       5.070   5.709  17.659  0.00  0.00    +0.000 C 
ATOM     12  C   UNL     1       6.527   5.318  17.965  0.00  0.00    +0.000 C 
ATOM     13  C   UNL     1       7.583   6.302  17.452  0.00  0.00    +0.000 C 
ATOM     14  C   UNL     1       7.725   6.492  15.940  0.00  0.00    +0.000 C 
ATOM     15  C   UNL     1       7.735   5.208  15.114  0.00  0.00    +0.000 C 
ATOM     16  C   UNL     1       6.411   4.899  14.413  0.00  0.00    +0.000 C 
ATOM     17  C   UNL     1       5.240   4.518  15.320  0.00  0.00    +0.000 C 
ATOM     18  C   UNL     1       4.670   5.662  16.168  0.00  0.00    +0.000 C 
ENDBRANCH  10  11
BRANCH   1  20
ATOM     19  O   UNL     1       2.120   7.040  18.173  0.00  0.00    +0.000 OA
ATOM     20  C   UNL     1       2.508   6.767  19.309  0.00  0.00    +0.000 C 
ATOM     21  N   UNL     1       2.147   7.516  20.418  0.00  0.00    +0.000 N 
ATOM     22  H   UNL     1       2.687   7.426  21.271  0.00  0.00    +0.000 HD
BRANCH  21  23
ATOM     23  C   UNL     1       1.315   8.709  20.329  0.00  0.00    +0.000 C 
BRANCH  23  24
ATOM     24  C   UNL     1       0.986   9.311  21.699  0.00  0.00    +0.000 C 
ATOM     25  C   UNL     1      -0.328   8.849  22.307  0.00  0.00    +0.000 C 
ATOM     26  C   UNL     1      -0.763  10.046  23.110  0.00  0.00    +0.000 C 
ATOM     27  C   UNL     1      -0.267  11.198  22.265  0.00  0.00    +0.000 C 
ATOM     28  O   UNL     1       0.914  10.751  21.588  0.00  0.00    +0.000 OA
ENDBRANCH  23  24
ENDBRANCH  21  23
ENDBRANCH   1  20
TORSDOF 4
ENDMDL
