MODEL 1
REMARK VINA RESULT:      -7.7      0.000      0.000
REMARK  Name = 
REMARK  7 active torsions:
REMARK  status: ('A' for Active; 'I' for Inactive)
REMARK    1  A    between atoms: C_1  and  C_2
REMARK    2  A    between atoms: C_2  and  N_3
REMARK    3  A    between atoms: C_4  and  C_6
REMARK    4  A    between atoms: C_8  and  S_9
REMARK    5  A    between atoms: S_9  and  C_12
REMARK    6  A    between atoms: C_17  and  C_18
REMARK    7  A    between atoms: C_28  and  C_29
REMARK                            x       y       z     vdW  Elec       q    Type
REMARK                         _______ _______ _______ _____ _____    ______ ____
ROOT
ATOM      1  C   UNL     1       1.415   9.713  18.661  0.00  0.00    +0.000 C 
ATOM      2  C   UNL     1       1.531   8.407  17.842  0.00  0.00    +0.000 C 
ATOM      3  C   UNL     1       2.543   7.588  18.632  0.00  0.00    +0.000 C 
ATOM      4  C   UNL     1       2.264   7.965  20.089  0.00  0.00    +0.000 C 
ATOM      5  N   UNL     1       1.477   9.206  20.048  0.00  0.00    +0.000 N 
ATOM      6  C   UNL     1       0.746   9.630  21.132  0.00  0.00    +0.000 A 
ATOM      7  C   UNL     1       0.775   8.943  22.341  0.00  0.00    +0.000 A 
ATOM      8  C   UNL     1      -0.039   9.367  23.370  0.00  0.00    +0.000 A 
ATOM      9  N   UNL     1      -0.829  10.440  23.271  0.00  0.00    +0.000 NA
ATOM     10  C   UNL     1      -0.768  11.077  22.090  0.00  0.00    +0.000 A 
ATOM     11  N   UNL     1      -0.006  10.732  21.028  0.00  0.00    +0.000 NA
ENDROOT
BRANCH   1  13
ATOM     12  N   UNL     1       0.346  11.918  18.377  0.00  0.00    +0.000 N 
ATOM     13  C   UNL     1       0.190  10.543  18.229  0.00  0.00    +0.000 C 
ATOM     14  O   UNL     1      -0.815  10.044  17.723  0.00  0.00    +0.000 OA
ATOM     15  H   UNL     1       1.020  12.224  19.070  0.00  0.00    +0.000 HD
BRANCH  12  17
ATOM     16  C   UNL     1      -0.613  14.182  18.673  0.00  0.00    +0.000 C 
ATOM     17  C   UNL     1      -0.764  12.800  18.065  0.00  0.00    +0.000 C 
ENDBRANCH  12  17
ENDBRANCH   1  13
BRANCH   3  18
ATOM     18  S   UNL     1       2.420   5.820  18.475  0.00  0.00    +0.000 S 
ATOM     19  O   UNL     1       2.531   5.225  19.794  0.00  0.00    +0.000 OA
ATOM     20  O   UNL     1       1.232   5.542  17.687  0.00  0.00    +0.000 OA
BRANCH  18  21
ATOM     21  C   UNL     1       3.818   5.186  17.545  0.00  0.00    +0.000 A 
ATOM     22  C   UNL     1       4.576   6.137  16.829  0.00  0.00    +0.000 A 
ATOM     23  C   UNL     1       5.554   5.739  15.914  0.00  0.00    +0.000 A 
ATOM     24  C   UNL     1       5.800   4.390  15.706  0.00  0.00    +0.000 A 
ATOM     25  C   UNL     1       5.061   3.441  16.412  0.00  0.00    +0.000 A 
ATOM     26  C   UNL     1       4.044   3.813  17.327  0.00  0.00    +0.000 A 
BRANCH  26  27
ATOM     27  C   UNL     1       3.273   2.670  17.942  0.00  0.00    +0.000 C 
ATOM     28  F   UNL     1       3.250   2.622  19.295  0.00  0.00    +0.000 F 
ATOM     29  F   UNL     1       1.975   2.637  17.537  0.00  0.00    +0.000 F 
ATOM     30  F   UNL     1       3.805   1.468  17.571  0.00  0.00    +0.000 F 
ENDBRANCH  26  27
ENDBRANCH  18  21
ENDBRANCH   3  18
BRANCH  10  31
ATOM     31  C   UNL     1      -1.567  12.270  21.955  0.00  0.00    +0.000 C 
ATOM     32  N   UNL     1      -2.222  13.219  21.840  0.00  0.00    +0.000 NA
ENDBRANCH  10  31
TORSDOF 6
ENDMDL
MODEL 2
REMARK VINA RESULT:      -7.6      1.057      1.274
REMARK  Name = 
REMARK  7 active torsions:
REMARK  status: ('A' for Active; 'I' for Inactive)
REMARK    1  A    between atoms: C_1  and  C_2
REMARK    2  A    between atoms: C_2  and  N_3
REMARK    3  A    between atoms: C_4  and  C_6
REMARK    4  A    between atoms: C_8  and  S_9
REMARK    5  A    between atoms: S_9  and  C_12
REMARK    6  A    between atoms: C_17  and  C_18
REMARK    7  A    between atoms: C_28  and  C_29
REMARK                            x       y       z     vdW  Elec       q    Type
REMARK                         _______ _______ _______ _____ _____    ______ ____
ROOT
ATOM      1  C   UNL     1       1.110   9.819  18.621  0.00  0.00    +0.000 C 
ATOM      2  C   UNL     1       1.291   8.502  17.833  0.00  0.00    +0.000 C 
ATOM      3  C   UNL     1       2.405   7.792  18.590  0.00  0.00    +0.000 C 
ATOM      4  C   UNL     1       2.170   8.190  20.050  0.00  0.00    +0.000 C 
ATOM      5  N   UNL     1       1.284   9.362  20.016  0.00  0.00    +0.000 N 
ATOM      6  C   UNL     1       0.576   9.760  21.126  0.00  0.00    +0.000 A 
ATOM      7  C   UNL     1       0.722   9.114  22.350  0.00  0.00    +0.000 A 
ATOM      8  C   UNL     1      -0.071   9.504  23.408  0.00  0.00    +0.000 A 
ATOM      9  N   UNL     1      -0.949  10.506  23.323  0.00  0.00    +0.000 NA
ATOM     10  C   UNL     1      -1.000  11.110  22.123  0.00  0.00    +0.000 A 
ATOM     11  N   UNL     1      -0.268  10.794  21.032  0.00  0.00    +0.000 NA
ENDROOT
BRANCH   1  13
ATOM     12  N   UNL     1      -1.286   9.685  18.048  0.00  0.00    +0.000 N 
ATOM     13  C   UNL     1      -0.198  10.535  18.233  0.00  0.00    +0.000 C 
ATOM     14  O   UNL     1      -0.300  11.760  18.166  0.00  0.00    +0.000 OA
ATOM     15  H   UNL     1      -1.072   8.726  17.801  0.00  0.00    +0.000 HD
BRANCH  12  17
ATOM     16  C   UNL     1      -2.736  10.206  16.110  0.00  0.00    +0.000 C 
ATOM     17  C   UNL     1      -2.556  10.237  17.616  0.00  0.00    +0.000 C 
ENDBRANCH  12  17
ENDBRANCH   1  13
BRANCH   3  18
ATOM     18  S   UNL     1       2.419   6.015  18.488  0.00  0.00    +0.000 S 
ATOM     19  O   UNL     1       2.619   5.472  19.818  0.00  0.00    +0.000 OA
ATOM     20  O   UNL     1       1.232   5.620  17.750  0.00  0.00    +0.000 OA
BRANCH  18  21
ATOM     21  C   UNL     1       3.832   5.465  17.528  0.00  0.00    +0.000 A 
ATOM     22  C   UNL     1       4.556   6.468  16.849  0.00  0.00    +0.000 A 
ATOM     23  C   UNL     1       5.541   6.140  15.915  0.00  0.00    +0.000 A 
ATOM     24  C   UNL     1       5.830   4.809  15.652  0.00  0.00    +0.000 A 
ATOM     25  C   UNL     1       5.126   3.808  16.321  0.00  0.00    +0.000 A 
ATOM     26  C   UNL     1       4.101   4.110  17.254  0.00  0.00    +0.000 A 
BRANCH  26  27
ATOM     27  C   UNL     1       3.371   2.918  17.824  0.00  0.00    +0.000 C 
ATOM     28  F   UNL     1       3.315   2.840  19.175  0.00  0.00    +0.000 F 
ATOM     29  F   UNL     1       2.087   2.833  17.385  0.00  0.00    +0.000 F 
ATOM     30  F   UNL     1       3.969   1.751  17.443  0.00  0.00    +0.000 F 
ENDBRANCH  26  27
ENDBRANCH  18  21
ENDBRANCH   3  18
BRANCH  10  31
ATOM     31  C   UNL     1      -1.900  12.231  21.999  0.00  0.00    +0.000 C 
ATOM     32  N   UNL     1      -2.613  13.137  21.885  0.00  0.00    +0.000 NA
ENDBRANCH  10  31
TORSDOF 6
ENDMDL
MODEL 3
REMARK VINA RESULT:      -7.1      2.315      3.795
REMARK  Name = 
REMARK  7 active torsions:
REMARK  status: ('A' for Active; 'I' for Inactive)
REMARK    1  A    between atoms: C_1  and  C_2
REMARK    2  A    between atoms: C_2  and  N_3
REMARK    3  A    between atoms: C_4  and  C_6
REMARK    4  A    between atoms: C_8  and  S_9
REMARK    5  A    between atoms: S_9  and  C_12
REMARK    6  A    between atoms: C_17  and  C_18
REMARK    7  A    between atoms: C_28  and  C_29
REMARK                            x       y       z     vdW  Elec       q    Type
REMARK                         _______ _______ _______ _____ _____    ______ ____
ROOT
ATOM      1  C   UNL     1       0.755   9.000  20.111  0.00  0.00    +0.000 C 
ATOM      2  C   UNL     1       1.632   7.728  20.079  0.00  0.00    +0.000 C 
ATOM      3  C   UNL     1       1.897   7.525  18.593  0.00  0.00    +0.000 C 
ATOM      4  C   UNL     1       1.983   8.948  18.036  0.00  0.00    +0.000 C 
ATOM      5  N   UNL     1       1.375   9.821  19.049  0.00  0.00    +0.000 N 
ATOM      6  C   UNL     1       1.601  11.177  19.059  0.00  0.00    +0.000 A 
ATOM      7  C   UNL     1       2.358  11.794  18.068  0.00  0.00    +0.000 A 
ATOM      8  C   UNL     1       2.620  13.144  18.171  0.00  0.00    +0.000 A 
ATOM      9  N   UNL     1       2.143  13.899  19.163  0.00  0.00    +0.000 NA
ATOM     10  C   UNL     1       1.384  13.242  20.056  0.00  0.00    +0.000 A 
ATOM     11  N   UNL     1       1.078  11.925  20.038  0.00  0.00    +0.000 NA
ENDROOT
BRANCH   1  13
ATOM     12  N   UNL     1      -0.576  10.158  21.836  0.00  0.00    +0.000 N 
ATOM     13  C   UNL     1       0.655   9.582  21.535  0.00  0.00    +0.000 C 
ATOM     14  O   UNL     1       1.557   9.481  22.367  0.00  0.00    +0.000 OA
ATOM     15  H   UNL     1      -1.122  10.491  21.050  0.00  0.00    +0.000 HD
BRANCH  12  17
ATOM     16  C   UNL     1      -1.865  11.845  23.110  0.00  0.00    +0.000 C 
ATOM     17  C   UNL     1      -0.768  10.797  23.125  0.00  0.00    +0.000 C 
ENDBRANCH  12  17
ENDBRANCH   1  13
BRANCH   3  18
ATOM     18  S   UNL     1       3.397   6.664  18.172  0.00  0.00    +0.000 S 
ATOM     19  O   UNL     1       3.930   7.228  16.946  0.00  0.00    +0.000 OA
ATOM     20  O   UNL     1       4.237   6.663  19.357  0.00  0.00    +0.000 OA
BRANCH  18  21
ATOM     21  C   UNL     1       3.036   4.948  17.792  0.00  0.00    +0.000 A 
ATOM     22  C   UNL     1       1.848   4.422  18.341  0.00  0.00    +0.000 A 
ATOM     23  C   UNL     1       1.569   3.054  18.284  0.00  0.00    +0.000 A 
ATOM     24  C   UNL     1       2.464   2.191  17.668  0.00  0.00    +0.000 A 
ATOM     25  C   UNL     1       3.640   2.699  17.116  0.00  0.00    +0.000 A 
ATOM     26  C   UNL     1       3.963   4.079  17.183  0.00  0.00    +0.000 A 
BRANCH  26  27
ATOM     27  C   UNL     1       5.312   4.458  16.622  0.00  0.00    +0.000 C 
ATOM     28  F   UNL     1       5.308   5.354  15.607  0.00  0.00    +0.000 F 
ATOM     29  F   UNL     1       6.150   4.959  17.569  0.00  0.00    +0.000 F 
ATOM     30  F   UNL     1       5.949   3.366  16.106  0.00  0.00    +0.000 F 
ENDBRANCH  26  27
ENDBRANCH  18  21
ENDBRANCH   3  18
BRANCH  10  31
ATOM     31  C   UNL     1       0.805  14.027  21.119  0.00  0.00    +0.000 C 
ATOM     32  N   UNL     1       0.337  14.671  21.961  0.00  0.00    +0.000 NA
ENDBRANCH  10  31
TORSDOF 6
ENDMDL
MODEL 4
REMARK VINA RESULT:      -6.6      6.596     11.140
REMARK  Name = 
REMARK  7 active torsions:
REMARK  status: ('A' for Active; 'I' for Inactive)
REMARK    1  A    between atoms: C_1  and  C_2
REMARK    2  A    between atoms: C_2  and  N_3
REMARK    3  A    between atoms: C_4  and  C_6
REMARK    4  A    between atoms: C_8  and  S_9
REMARK    5  A    between atoms: S_9  and  C_12
REMARK    6  A    between atoms: C_17  and  C_18
REMARK    7  A    between atoms: C_28  and  C_29
REMARK                            x       y       z     vdW  Elec       q    Type
REMARK                         _______ _______ _______ _____ _____    ______ ____
ROOT
ATOM      1  C   UNL     1      -1.246  12.588  21.517  0.00  0.00    +0.000 C 
ATOM      2  C   UNL     1      -2.223  12.603  22.715  0.00  0.00    +0.000 C 
ATOM      3  C   UNL     1      -3.448  13.316  22.158  0.00  0.00    +0.000 C 
ATOM      4  C   UNL     1      -3.493  12.878  20.692  0.00  0.00    +0.000 C 
ATOM      5  N   UNL     1      -2.162  12.338  20.384  0.00  0.00    +0.000 N 
ATOM      6  C   UNL     1      -1.949  11.529  19.293  0.00  0.00    +0.000 A 
ATOM      7  C   UNL     1      -2.968  11.243  18.391  0.00  0.00    +0.000 A 
ATOM      8  C   UNL     1      -2.719  10.362  17.360  0.00  0.00    +0.000 A 
ATOM      9  N   UNL     1      -1.525   9.800  17.162  0.00  0.00    +0.000 NA
ATOM     10  C   UNL     1      -0.580  10.159  18.047  0.00  0.00    +0.000 A 
ATOM     11  N   UNL     1      -0.733  11.008  19.087  0.00  0.00    +0.000 NA
ENDROOT
BRANCH   1  13
ATOM     12  N   UNL     1      -0.463  10.334  22.144  0.00  0.00    +0.000 N 
ATOM     13  C   UNL     1      -0.076  11.613  21.754  0.00  0.00    +0.000 C 
ATOM     14  O   UNL     1       1.100  11.911  21.543  0.00  0.00    +0.000 OA
ATOM     15  H   UNL     1      -1.365  10.255  22.599  0.00  0.00    +0.000 HD
BRANCH  12  17
ATOM     16  C   UNL     1       0.798   8.364  21.330  0.00  0.00    +0.000 C 
ATOM     17  C   UNL     1       0.552   9.347  22.460  0.00  0.00    +0.000 C 
ENDBRANCH  12  17
ENDBRANCH   1  13
BRANCH   3  18
ATOM     18  S   UNL     1      -5.006  12.911  22.914  0.00  0.00    +0.000 S 
ATOM     19  O   UNL     1      -5.810  12.169  21.962  0.00  0.00    +0.000 OA
ATOM     20  O   UNL     1      -4.713  12.298  24.198  0.00  0.00    +0.000 OA
BRANCH  18  21
ATOM     21  C   UNL     1      -5.932  14.410  23.257  0.00  0.00    +0.000 A 
ATOM     22  C   UNL     1      -7.196  14.519  22.640  0.00  0.00    +0.000 A 
ATOM     23  C   UNL     1      -7.913  15.718  22.667  0.00  0.00    +0.000 A 
ATOM     24  C   UNL     1      -7.386  16.823  23.320  0.00  0.00    +0.000 A 
ATOM     25  C   UNL     1      -6.140  16.727  23.939  0.00  0.00    +0.000 A 
ATOM     26  C   UNL     1      -5.377  15.532  23.904  0.00  0.00    +0.000 A 
BRANCH  26  27
ATOM     27  C   UNL     1      -4.011  15.615  24.539  0.00  0.00    +0.000 C 
ATOM     28  F   UNL     1      -3.600  14.520  25.221  0.00  0.00    +0.000 F 
ATOM     29  F   UNL     1      -3.031  15.892  23.637  0.00  0.00    +0.000 F 
ATOM     30  F   UNL     1      -3.961  16.623  25.459  0.00  0.00    +0.000 F 
ENDBRANCH  26  27
ENDBRANCH  18  21
ENDBRANCH   3  18
BRANCH  10  31
ATOM     31  C   UNL     1       0.740   9.614  17.844  0.00  0.00    +0.000 C 
ATOM     32  N   UNL     1       1.797   9.175  17.663  0.00  0.00    +0.000 NA
ENDBRANCH  10  31
TORSDOF 6
ENDMDL
MODEL 5
REMARK VINA RESULT:      -6.5      4.761      8.276
REMARK  Name = 
REMARK  7 active torsions:
REMARK  status: ('A' for Active; 'I' for Inactive)
REMARK    1  A    between atoms: C_1  and  C_2
REMARK    2  A    between atoms: C_2  and  N_3
REMARK    3  A    between atoms: C_4  and  C_6
REMARK    4  A    between atoms: C_8  and  S_9
REMARK    5  A    between atoms: S_9  and  C_12
REMARK    6  A    between atoms: C_17  and  C_18
REMARK    7  A    between atoms: C_28  and  C_29
REMARK                            x       y       z     vdW  Elec       q    Type
REMARK                         _______ _______ _______ _____ _____    ______ ____
ROOT
ATOM      1  C   UNL     1       3.376   6.198  17.593  0.00  0.00    +0.000 C 
ATOM      2  C   UNL     1       3.381   7.742  17.664  0.00  0.00    +0.000 C 
ATOM      3  C   UNL     1       1.911   8.086  17.866  0.00  0.00    +0.000 C 
ATOM      4  C   UNL     1       1.378   6.935  18.724  0.00  0.00    +0.000 C 
ATOM      5  N   UNL     1       2.364   5.852  18.613  0.00  0.00    +0.000 N 
ATOM      6  C   UNL     1       2.405   4.821  19.522  0.00  0.00    +0.000 A 
ATOM      7  C   UNL     1       1.469   4.719  20.546  0.00  0.00    +0.000 A 
ATOM      8  C   UNL     1       1.605   3.710  21.476  0.00  0.00    +0.000 A 
ATOM      9  N   UNL     1       2.576   2.796  21.415  0.00  0.00    +0.000 NA
ATOM     10  C   UNL     1       3.413   2.933  20.373  0.00  0.00    +0.000 A 
ATOM     11  N   UNL     1       3.361   3.889  19.419  0.00  0.00    +0.000 NA
ENDROOT
BRANCH   1  13
ATOM     12  N   UNL     1       5.437   5.952  18.927  0.00  0.00    +0.000 N 
ATOM     13  C   UNL     1       4.799   5.622  17.735  0.00  0.00    +0.000 C 
ATOM     14  O   UNL     1       5.305   4.869  16.903  0.00  0.00    +0.000 OA
ATOM     15  H   UNL     1       5.122   6.797  19.388  0.00  0.00    +0.000 HD
BRANCH  12  17
ATOM     16  C   UNL     1       7.830   6.501  18.604  0.00  0.00    +0.000 C 
ATOM     17  C   UNL     1       6.806   5.522  19.146  0.00  0.00    +0.000 C 
ENDBRANCH  12  17
ENDBRANCH   1  13
BRANCH   3  18
ATOM     18  S   UNL     1       1.569   9.617  18.704  0.00  0.00    +0.000 S 
ATOM     19  O   UNL     1       1.665   9.399  20.135  0.00  0.00    +0.000 OA
ATOM     20  O   UNL     1       2.414  10.634  18.101  0.00  0.00    +0.000 OA
BRANCH  18  21
ATOM     21  C   UNL     1      -0.130  10.115  18.409  0.00  0.00    +0.000 A 
ATOM     22  C   UNL     1      -0.794   9.473  17.343  0.00  0.00    +0.000 A 
ATOM     23  C   UNL     1      -2.039   9.919  16.893  0.00  0.00    +0.000 A 
ATOM     24  C   UNL     1      -2.647  11.005  17.507  0.00  0.00    +0.000 A 
ATOM     25  C   UNL     1      -2.004  11.644  18.566  0.00  0.00    +0.000 A 
ATOM     26  C   UNL     1      -0.728  11.231  19.027  0.00  0.00    +0.000 A 
BRANCH  26  27
ATOM     27  C   UNL     1      -0.125  12.081  20.118  0.00  0.00    +0.000 C 
ATOM     28  F   UNL     1       0.127  11.457  21.293  0.00  0.00    +0.000 F 
ATOM     29  F   UNL     1       1.043  12.666  19.740  0.00  0.00    +0.000 F 
ATOM     30  F   UNL     1      -0.960  13.109  20.454  0.00  0.00    +0.000 F 
ENDBRANCH  26  27
ENDBRANCH  18  21
ENDBRANCH   3  18
BRANCH  10  31
ATOM     31  C   UNL     1       4.450   1.939  20.238  0.00  0.00    +0.000 C 
ATOM     32  N   UNL     1       5.272   1.128  20.138  0.00  0.00    +0.000 NA
ENDBRANCH  10  31
TORSDOF 6
ENDMDL
MODEL 6
REMARK VINA RESULT:      -6.4      2.302      3.771
REMARK  Name = 
REMARK  7 active torsions:
REMARK  status: ('A' for Active; 'I' for Inactive)
REMARK    1  A    between atoms: C_1  and  C_2
REMARK    2  A    between atoms: C_2  and  N_3
REMARK    3  A    between atoms: C_4  and  C_6
REMARK    4  A    between atoms: C_8  and  S_9
REMARK    5  A    between atoms: S_9  and  C_12
REMARK    6  A    between atoms: C_17  and  C_18
REMARK    7  A    between atoms: C_28  and  C_29
REMARK                            x       y       z     vdW  Elec       q    Type
REMARK                         _______ _______ _______ _____ _____    ______ ____
ROOT
ATOM      1  C   UNL     1       0.647   8.809  20.487  0.00  0.00    +0.000 C 
ATOM      2  C   UNL     1       1.538   7.560  20.667  0.00  0.00    +0.000 C 
ATOM      3  C   UNL     1       1.840   7.138  19.235  0.00  0.00    +0.000 C 
ATOM      4  C   UNL     1       1.923   8.461  18.471  0.00  0.00    +0.000 C 
ATOM      5  N   UNL     1       1.283   9.469  19.327  0.00  0.00    +0.000 N 
ATOM      6  C   UNL     1       1.494  10.814  19.136  0.00  0.00    +0.000 A 
ATOM      7  C   UNL     1       2.267  11.284  18.080  0.00  0.00    +0.000 A 
ATOM      8  C   UNL     1       2.512  12.638  17.983  0.00  0.00    +0.000 A 
ATOM      9  N   UNL     1       2.004  13.528  18.839  0.00  0.00    +0.000 NA
ATOM     10  C   UNL     1       1.232  13.002  19.804  0.00  0.00    +0.000 A 
ATOM     11  N   UNL     1       0.941  11.694  19.980  0.00  0.00    +0.000 NA
ENDROOT
BRANCH   1  13
ATOM     12  N   UNL     1      -0.710  10.254  21.956  0.00  0.00    +0.000 N 
ATOM     13  C   UNL     1       0.508   9.598  21.804  0.00  0.00    +0.000 C 
ATOM     14  O   UNL     1       1.367   9.589  22.686  0.00  0.00    +0.000 OA
ATOM     15  H   UNL     1      -1.206  10.487  21.104  0.00  0.00    +0.000 HD
BRANCH  12  17
ATOM     16  C   UNL     1      -2.150  11.979  22.997  0.00  0.00    +0.000 C 
ATOM     17  C   UNL     1      -0.932  11.083  23.126  0.00  0.00    +0.000 C 
ENDBRANCH  12  17
ENDBRANCH   1  13
BRANCH   3  18
ATOM     18  S   UNL     1       3.358   6.245  18.981  0.00  0.00    +0.000 S 
ATOM     19  O   UNL     1       4.019   6.774  17.803  0.00  0.00    +0.000 OA
ATOM     20  O   UNL     1       4.078   6.255  20.242  0.00  0.00    +0.000 OA
BRANCH  18  21
ATOM     21  C   UNL     1       3.006   4.526  18.600  0.00  0.00    +0.000 A 
ATOM     22  C   UNL     1       3.390   4.078  17.320  0.00  0.00    +0.000 A 
ATOM     23  C   UNL     1       2.987   2.829  16.840  0.00  0.00    +0.000 A 
ATOM     24  C   UNL     1       2.205   2.003  17.634  0.00  0.00    +0.000 A 
ATOM     25  C   UNL     1       1.823   2.433  18.905  0.00  0.00    +0.000 A 
ATOM     26  C   UNL     1       2.193   3.706  19.408  0.00  0.00    +0.000 A 
BRANCH  26  27
ATOM     27  C   UNL     1       1.626   4.061  20.760  0.00  0.00    +0.000 C 
ATOM     28  F   UNL     1       2.474   4.661  21.628  0.00  0.00    +0.000 F 
ATOM     29  F   UNL     1       0.535   4.869  20.674  0.00  0.00    +0.000 F 
ATOM     30  F   UNL     1       1.203   2.942  21.421  0.00  0.00    +0.000 F 
ENDBRANCH  26  27
ENDBRANCH  18  21
ENDBRANCH   3  18
BRANCH  10  31
ATOM     31  C   UNL     1       0.621  13.931  20.724  0.00  0.00    +0.000 C 
ATOM     32  N   UNL     1       0.130  14.664  21.475  0.00  0.00    +0.000 NA
ENDBRANCH  10  31
TORSDOF 6
ENDMDL
MODEL 7
REMARK VINA RESULT:      -6.3      4.752      8.417
REMARK  Name = 
REMARK  7 active torsions:
REMARK  status: ('A' for Active; 'I' for Inactive)
REMARK    1  A    between atoms: C_1  and  C_2
REMARK    2  A    between atoms: C_2  and  N_3
REMARK    3  A    between atoms: C_4  and  C_6
REMARK    4  A    between atoms: C_8  and  S_9
REMARK    5  A    between atoms: S_9  and  C_12
REMARK    6  A    between atoms: C_17  and  C_18
REMARK    7  A    between atoms: C_28  and  C_29
REMARK                            x       y       z     vdW  Elec       q    Type
REMARK                         _______ _______ _______ _____ _____    ______ ____
ROOT
ATOM      1  C   UNL     1       3.241   6.480  17.554  0.00  0.00    +0.000 C 
ATOM      2  C   UNL     1       3.216   8.021  17.666  0.00  0.00    +0.000 C 
ATOM      3  C   UNL     1       1.740   8.331  17.881  0.00  0.00    +0.000 C 
ATOM      4  C   UNL     1       1.233   7.148  18.709  0.00  0.00    +0.000 C 
ATOM      5  N   UNL     1       2.239   6.087  18.567  0.00  0.00    +0.000 N 
ATOM      6  C   UNL     1       2.303   5.033  19.448  0.00  0.00    +0.000 A 
ATOM      7  C   UNL     1       1.373   4.886  20.471  0.00  0.00    +0.000 A 
ATOM      8  C   UNL     1       1.531   3.856  21.374  0.00  0.00    +0.000 A 
ATOM      9  N   UNL     1       2.520   2.963  21.286  0.00  0.00    +0.000 NA
ATOM     10  C   UNL     1       3.351   3.145  20.246  0.00  0.00    +0.000 A 
ATOM     11  N   UNL     1       3.277   4.124  19.318  0.00  0.00    +0.000 NA
ENDROOT
BRANCH   1  13
ATOM     12  N   UNL     1       5.001   4.957  16.734  0.00  0.00    +0.000 N 
ATOM     13  C   UNL     1       4.675   5.929  17.676  0.00  0.00    +0.000 C 
ATOM     14  O   UNL     1       5.495   6.362  18.486  0.00  0.00    +0.000 OA
ATOM     15  H   UNL     1       4.227   4.435  16.338  0.00  0.00    +0.000 HD
BRANCH  12  17
ATOM     16  C   UNL     1       7.139   4.560  15.548  0.00  0.00    +0.000 C 
ATOM     17  C   UNL     1       6.302   4.317  16.790  0.00  0.00    +0.000 C 
ENDBRANCH  12  17
ENDBRANCH   1  13
BRANCH   3  18
ATOM     18  S   UNL     1       1.370   9.833  18.760  0.00  0.00    +0.000 S 
ATOM     19  O   UNL     1       1.444   9.570  20.185  0.00  0.00    +0.000 OA
ATOM     20  O   UNL     1       2.217  10.874  18.203  0.00  0.00    +0.000 OA
BRANCH  18  21
ATOM     21  C   UNL     1      -0.328  10.326  18.451  0.00  0.00    +0.000 A 
ATOM     22  C   UNL     1      -0.995   9.649  17.409  0.00  0.00    +0.000 A 
ATOM     23  C   UNL     1      -2.239  10.084  16.946  0.00  0.00    +0.000 A 
ATOM     24  C   UNL     1      -2.843  11.193  17.522  0.00  0.00    +0.000 A 
ATOM     25  C   UNL     1      -2.196  11.866  18.557  0.00  0.00    +0.000 A 
ATOM     26  C   UNL     1      -0.920  11.465  19.030  0.00  0.00    +0.000 A 
BRANCH  26  27
ATOM     27  C   UNL     1      -0.312  12.350  20.090  0.00  0.00    +0.000 C 
ATOM     28  F   UNL     1      -0.041  11.761  21.279  0.00  0.00    +0.000 F 
ATOM     29  F   UNL     1       0.846  12.935  19.682  0.00  0.00    +0.000 F 
ATOM     30  F   UNL     1      -1.152  13.379  20.407  0.00  0.00    +0.000 F 
ENDBRANCH  26  27
ENDBRANCH  18  21
ENDBRANCH   3  18
BRANCH  10  31
ATOM     31  C   UNL     1       4.407   2.175  20.082  0.00  0.00    +0.000 C 
ATOM     32  N   UNL     1       5.260   1.399  19.968  0.00  0.00    +0.000 NA
ENDBRANCH  10  31
TORSDOF 6
ENDMDL
MODEL 8
REMARK VINA RESULT:      -6.1      1.627      2.105
REMARK  Name = 
REMARK  7 active torsions:
REMARK  status: ('A' for Active; 'I' for Inactive)
REMARK    1  A    between atoms: C_1  and  C_2
REMARK    2  A    between atoms: C_2  and  N_3
REMARK    3  A    between atoms: C_4  and  C_6
REMARK    4  A    between atoms: C_8  and  S_9
REMARK    5  A    between atoms: S_9  and  C_12
REMARK    6  A    between atoms: C_17  and  C_18
REMARK    7  A    between atoms: C_28  and  C_29
REMARK                            x       y       z     vdW  Elec       q    Type
REMARK                         _______ _______ _______ _____ _____    ______ ____
ROOT
ATOM      1  C   UNL     1       1.423   9.467  19.328  0.00  0.00    +0.000 C 
ATOM      2  C   UNL     1       1.569   7.995  18.881  0.00  0.00    +0.000 C 
ATOM      3  C   UNL     1       2.246   7.334  20.074  0.00  0.00    +0.000 C 
ATOM      4  C   UNL     1       1.670   8.077  21.282  0.00  0.00    +0.000 C 
ATOM      5  N   UNL     1       1.081   9.316  20.758  0.00  0.00    +0.000 N 
ATOM      6  C   UNL     1       0.167  10.041  21.485  0.00  0.00    +0.000 A 
ATOM      7  C   UNL     1      -0.187   9.673  22.779  0.00  0.00    +0.000 A 
ATOM      8  C   UNL     1      -1.168  10.391  23.432  0.00  0.00    +0.000 A 
ATOM      9  N   UNL     1      -1.767  11.454  22.891  0.00  0.00    +0.000 NA
ATOM     10  C   UNL     1      -1.340  11.774  21.658  0.00  0.00    +0.000 A 
ATOM     11  N   UNL     1      -0.392  11.130  20.942  0.00  0.00    +0.000 NA
ENDROOT
BRANCH   1  13
ATOM     12  N   UNL     1      -0.721   9.561  18.111  0.00  0.00    +0.000 N 
ATOM     13  C   UNL     1       0.455  10.242  18.412  0.00  0.00    +0.000 C 
ATOM     14  O   UNL     1       0.663  11.396  18.038  0.00  0.00    +0.000 OA
ATOM     15  H   UNL     1      -0.684   8.550  18.166  0.00  0.00    +0.000 HD
BRANCH  12  17
ATOM     16  C   UNL     1      -3.116   9.790  17.524  0.00  0.00    +0.000 C 
ATOM     17  C   UNL     1      -1.681  10.163  17.203  0.00  0.00    +0.000 C 
ENDBRANCH  12  17
ENDBRANCH   1  13
BRANCH   3  18
ATOM     18  S   UNL     1       1.944   5.594  20.286  0.00  0.00    +0.000 S 
ATOM     19  O   UNL     1       2.506   5.173  21.556  0.00  0.00    +0.000 OA
ATOM     20  O   UNL     1       0.527   5.374  20.050  0.00  0.00    +0.000 OA
BRANCH  18  21
ATOM     21  C   UNL     1       2.828   4.657  19.037  0.00  0.00    +0.000 A 
ATOM     22  C   UNL     1       3.697   5.392  18.203  0.00  0.00    +0.000 A 
ATOM     23  C   UNL     1       4.277   4.811  17.073  0.00  0.00    +0.000 A 
ATOM     24  C   UNL     1       4.011   3.485  16.763  0.00  0.00    +0.000 A 
ATOM     25  C   UNL     1       3.159   2.746  17.583  0.00  0.00    +0.000 A 
ATOM     26  C   UNL     1       2.533   3.317  18.721  0.00  0.00    +0.000 A 
BRANCH  26  27
ATOM     27  C   UNL     1       1.568   2.415  19.452  0.00  0.00    +0.000 C 
ATOM     28  F   UNL     1       0.254   2.710  19.317  0.00  0.00    +0.000 F 
ATOM     29  F   UNL     1       1.703   1.109  19.098  0.00  0.00    +0.000 F 
ATOM     30  F   UNL     1       1.787   2.457  20.799  0.00  0.00    +0.000 F 
ENDBRANCH  26  27
ENDBRANCH  18  21
ENDBRANCH   3  18
BRANCH  10  31
ATOM     31  C   UNL     1      -1.925  12.946  21.053  0.00  0.00    +0.000 C 
ATOM     32  N   UNL     1      -2.406  13.889  20.582  0.00  0.00    +0.000 NA
ENDBRANCH  10  31
TORSDOF 6
ENDMDL
MODEL 9
REMARK VINA RESULT:      -6.0      6.760     10.683
REMARK  Name = 
REMARK  7 active torsions:
REMARK  status: ('A' for Active; 'I' for Inactive)
REMARK    1  A    between atoms: C_1  and  C_2
REMARK    2  A    between atoms: C_2  and  N_3
REMARK    3  A    between atoms: C_4  and  C_6
REMARK    4  A    between atoms: C_8  and  S_9
REMARK    5  A    between atoms: S_9  and  C_12
REMARK    6  A    between atoms: C_17  and  C_18
REMARK    7  A    between atoms: C_28  and  C_29
REMARK                            x       y       z     vdW  Elec       q    Type
REMARK                         _______ _______ _______ _____ _____    ______ ____
ROOT
ATOM      1  C   UNL     1      -1.225  12.835  21.471  0.00  0.00    +0.000 C 
ATOM      2  C   UNL     1      -2.266  12.969  22.606  0.00  0.00    +0.000 C 
ATOM      3  C   UNL     1      -3.399  13.748  21.951  0.00  0.00    +0.000 C 
ATOM      4  C   UNL     1      -3.393  13.257  20.501  0.00  0.00    +0.000 C 
ATOM      5  N   UNL     1      -2.091  12.609  20.294  0.00  0.00    +0.000 N 
ATOM      6  C   UNL     1      -1.877  11.744  19.247  0.00  0.00    +0.000 A 
ATOM      7  C   UNL     1      -2.861  11.499  18.295  0.00  0.00    +0.000 A 
ATOM      8  C   UNL     1      -2.621  10.562  17.312  0.00  0.00    +0.000 A 
ATOM      9  N   UNL     1      -1.463   9.905  17.207  0.00  0.00    +0.000 NA
ATOM     10  C   UNL     1      -0.547  10.229  18.135  0.00  0.00    +0.000 A 
ATOM     11  N   UNL     1      -0.694  11.127  19.134  0.00  0.00    +0.000 NA
ENDROOT
BRANCH   1  13
ATOM     12  N   UNL     1      -0.653  10.571  22.267  0.00  0.00    +0.000 N 
ATOM     13  C   UNL     1      -0.149  11.787  21.812  0.00  0.00    +0.000 C 
ATOM     14  O   UNL     1       1.054  11.973  21.627  0.00  0.00    +0.000 OA
ATOM     15  H   UNL     1      -1.573  10.595  22.692  0.00  0.00    +0.000 HD
BRANCH  12  17
ATOM     16  C   UNL     1       0.551   8.517  21.587  0.00  0.00    +0.000 C 
ATOM     17  C   UNL     1       0.266   9.528  22.682  0.00  0.00    +0.000 C 
ENDBRANCH  12  17
ENDBRANCH   1  13
BRANCH   3  18
ATOM     18  S   UNL     1      -5.025  13.490  22.626  0.00  0.00    +0.000 S 
ATOM     19  O   UNL     1      -5.052  12.207  23.302  0.00  0.00    +0.000 OA
ATOM     20  O   UNL     1      -5.367  14.680  23.386  0.00  0.00    +0.000 OA
BRANCH  18  21
ATOM     21  C   UNL     1      -6.228  13.359  21.301  0.00  0.00    +0.000 A 
ATOM     22  C   UNL     1      -6.610  12.052  20.930  0.00  0.00    +0.000 A 
ATOM     23  C   UNL     1      -7.377  11.821  19.786  0.00  0.00    +0.000 A 
ATOM     24  C   UNL     1      -7.785  12.889  19.000  0.00  0.00    +0.000 A 
ATOM     25  C   UNL     1      -7.419  14.186  19.358  0.00  0.00    +0.000 A 
ATOM     26  C   UNL     1      -6.618  14.449  20.499  0.00  0.00    +0.000 A 
BRANCH  26  27
ATOM     27  C   UNL     1      -6.231  15.893  20.701  0.00  0.00    +0.000 C 
ATOM     28  F   UNL     1      -4.904  16.151  20.792  0.00  0.00    +0.000 F 
ATOM     29  F   UNL     1      -6.709  16.705  19.719  0.00  0.00    +0.000 F 
ATOM     30  F   UNL     1      -6.750  16.380  21.866  0.00  0.00    +0.000 F 
ENDBRANCH  26  27
ENDBRANCH  18  21
ENDBRANCH   3  18
BRANCH  10  31
ATOM     31  C   UNL     1       0.738   9.580  18.031  0.00  0.00    +0.000 C 
ATOM     32  N   UNL     1       1.765   9.049  17.963  0.00  0.00    +0.000 NA
ENDBRANCH  10  31
TORSDOF 6
ENDMDL
