MODEL 1
REMARK VINA RESULT:      -7.9      0.000      0.000
REMARK  Name = 
REMARK  3 active torsions:
REMARK  status: ('A' for Active; 'I' for Inactive)
REMARK    1  A    between atoms: C_1  and  O_2
REMARK    2  A    between atoms: O_2  and  C_3
REMARK    3  A    between atoms: C_8  and  C_9
REMARK                            x       y       z     vdW  Elec       q    Type
REMARK                         _______ _______ _______ _____ _____    ______ ____
ROOT
ATOM      1  C   UNL     1       5.451   4.663  16.050  0.00  0.00    +0.000 A 
ATOM      2  C   UNL     1       5.410   6.015  15.724  0.00  0.00    +0.000 A 
ATOM      3  C   UNL     1       4.621   6.894  16.474  0.00  0.00    +0.000 A 
ATOM      4  C   UNL     1       3.868   6.461  17.553  0.00  0.00    +0.000 A 
ATOM      5  N   UNL     1       3.144   7.359  18.239  0.00  0.00    +0.000 NA
ATOM      6  C   UNL     1       2.430   6.915  19.305  0.00  0.00    +0.000 A 
ATOM      7  C   UNL     1       2.400   5.590  19.708  0.00  0.00    +0.000 A 
ATOM      8  C   UNL     1       3.146   4.665  18.984  0.00  0.00    +0.000 A 
ATOM      9  C   UNL     1       3.906   5.091  17.887  0.00  0.00    +0.000 A 
ATOM     10  C   UNL     1       4.695   4.204  17.130  0.00  0.00    +0.000 A 
ENDROOT
BRANCH   6  11
ATOM     11  C   UNL     1       1.696   7.952  20.022  0.00  0.00    +0.000 A 
ATOM     12  N   UNL     1       1.282   9.120  19.563  0.00  0.00    +0.000 NA
ATOM     13  C   UNL     1       0.623   9.719  20.610  0.00  0.00    +0.000 A 
ATOM     14  C   UNL     1      -0.024  10.961  20.669  0.00  0.00    +0.000 A 
ATOM     15  C   UNL     1      -0.626  11.348  21.873  0.00  0.00    +0.000 A 
ATOM     16  C   UNL     1      -0.583  10.517  22.995  0.00  0.00    +0.000 A 
ATOM     17  C   UNL     1       0.056   9.271  22.955  0.00  0.00    +0.000 A 
ATOM     18  C   UNL     1       0.644   8.911  21.741  0.00  0.00    +0.000 A 
ATOM     19  N   UNL     1       1.328   7.797  21.339  0.00  0.00    +0.000 N 
ATOM     20  H   UNL     1       1.538   6.974  21.884  0.00  0.00    +0.000 HD
ENDBRANCH   6  11
BRANCH   1  22
ATOM     21  C   UNL     1       6.309   3.851  13.993  0.00  0.00    +0.000 C 
ATOM     22  O   UNL     1       6.184   3.707  15.404  0.00  0.00    +0.000 OA
ENDBRANCH   1  22
TORSDOF 2
ENDMDL
MODEL 2
REMARK VINA RESULT:      -7.6      0.327      1.307
REMARK  Name = 
REMARK  3 active torsions:
REMARK  status: ('A' for Active; 'I' for Inactive)
REMARK    1  A    between atoms: C_1  and  O_2
REMARK    2  A    between atoms: O_2  and  C_3
REMARK    3  A    between atoms: C_8  and  C_9
REMARK                            x       y       z     vdW  Elec       q    Type
REMARK                         _______ _______ _______ _____ _____    ______ ____
ROOT
ATOM      1  C   UNL     1       5.300   4.724  16.302  0.00  0.00    +0.000 A 
ATOM      2  C   UNL     1       5.188   6.065  15.946  0.00  0.00    +0.000 A 
ATOM      3  C   UNL     1       4.387   6.927  16.702  0.00  0.00    +0.000 A 
ATOM      4  C   UNL     1       3.690   6.487  17.816  0.00  0.00    +0.000 A 
ATOM      5  N   UNL     1       2.950   7.369  18.506  0.00  0.00    +0.000 NA
ATOM      6  C   UNL     1       2.293   6.920  19.606  0.00  0.00    +0.000 A 
ATOM      7  C   UNL     1       2.335   5.605  20.039  0.00  0.00    +0.000 A 
ATOM      8  C   UNL     1       3.096   4.696  19.312  0.00  0.00    +0.000 A 
ATOM      9  C   UNL     1       3.800   5.129  18.180  0.00  0.00    +0.000 A 
ATOM     10  C   UNL     1       4.602   4.259  17.417  0.00  0.00    +0.000 A 
ENDROOT
BRANCH   6  11
ATOM     11  C   UNL     1       1.538   7.942  20.324  0.00  0.00    +0.000 A 
ATOM     12  N   UNL     1       1.080   7.896  21.563  0.00  0.00    +0.000 NA
ATOM     13  C   UNL     1       0.461   9.105  21.776  0.00  0.00    +0.000 A 
ATOM     14  C   UNL     1      -0.181   9.593  22.922  0.00  0.00    +0.000 A 
ATOM     15  C   UNL     1      -0.742  10.876  22.882  0.00  0.00    +0.000 A 
ATOM     16  C   UNL     1      -0.666  11.656  21.726  0.00  0.00    +0.000 A 
ATOM     17  C   UNL     1      -0.026  11.187  20.571  0.00  0.00    +0.000 A 
ATOM     18  C   UNL     1       0.527   9.906  20.642  0.00  0.00    +0.000 A 
ATOM     19  N   UNL     1       1.216   9.146  19.738  0.00  0.00    +0.000 N 
ATOM     20  H   UNL     1       1.475   9.394  18.795  0.00  0.00    +0.000 HD
ENDBRANCH   6  11
BRANCH   1  22
ATOM     21  C   UNL     1       6.493   4.123  14.341  0.00  0.00    +0.000 C 
ATOM     22  O   UNL     1       6.052   3.785  15.652  0.00  0.00    +0.000 OA
ENDBRANCH   1  22
TORSDOF 2
ENDMDL
MODEL 3
REMARK VINA RESULT:      -7.5      3.142      8.083
REMARK  Name = 
REMARK  3 active torsions:
REMARK  status: ('A' for Active; 'I' for Inactive)
REMARK    1  A    between atoms: C_1  and  O_2
REMARK    2  A    between atoms: O_2  and  C_3
REMARK    3  A    between atoms: C_8  and  C_9
REMARK                            x       y       z     vdW  Elec       q    Type
REMARK                         _______ _______ _______ _____ _____    ______ ____
ROOT
ATOM      1  C   UNL     1      -0.689  10.752  22.472  0.00  0.00    +0.000 A 
ATOM      2  C   UNL     1      -0.054   9.660  23.055  0.00  0.00    +0.000 A 
ATOM      3  C   UNL     1       0.725   8.801  22.273  0.00  0.00    +0.000 A 
ATOM      4  C   UNL     1       0.894   9.003  20.912  0.00  0.00    +0.000 A 
ATOM      5  N   UNL     1       1.666   8.149  20.222  0.00  0.00    +0.000 NA
ATOM      6  C   UNL     1       1.834   8.379  18.895  0.00  0.00    +0.000 A 
ATOM      7  C   UNL     1       1.241   9.434  18.220  0.00  0.00    +0.000 A 
ATOM      8  C   UNL     1       0.435  10.308  18.942  0.00  0.00    +0.000 A 
ATOM      9  C   UNL     1       0.252  10.108  20.316  0.00  0.00    +0.000 A 
ATOM     10  C   UNL     1      -0.536  10.971  21.101  0.00  0.00    +0.000 A 
ENDROOT
BRANCH   6  11
ATOM     11  C   UNL     1       2.712   7.430  18.218  0.00  0.00    +0.000 A 
ATOM     12  N   UNL     1       3.753   7.692  17.447  0.00  0.00    +0.000 NA
ATOM     13  C   UNL     1       4.256   6.468  17.075  0.00  0.00    +0.000 A 
ATOM     14  C   UNL     1       5.364   6.162  16.272  0.00  0.00    +0.000 A 
ATOM     15  C   UNL     1       5.672   4.816  16.038  0.00  0.00    +0.000 A 
ATOM     16  C   UNL     1       4.893   3.796  16.590  0.00  0.00    +0.000 A 
ATOM     17  C   UNL     1       3.784   4.082  17.397  0.00  0.00    +0.000 A 
ATOM     18  C   UNL     1       3.504   5.432  17.616  0.00  0.00    +0.000 A 
ATOM     19  N   UNL     1       2.533   6.071  18.338  0.00  0.00    +0.000 N 
ATOM     20  H   UNL     1       1.798   5.650  18.887  0.00  0.00    +0.000 HD
ENDBRANCH   6  11
BRANCH   1  22
ATOM     21  C   UNL     1      -2.432  12.356  22.336  0.00  0.00    +0.000 C 
ATOM     22  O   UNL     1      -1.468  11.666  23.125  0.00  0.00    +0.000 OA
ENDBRANCH   1  22
TORSDOF 2
ENDMDL
MODEL 4
REMARK VINA RESULT:      -7.4      3.121      8.162
REMARK  Name = 
REMARK  3 active torsions:
REMARK  status: ('A' for Active; 'I' for Inactive)
REMARK    1  A    between atoms: C_1  and  O_2
REMARK    2  A    between atoms: O_2  and  C_3
REMARK    3  A    between atoms: C_8  and  C_9
REMARK                            x       y       z     vdW  Elec       q    Type
REMARK                         _______ _______ _______ _____ _____    ______ ____
ROOT
ATOM      1  C   UNL     1      -0.622  10.801  22.470  0.00  0.00    +0.000 A 
ATOM      2  C   UNL     1      -0.103   9.655  23.065  0.00  0.00    +0.000 A 
ATOM      3  C   UNL     1       0.640   8.745  22.307  0.00  0.00    +0.000 A 
ATOM      4  C   UNL     1       0.888   8.948  20.958  0.00  0.00    +0.000 A 
ATOM      5  N   UNL     1       1.620   8.043  20.291  0.00  0.00    +0.000 NA
ATOM      6  C   UNL     1       1.867   8.273  18.976  0.00  0.00    +0.000 A 
ATOM      7  C   UNL     1       1.391   9.379  18.291  0.00  0.00    +0.000 A 
ATOM      8  C   UNL     1       0.624  10.306  18.988  0.00  0.00    +0.000 A 
ATOM      9  C   UNL     1       0.363  10.107  20.350  0.00  0.00    +0.000 A 
ATOM     10  C   UNL     1      -0.390  11.022  21.111  0.00  0.00    +0.000 A 
ENDROOT
BRANCH   6  11
ATOM     11  C   UNL     1       2.698   7.265  18.327  0.00  0.00    +0.000 A 
ATOM     12  N   UNL     1       2.603   5.950  18.418  0.00  0.00    +0.000 NA
ATOM     13  C   UNL     1       3.591   5.448  17.606  0.00  0.00    +0.000 A 
ATOM     14  C   UNL     1       3.928   4.117  17.322  0.00  0.00    +0.000 A 
ATOM     15  C   UNL     1       4.995   3.866  16.450  0.00  0.00    +0.000 A 
ATOM     16  C   UNL     1       5.712   4.917  15.874  0.00  0.00    +0.000 A 
ATOM     17  C   UNL     1       5.388   6.254  16.142  0.00  0.00    +0.000 A 
ATOM     18  C   UNL     1       4.319   6.473  17.013  0.00  0.00    +0.000 A 
ATOM     19  N   UNL     1       3.730   7.613  17.485  0.00  0.00    +0.000 N 
ATOM     20  H   UNL     1       3.975   8.568  17.268  0.00  0.00    +0.000 HD
ENDBRANCH   6  11
BRANCH   1  22
ATOM     21  C   UNL     1      -1.632  12.944  22.349  0.00  0.00    +0.000 C 
ATOM     22  O   UNL     1      -1.357  11.766  23.100  0.00  0.00    +0.000 OA
ENDBRANCH   1  22
TORSDOF 2
ENDMDL
MODEL 5
REMARK VINA RESULT:      -7.2      2.077      3.009
REMARK  Name = 
REMARK  3 active torsions:
REMARK  status: ('A' for Active; 'I' for Inactive)
REMARK    1  A    between atoms: C_1  and  O_2
REMARK    2  A    between atoms: O_2  and  C_3
REMARK    3  A    between atoms: C_8  and  C_9
REMARK                            x       y       z     vdW  Elec       q    Type
REMARK                         _______ _______ _______ _____ _____    ______ ____
ROOT
ATOM      1  C   UNL     1       3.396   4.060  18.634  0.00  0.00    +0.000 A 
ATOM      2  C   UNL     1       2.938   4.016  19.948  0.00  0.00    +0.000 A 
ATOM      3  C   UNL     1       2.375   5.155  20.532  0.00  0.00    +0.000 A 
ATOM      4  C   UNL     1       2.250   6.348  19.838  0.00  0.00    +0.000 A 
ATOM      5  N   UNL     1       1.687   7.400  20.453  0.00  0.00    +0.000 NA
ATOM      6  C   UNL     1       1.557   8.551  19.746  0.00  0.00    +0.000 A 
ATOM      7  C   UNL     1       1.986   8.698  18.437  0.00  0.00    +0.000 A 
ATOM      8  C   UNL     1       2.577   7.605  17.811  0.00  0.00    +0.000 A 
ATOM      9  C   UNL     1       2.713   6.397  18.507  0.00  0.00    +0.000 A 
ATOM     10  C   UNL     1       3.285   5.253  17.918  0.00  0.00    +0.000 A 
ENDROOT
BRANCH   6  11
ATOM     11  C   UNL     1       0.906   9.639  20.468  0.00  0.00    +0.000 A 
ATOM     12  N   UNL     1       0.973  10.935  20.220  0.00  0.00    +0.000 NA
ATOM     13  C   UNL     1       0.172  11.536  21.161  0.00  0.00    +0.000 A 
ATOM     14  C   UNL     1      -0.129  12.892  21.348  0.00  0.00    +0.000 A 
ATOM     15  C   UNL     1      -0.984  13.252  22.397  0.00  0.00    +0.000 A 
ATOM     16  C   UNL     1      -1.528  12.283  23.242  0.00  0.00    +0.000 A 
ATOM     17  C   UNL     1      -1.243  10.922  23.070  0.00  0.00    +0.000 A 
ATOM     18  C   UNL     1      -0.390  10.594  22.014  0.00  0.00    +0.000 A 
ATOM     19  N   UNL     1       0.090   9.400  21.551  0.00  0.00    +0.000 N 
ATOM     20  H   UNL     1      -0.106   8.477  21.909  0.00  0.00    +0.000 HD
ENDBRANCH   6  11
BRANCH   1  22
ATOM     21  C   UNL     1       3.469   1.718  18.261  0.00  0.00    +0.000 C 
ATOM     22  O   UNL     1       3.957   3.019  17.949  0.00  0.00    +0.000 OA
ENDBRANCH   1  22
TORSDOF 2
ENDMDL
MODEL 6
REMARK VINA RESULT:      -7.2      1.250      2.544
REMARK  Name = 
REMARK  3 active torsions:
REMARK  status: ('A' for Active; 'I' for Inactive)
REMARK    1  A    between atoms: C_1  and  O_2
REMARK    2  A    between atoms: O_2  and  C_3
REMARK    3  A    between atoms: C_8  and  C_9
REMARK                            x       y       z     vdW  Elec       q    Type
REMARK                         _______ _______ _______ _____ _____    ______ ____
ROOT
ATOM      1  C   UNL     1       4.428   4.329  17.789  0.00  0.00    +0.000 A 
ATOM      2  C   UNL     1       3.900   3.980  19.029  0.00  0.00    +0.000 A 
ATOM      3  C   UNL     1       3.123   4.897  19.744  0.00  0.00    +0.000 A 
ATOM      4  C   UNL     1       2.851   6.164  19.252  0.00  0.00    +0.000 A 
ATOM      5  N   UNL     1       2.087   6.991  19.982  0.00  0.00    +0.000 NA
ATOM      6  C   UNL     1       1.816   8.220  19.471  0.00  0.00    +0.000 A 
ATOM      7  C   UNL     1       2.298   8.664  18.251  0.00  0.00    +0.000 A 
ATOM      8  C   UNL     1       3.097   7.803  17.506  0.00  0.00    +0.000 A 
ATOM      9  C   UNL     1       3.384   6.523  17.997  0.00  0.00    +0.000 A 
ATOM     10  C   UNL     1       4.170   5.602  17.278  0.00  0.00    +0.000 A 
ENDROOT
BRANCH   6  11
ATOM     11  C   UNL     1       0.952   9.049  20.305  0.00  0.00    +0.000 A 
ATOM     12  N   UNL     1       0.611   8.857  21.567  0.00  0.00    +0.000 NA
ATOM     13  C   UNL     1      -0.192   9.921  21.901  0.00  0.00    +0.000 A 
ATOM     14  C   UNL     1      -0.817  10.225  23.118  0.00  0.00    +0.000 A 
ATOM     15  C   UNL     1      -1.596  11.386  23.202  0.00  0.00    +0.000 A 
ATOM     16  C   UNL     1      -1.752  12.225  22.097  0.00  0.00    +0.000 A 
ATOM     17  C   UNL     1      -1.134  11.941  20.872  0.00  0.00    +0.000 A 
ATOM     18  C   UNL     1      -0.361  10.779  20.820  0.00  0.00    +0.000 A 
ATOM     19  N   UNL     1       0.378  10.204  19.823  0.00  0.00    +0.000 N 
ATOM     20  H   UNL     1       0.512  10.544  18.882  0.00  0.00    +0.000 HD
ENDBRANCH   6  11
BRANCH   1  22
ATOM     21  C   UNL     1       6.016   4.181  16.033  0.00  0.00    +0.000 C 
ATOM     22  O   UNL     1       5.193   3.525  16.992  0.00  0.00    +0.000 OA
ENDBRANCH   1  22
TORSDOF 2
ENDMDL
MODEL 7
REMARK VINA RESULT:      -7.2      1.373      2.529
REMARK  Name = 
REMARK  3 active torsions:
REMARK  status: ('A' for Active; 'I' for Inactive)
REMARK    1  A    between atoms: C_1  and  O_2
REMARK    2  A    between atoms: O_2  and  C_3
REMARK    3  A    between atoms: C_8  and  C_9
REMARK                            x       y       z     vdW  Elec       q    Type
REMARK                         _______ _______ _______ _____ _____    ______ ____
ROOT
ATOM      1  C   UNL     1       4.298   4.698  18.163  0.00  0.00    +0.000 A 
ATOM      2  C   UNL     1       3.781   4.484  19.437  0.00  0.00    +0.000 A 
ATOM      3  C   UNL     1       2.973   5.454  20.039  0.00  0.00    +0.000 A 
ATOM      4  C   UNL     1       2.660   6.643  19.399  0.00  0.00    +0.000 A 
ATOM      5  N   UNL     1       1.869   7.527  20.027  0.00  0.00    +0.000 NA
ATOM      6  C   UNL     1       1.558   8.675  19.373  0.00  0.00    +0.000 A 
ATOM      7  C   UNL     1       2.027   8.985  18.106  0.00  0.00    +0.000 A 
ATOM      8  C   UNL     1       2.855   8.068  17.468  0.00  0.00    +0.000 A 
ATOM      9  C   UNL     1       3.183   6.866  18.108  0.00  0.00    +0.000 A 
ATOM     10  C   UNL     1       4.000   5.891  17.503  0.00  0.00    +0.000 A 
ENDROOT
BRANCH   6  11
ATOM     11  C   UNL     1       0.667   9.570  20.103  0.00  0.00    +0.000 A 
ATOM     12  N   UNL     1      -0.027  10.591  19.631  0.00  0.00    +0.000 NA
ATOM     13  C   UNL     1      -0.723  11.096  20.703  0.00  0.00    +0.000 A 
ATOM     14  C   UNL     1      -1.622  12.169  20.763  0.00  0.00    +0.000 A 
ATOM     15  C   UNL     1      -2.206  12.488  21.995  0.00  0.00    +0.000 A 
ATOM     16  C   UNL     1      -1.900  11.755  23.144  0.00  0.00    +0.000 A 
ATOM     17  C   UNL     1      -1.007  10.677  23.104  0.00  0.00    +0.000 A 
ATOM     18  C   UNL     1      -0.443  10.380  21.862  0.00  0.00    +0.000 A 
ATOM     19  N   UNL     1       0.438   9.418  21.452  0.00  0.00    +0.000 N 
ATOM     20  H   UNL     1       0.864   8.695  22.012  0.00  0.00    +0.000 HD
ENDBRANCH   6  11
BRANCH   1  22
ATOM     21  C   UNL     1       5.306   4.131  16.091  0.00  0.00    +0.000 C 
ATOM     22  O   UNL     1       5.090   3.829  17.466  0.00  0.00    +0.000 OA
ENDBRANCH   1  22
TORSDOF 2
ENDMDL
MODEL 8
REMARK VINA RESULT:      -7.2      0.850      2.105
REMARK  Name = 
REMARK  3 active torsions:
REMARK  status: ('A' for Active; 'I' for Inactive)
REMARK    1  A    between atoms: C_1  and  O_2
REMARK    2  A    between atoms: O_2  and  C_3
REMARK    3  A    between atoms: C_8  and  C_9
REMARK                            x       y       z     vdW  Elec       q    Type
REMARK                         _______ _______ _______ _____ _____    ______ ____
ROOT
ATOM      1  C   UNL     1       5.019   4.071  16.696  0.00  0.00    +0.000 A 
ATOM      2  C   UNL     1       4.419   3.518  17.823  0.00  0.00    +0.000 A 
ATOM      3  C   UNL     1       3.645   4.317  18.671  0.00  0.00    +0.000 A 
ATOM      4  C   UNL     1       3.448   5.666  18.424  0.00  0.00    +0.000 A 
ATOM      5  N   UNL     1       2.683   6.374  19.270  0.00  0.00    +0.000 NA
ATOM      6  C   UNL     1       2.486   7.689  18.996  0.00  0.00    +0.000 A 
ATOM      7  C   UNL     1       3.044   8.335  17.905  0.00  0.00    +0.000 A 
ATOM      8  C   UNL     1       3.843   7.596  17.039  0.00  0.00    +0.000 A 
ATOM      9  C   UNL     1       4.055   6.233  17.284  0.00  0.00    +0.000 A 
ATOM     10  C   UNL     1       4.838   5.430  16.432  0.00  0.00    +0.000 A 
ENDROOT
BRANCH   6  11
ATOM     11  C   UNL     1       1.617   8.384  19.939  0.00  0.00    +0.000 A 
ATOM     12  N   UNL     1       1.293   8.020  21.168  0.00  0.00    +0.000 NA
ATOM     13  C   UNL     1       0.475   9.015  21.647  0.00  0.00    +0.000 A 
ATOM     14  C   UNL     1      -0.142   9.143  22.900  0.00  0.00    +0.000 A 
ATOM     15  C   UNL     1      -0.940  10.267  23.143  0.00  0.00    +0.000 A 
ATOM     16  C   UNL     1      -1.123  11.242  22.161  0.00  0.00    +0.000 A 
ATOM     17  C   UNL     1      -0.514  11.135  20.904  0.00  0.00    +0.000 A 
ATOM     18  C   UNL     1       0.280  10.005  20.692  0.00  0.00    +0.000 A 
ATOM     19  N   UNL     1       1.017   9.581  19.620  0.00  0.00    +0.000 N 
ATOM     20  H   UNL     1       1.134  10.045  18.732  0.00  0.00    +0.000 HD
ENDBRANCH   6  11
BRANCH   1  22
ATOM     21  C   UNL     1       6.035   4.060  14.552  0.00  0.00    +0.000 C 
ATOM     22  O   UNL     1       5.789   3.399  15.790  0.00  0.00    +0.000 OA
ENDBRANCH   1  22
TORSDOF 2
ENDMDL
MODEL 9
REMARK VINA RESULT:      -7.1      2.306      3.156
REMARK  Name = 
REMARK  3 active torsions:
REMARK  status: ('A' for Active; 'I' for Inactive)
REMARK    1  A    between atoms: C_1  and  O_2
REMARK    2  A    between atoms: O_2  and  C_3
REMARK    3  A    between atoms: C_8  and  C_9
REMARK                            x       y       z     vdW  Elec       q    Type
REMARK                         _______ _______ _______ _____ _____    ______ ____
ROOT
ATOM      1  C   UNL     1       3.400   3.096  19.689  0.00  0.00    +0.000 A 
ATOM      2  C   UNL     1       2.651   3.160  20.860  0.00  0.00    +0.000 A 
ATOM      3  C   UNL     1       2.041   4.360  21.239  0.00  0.00    +0.000 A 
ATOM      4  C   UNL     1       2.153   5.510  20.474  0.00  0.00    +0.000 A 
ATOM      5  N   UNL     1       1.530   6.625  20.887  0.00  0.00    +0.000 NA
ATOM      6  C   UNL     1       1.637   7.734  20.111  0.00  0.00    +0.000 A 
ATOM      7  C   UNL     1       2.363   7.776  18.932  0.00  0.00    +0.000 A 
ATOM      8  C   UNL     1       3.013   6.618  18.517  0.00  0.00    +0.000 A 
ATOM      9  C   UNL     1       2.911   5.451  19.287  0.00  0.00    +0.000 A 
ATOM     10  C   UNL     1       3.531   4.245  18.906  0.00  0.00    +0.000 A 
ENDROOT
BRANCH   6  11
ATOM     11  C   UNL     1       0.907   8.896  20.606  0.00  0.00    +0.000 A 
ATOM     12  N   UNL     1       0.682  10.041  19.985  0.00  0.00    +0.000 NA
ATOM     13  C   UNL     1      -0.066  10.796  20.856  0.00  0.00    +0.000 A 
ATOM     14  C   UNL     1      -0.592  12.086  20.701  0.00  0.00    +0.000 A 
ATOM     15  C   UNL     1      -1.329  12.642  21.754  0.00  0.00    +0.000 A 
ATOM     16  C   UNL     1      -1.537  11.930  22.937  0.00  0.00    +0.000 A 
ATOM     17  C   UNL     1      -1.023  10.639  23.110  0.00  0.00    +0.000 A 
ATOM     18  C   UNL     1      -0.296  10.109  22.043  0.00  0.00    +0.000 A 
ATOM     19  N   UNL     1       0.330   8.907  21.856  0.00  0.00    +0.000 N 
ATOM     20  H   UNL     1       0.375   8.130  22.498  0.00  0.00    +0.000 HD
ENDBRANCH   6  11
BRANCH   1  22
ATOM     21  C   UNL     1       3.615   1.517  17.931  0.00  0.00    +0.000 C 
ATOM     22  O   UNL     1       4.038   1.988  19.207  0.00  0.00    +0.000 OA
ENDBRANCH   1  22
TORSDOF 2
ENDMDL
