MODEL 1
REMARK VINA RESULT:      -7.5      0.000      0.000
REMARK  Name = 
REMARK  5 active torsions:
REMARK  status: ('A' for Active; 'I' for Inactive)
REMARK    1  A    between atoms: C_2  and  C_3
REMARK    2  A    between atoms: N_7  and  S_8
REMARK    3  A    between atoms: S_8  and  C_11
REMARK    4  A    between atoms: N_20  and  C_21
REMARK    5  A    between atoms: C_21  and  C_22
REMARK                            x       y       z     vdW  Elec       q    Type
REMARK                         _______ _______ _______ _____ _____    ______ ____
ROOT
ATOM      1  O   UNL     1       2.204   6.047  20.441  0.00  0.00    +0.000 OA
ATOM      2  C   UNL     1       2.084   6.485  19.288  0.00  0.00    +0.000 C 
ATOM      3  N   UNL     1       1.680   7.797  19.116  0.00  0.00    +0.000 N 
ATOM      4  C   UNL     1       1.325   8.437  17.848  0.00  0.00    +0.000 C 
ATOM      5  C   UNL     1       0.395   9.665  18.021  0.00  0.00    +0.000 C 
ATOM      6  N   UNL     1       0.818  10.638  19.058  0.00  0.00    +0.000 NA
ATOM      7  C   UNL     1       0.985   9.890  20.322  0.00  0.00    +0.000 C 
ATOM      8  C   UNL     1       1.959   8.709  20.236  0.00  0.00    +0.000 C 
ENDROOT
BRANCH   2   9
ATOM      9  C   UNL     1       2.301   5.526  18.097  0.00  0.00    +0.000 C 
ATOM     10  C   UNL     1       2.035   4.075  18.559  0.00  0.00    +0.000 C 
ATOM     11  C   UNL     1       3.111   3.607  19.550  0.00  0.00    +0.000 C 
ATOM     12  C   UNL     1       4.530   3.782  19.015  0.00  0.00    +0.000 C 
ATOM     13  N   UNL     1       4.735   5.131  18.421  0.00  0.00    +0.000 NA
ATOM     14  C   UNL     1       3.686   5.514  17.445  0.00  0.00    +0.000 C 
BRANCH  13  15
ATOM     15  S   UNL     1       6.341   5.431  17.900  0.00  0.00    +0.000 S 
ATOM     16  O   UNL     1       6.536   6.867  17.817  0.00  0.00    +0.000 OA
ATOM     17  O   UNL     1       7.239   4.594  18.667  0.00  0.00    +0.000 OA
BRANCH  15  18
ATOM     18  C   UNL     1       6.571   4.881  16.248  0.00  0.00    +0.000 A 
ATOM     19  C   UNL     1       6.040   3.727  15.707  0.00  0.00    +0.000 A 
ATOM     20  N   UNL     1       6.422   3.739  14.393  0.00  0.00    +0.000 N 
ATOM     21  C   UNL     1       7.155   4.874  14.185  0.00  0.00    +0.000 A 
ATOM     22  N   UNL     1       7.284   5.582  15.284  0.00  0.00    +0.000 NA
ATOM     23  H   UNL     1       6.193   3.046  13.691  0.00  0.00    +0.000 HD
ENDBRANCH  15  18
ENDBRANCH  13  15
ENDBRANCH   2   9
BRANCH   6  24
ATOM     24  C   UNL     1       2.044  11.341  18.628  0.00  0.00    +0.000 C 
BRANCH  24  25
ATOM     25  C   UNL     1       1.952  12.852  18.580  0.00  0.00    +0.000 A 
ATOM     26  C   UNL     1       0.747  13.491  18.919  0.00  0.00    +0.000 A 
ATOM     27  C   UNL     1       0.656  14.883  18.930  0.00  0.00    +0.000 A 
ATOM     28  C   UNL     1       1.767  15.654  18.603  0.00  0.00    +0.000 A 
ATOM     29  C   UNL     1       2.969  15.036  18.260  0.00  0.00    +0.000 A 
ATOM     30  C   UNL     1       3.063  13.640  18.249  0.00  0.00    +0.000 A 
ENDBRANCH  24  25
ENDBRANCH   6  24
TORSDOF 5
ENDMDL
MODEL 2
REMARK VINA RESULT:      -7.3      4.471      9.929
REMARK  Name = 
REMARK  5 active torsions:
REMARK  status: ('A' for Active; 'I' for Inactive)
REMARK    1  A    between atoms: C_2  and  C_3
REMARK    2  A    between atoms: N_7  and  S_8
REMARK    3  A    between atoms: S_8  and  C_11
REMARK    4  A    between atoms: N_20  and  C_21
REMARK    5  A    between atoms: C_21  and  C_22
REMARK                            x       y       z     vdW  Elec       q    Type
REMARK                         _______ _______ _______ _____ _____    ______ ____
ROOT
ATOM      1  O   UNL     1       0.273  10.725  20.963  0.00  0.00    +0.000 OA
ATOM      2  C   UNL     1       0.507  10.584  19.754  0.00  0.00    +0.000 C 
ATOM      3  N   UNL     1       1.205   9.464  19.340  0.00  0.00    +0.000 N 
ATOM      4  C   UNL     1       1.717   9.208  17.993  0.00  0.00    +0.000 C 
ATOM      5  C   UNL     1       2.902   8.208  17.966  0.00  0.00    +0.000 C 
ATOM      6  N   UNL     1       2.699   6.965  18.750  0.00  0.00    +0.000 NA
ATOM      7  C   UNL     1       2.345   7.366  20.128  0.00  0.00    +0.000 C 
ATOM      8  C   UNL     1       1.126   8.292  20.226  0.00  0.00    +0.000 C 
ENDROOT
BRANCH   2   9
ATOM      9  C   UNL     1       0.094  11.705  18.776  0.00  0.00    +0.000 C 
ATOM     10  C   UNL     1      -0.374  12.937  19.585  0.00  0.00    +0.000 C 
ATOM     11  C   UNL     1      -1.691  12.646  20.319  0.00  0.00    +0.000 C 
ATOM     12  C   UNL     1      -2.787  12.126  19.390  0.00  0.00    +0.000 C 
ATOM     13  N   UNL     1      -2.287  11.047  18.496  0.00  0.00    +0.000 NA
ATOM     14  C   UNL     1      -1.033  11.398  17.787  0.00  0.00    +0.000 C 
BRANCH  13  15
ATOM     15  S   UNL     1      -3.497  10.342  17.504  0.00  0.00    +0.000 S 
ATOM     16  O   UNL     1      -3.191  10.649  16.119  0.00  0.00    +0.000 OA
ATOM     17  O   UNL     1      -3.717   8.981  17.943  0.00  0.00    +0.000 OA
BRANCH  15  18
ATOM     18  C   UNL     1      -5.049  11.120  17.772  0.00  0.00    +0.000 A 
ATOM     19  C   UNL     1      -5.532  12.207  17.072  0.00  0.00    +0.000 A 
ATOM     20  N   UNL     1      -6.788  12.426  17.569  0.00  0.00    +0.000 N 
ATOM     21  C   UNL     1      -7.021  11.484  18.533  0.00  0.00    +0.000 A 
ATOM     22  N   UNL     1      -5.989  10.687  18.698  0.00  0.00    +0.000 NA
ATOM     23  H   UNL     1      -7.440  13.141  17.271  0.00  0.00    +0.000 HD
ENDBRANCH  15  18
ENDBRANCH  13  15
ENDBRANCH   2   9
BRANCH   6  24
ATOM     24  C   UNL     1       1.673   6.119  18.106  0.00  0.00    +0.000 C 
BRANCH  24  25
ATOM     25  C   UNL     1       1.771   4.635  18.394  0.00  0.00    +0.000 A 
ATOM     26  C   UNL     1       1.208   4.112  19.571  0.00  0.00    +0.000 A 
ATOM     27  C   UNL     1       1.243   2.742  19.831  0.00  0.00    +0.000 A 
ATOM     28  C   UNL     1       1.840   1.876  18.919  0.00  0.00    +0.000 A 
ATOM     29  C   UNL     1       2.406   2.379  17.748  0.00  0.00    +0.000 A 
ATOM     30  C   UNL     1       2.373   3.753  17.485  0.00  0.00    +0.000 A 
ENDBRANCH  24  25
ENDBRANCH   6  24
TORSDOF 5
ENDMDL
MODEL 3
REMARK VINA RESULT:      -7.0      4.485     10.373
REMARK  Name = 
REMARK  5 active torsions:
REMARK  status: ('A' for Active; 'I' for Inactive)
REMARK    1  A    between atoms: C_2  and  C_3
REMARK    2  A    between atoms: N_7  and  S_8
REMARK    3  A    between atoms: S_8  and  C_11
REMARK    4  A    between atoms: N_20  and  C_21
REMARK    5  A    between atoms: C_21  and  C_22
REMARK                            x       y       z     vdW  Elec       q    Type
REMARK                         _______ _______ _______ _____ _____    ______ ____
ROOT
ATOM      1  O   UNL     1       0.471   9.867  21.649  0.00  0.00    +0.000 OA
ATOM      2  C   UNL     1       0.474   9.940  20.412  0.00  0.00    +0.000 C 
ATOM      3  N   UNL     1       1.223   9.024  19.696  0.00  0.00    +0.000 N 
ATOM      4  C   UNL     1       1.482   9.051  18.255  0.00  0.00    +0.000 C 
ATOM      5  C   UNL     1       2.765   8.280  17.849  0.00  0.00    +0.000 C 
ATOM      6  N   UNL     1       2.899   6.922  18.432  0.00  0.00    +0.000 NA
ATOM      7  C   UNL     1       2.778   7.059  19.899  0.00  0.00    +0.000 C 
ATOM      8  C   UNL     1       1.488   7.743  20.368  0.00  0.00    +0.000 C 
ENDROOT
BRANCH   2   9
ATOM      9  C   UNL     1      -0.280  11.102  19.729  0.00  0.00    +0.000 C 
ATOM     10  C   UNL     1       0.711  12.257  19.453  0.00  0.00    +0.000 C 
ATOM     11  C   UNL     1       1.182  12.903  20.763  0.00  0.00    +0.000 C 
ATOM     12  C   UNL     1       0.027  13.348  21.656  0.00  0.00    +0.000 C 
ATOM     13  N   UNL     1      -1.009  12.288  21.790  0.00  0.00    +0.000 NA
ATOM     14  C   UNL     1      -1.452  11.726  20.491  0.00  0.00    +0.000 C 
BRANCH  13  15
ATOM     15  S   UNL     1      -2.282  12.683  22.870  0.00  0.00    +0.000 S 
ATOM     16  O   UNL     1      -2.710  11.468  23.538  0.00  0.00    +0.000 OA
ATOM     17  O   UNL     1      -1.900  13.859  23.622  0.00  0.00    +0.000 OA
BRANCH  15  18
ATOM     18  C   UNL     1      -3.708  13.200  21.987  0.00  0.00    +0.000 A 
ATOM     19  C   UNL     1      -3.827  14.378  21.276  0.00  0.00    +0.000 A 
ATOM     20  N   UNL     1      -5.069  14.330  20.706  0.00  0.00    +0.000 N 
ATOM     21  C   UNL     1      -5.651  13.151  21.080  0.00  0.00    +0.000 A 
ATOM     22  N   UNL     1      -4.869  12.447  21.868  0.00  0.00    +0.000 NA
ATOM     23  H   UNL     1      -5.484  15.028  20.101  0.00  0.00    +0.000 HD
ENDBRANCH  15  18
ENDBRANCH  13  15
ENDBRANCH   2   9
BRANCH   6  24
ATOM     24  C   UNL     1       1.892   6.014  17.845  0.00  0.00    +0.000 C 
BRANCH  24  25
ATOM     25  C   UNL     1       2.202   4.535  17.949  0.00  0.00    +0.000 A 
ATOM     26  C   UNL     1       3.446   4.049  17.510  0.00  0.00    +0.000 A 
ATOM     27  C   UNL     1       3.771   2.699  17.643  0.00  0.00    +0.000 A 
ATOM     28  C   UNL     1       2.859   1.817  18.216  0.00  0.00    +0.000 A 
ATOM     29  C   UNL     1       1.620   2.283  18.654  0.00  0.00    +0.000 A 
ATOM     30  C   UNL     1       1.291   3.636  18.521  0.00  0.00    +0.000 A 
ENDBRANCH  24  25
ENDBRANCH   6  24
TORSDOF 5
ENDMDL
MODEL 4
REMARK VINA RESULT:      -7.0      2.367      2.895
REMARK  Name = 
REMARK  5 active torsions:
REMARK  status: ('A' for Active; 'I' for Inactive)
REMARK    1  A    between atoms: C_2  and  C_3
REMARK    2  A    between atoms: N_7  and  S_8
REMARK    3  A    between atoms: S_8  and  C_11
REMARK    4  A    between atoms: N_20  and  C_21
REMARK    5  A    between atoms: C_21  and  C_22
REMARK                            x       y       z     vdW  Elec       q    Type
REMARK                         _______ _______ _______ _____ _____    ______ ____
ROOT
ATOM      1  O   UNL     1       2.208   6.667  20.630  0.00  0.00    +0.000 OA
ATOM      2  C   UNL     1       1.976   7.549  19.792  0.00  0.00    +0.000 C 
ATOM      3  N   UNL     1       1.172   8.615  20.156  0.00  0.00    +0.000 N 
ATOM      4  C   UNL     1       0.655   9.656  19.267  0.00  0.00    +0.000 C 
ATOM      5  C   UNL     1      -0.626  10.343  19.806  0.00  0.00    +0.000 C 
ATOM      6  N   UNL     1      -0.563  10.776  21.224  0.00  0.00    +0.000 NA
ATOM      7  C   UNL     1      -0.188   9.594  22.029  0.00  0.00    +0.000 C 
ATOM      8  C   UNL     1       1.118   8.919  21.594  0.00  0.00    +0.000 C 
ENDROOT
BRANCH   2   9
ATOM      9  C   UNL     1       2.516   7.378  18.355  0.00  0.00    +0.000 C 
ATOM     10  C   UNL     1       1.504   6.551  17.529  0.00  0.00    +0.000 C 
ATOM     11  C   UNL     1       1.442   5.100  18.026  0.00  0.00    +0.000 C 
ATOM     12  C   UNL     1       2.813   4.430  18.080  0.00  0.00    +0.000 C 
ATOM     13  N   UNL     1       3.828   5.300  18.734  0.00  0.00    +0.000 NA
ATOM     14  C   UNL     1       3.868   6.678  18.189  0.00  0.00    +0.000 C 
BRANCH  13  15
ATOM     15  S   UNL     1       5.365   4.561  18.927  0.00  0.00    +0.000 S 
ATOM     16  O   UNL     1       6.202   5.444  19.718  0.00  0.00    +0.000 OA
ATOM     17  O   UNL     1       5.167   3.177  19.301  0.00  0.00    +0.000 OA
BRANCH  15  18
ATOM     18  C   UNL     1       6.201   4.459  17.386  0.00  0.00    +0.000 A 
ATOM     19  C   UNL     1       7.507   4.843  17.157  0.00  0.00    +0.000 A 
ATOM     20  N   UNL     1       7.750   4.526  15.848  0.00  0.00    +0.000 N 
ATOM     21  C   UNL     1       6.609   3.972  15.338  0.00  0.00    +0.000 A 
ATOM     22  N   UNL     1       5.645   3.929  16.229  0.00  0.00    +0.000 NA
ATOM     23  H   UNL     1       8.619   4.659  15.345  0.00  0.00    +0.000 HD
ENDBRANCH  15  18
ENDBRANCH  13  15
ENDBRANCH   2   9
BRANCH   6  24
ATOM     24  C   UNL     1       0.378  11.905  21.369  0.00  0.00    +0.000 C 
BRANCH  24  25
ATOM     25  C   UNL     1      -0.181  13.144  22.038  0.00  0.00    +0.000 A 
ATOM     26  C   UNL     1      -1.134  13.016  23.063  0.00  0.00    +0.000 A 
ATOM     27  C   UNL     1      -1.625  14.141  23.726  0.00  0.00    +0.000 A 
ATOM     28  C   UNL     1      -1.169  15.408  23.375  0.00  0.00    +0.000 A 
ATOM     29  C   UNL     1      -0.226  15.553  22.358  0.00  0.00    +0.000 A 
ATOM     30  C   UNL     1       0.267  14.426  21.691  0.00  0.00    +0.000 A 
ENDBRANCH  24  25
ENDBRANCH   6  24
TORSDOF 5
ENDMDL
MODEL 5
REMARK VINA RESULT:      -6.9      1.770      2.309
REMARK  Name = 
REMARK  5 active torsions:
REMARK  status: ('A' for Active; 'I' for Inactive)
REMARK    1  A    between atoms: C_2  and  C_3
REMARK    2  A    between atoms: N_7  and  S_8
REMARK    3  A    between atoms: S_8  and  C_11
REMARK    4  A    between atoms: N_20  and  C_21
REMARK    5  A    between atoms: C_21  and  C_22
REMARK                            x       y       z     vdW  Elec       q    Type
REMARK                         _______ _______ _______ _____ _____    ______ ____
ROOT
ATOM      1  O   UNL     1       2.633   5.969  20.139  0.00  0.00    +0.000 OA
ATOM      2  C   UNL     1       2.603   6.541  19.040  0.00  0.00    +0.000 C 
ATOM      3  N   UNL     1       1.993   7.780  18.954  0.00  0.00    +0.000 N 
ATOM      4  C   UNL     1       1.714   8.526  17.726  0.00  0.00    +0.000 C 
ATOM      5  C   UNL     1       0.559   9.549  17.880  0.00  0.00    +0.000 C 
ATOM      6  N   UNL     1       0.641  10.421  19.078  0.00  0.00    +0.000 NA
ATOM      7  C   UNL     1       0.758   9.538  20.257  0.00  0.00    +0.000 C 
ATOM      8  C   UNL     1       1.935   8.557  20.201  0.00  0.00    +0.000 C 
ENDROOT
BRANCH   2   9
ATOM      9  C   UNL     1       3.162   5.809  17.800  0.00  0.00    +0.000 C 
ATOM     10  C   UNL     1       2.685   4.338  17.821  0.00  0.00    +0.000 C 
ATOM     11  C   UNL     1       3.338   3.565  18.975  0.00  0.00    +0.000 C 
ATOM     12  C   UNL     1       4.862   3.667  18.974  0.00  0.00    +0.000 C 
ATOM     13  N   UNL     1       5.321   5.071  18.790  0.00  0.00    +0.000 NA
ATOM     14  C   UNL     1       4.683   5.756  17.639  0.00  0.00    +0.000 C 
BRANCH  13  15
ATOM     15  S   UNL     1       7.021   5.272  18.890  0.00  0.00    +0.000 S 
ATOM     16  O   UNL     1       7.398   5.302  20.291  0.00  0.00    +0.000 OA
ATOM     17  O   UNL     1       7.649   4.355  17.962  0.00  0.00    +0.000 OA
BRANCH  15  18
ATOM     18  C   UNL     1       7.496   6.854  18.294  0.00  0.00    +0.000 A 
ATOM     19  C   UNL     1       6.946   7.497  17.203  0.00  0.00    +0.000 A 
ATOM     20  N   UNL     1       7.570   8.714  17.152  0.00  0.00    +0.000 N 
ATOM     21  C   UNL     1       8.457   8.768  18.191  0.00  0.00    +0.000 A 
ATOM     22  N   UNL     1       8.456   7.658  18.894  0.00  0.00    +0.000 NA
ATOM     23  H   UNL     1       7.399   9.453  16.481  0.00  0.00    +0.000 HD
ENDBRANCH  15  18
ENDBRANCH  13  15
ENDBRANCH   2   9
BRANCH   6  24
ATOM     24  C   UNL     1       1.767  11.368  18.942  0.00  0.00    +0.000 C 
BRANCH  24  25
ATOM     25  C   UNL     1       1.415  12.833  19.099  0.00  0.00    +0.000 A 
ATOM     26  C   UNL     1       2.350  13.721  19.658  0.00  0.00    +0.000 A 
ATOM     27  C   UNL     1       2.065  15.083  19.766  0.00  0.00    +0.000 A 
ATOM     28  C   UNL     1       0.843  15.575  19.315  0.00  0.00    +0.000 A 
ATOM     29  C   UNL     1      -0.096  14.706  18.761  0.00  0.00    +0.000 A 
ATOM     30  C   UNL     1       0.187  13.341  18.653  0.00  0.00    +0.000 A 
ENDBRANCH  24  25
ENDBRANCH   6  24
TORSDOF 5
ENDMDL
MODEL 6
REMARK VINA RESULT:      -6.9      4.255     10.248
REMARK  Name = 
REMARK  5 active torsions:
REMARK  status: ('A' for Active; 'I' for Inactive)
REMARK    1  A    between atoms: C_2  and  C_3
REMARK    2  A    between atoms: N_7  and  S_8
REMARK    3  A    between atoms: S_8  and  C_11
REMARK    4  A    between atoms: N_20  and  C_21
REMARK    5  A    between atoms: C_21  and  C_22
REMARK                            x       y       z     vdW  Elec       q    Type
REMARK                         _______ _______ _______ _____ _____    ______ ____
ROOT
ATOM      1  O   UNL     1       0.784   9.670  21.545  0.00  0.00    +0.000 OA
ATOM      2  C   UNL     1       0.749   9.733  20.308  0.00  0.00    +0.000 C 
ATOM      3  N   UNL     1       1.472   8.807  19.577  0.00  0.00    +0.000 N 
ATOM      4  C   UNL     1       1.688   8.821  18.129  0.00  0.00    +0.000 C 
ATOM      5  C   UNL     1       2.955   8.041  17.690  0.00  0.00    +0.000 C 
ATOM      6  N   UNL     1       3.101   6.688  18.281  0.00  0.00    +0.000 NA
ATOM      7  C   UNL     1       3.025   6.839  19.749  0.00  0.00    +0.000 C 
ATOM      8  C   UNL     1       1.753   7.531  20.252  0.00  0.00    +0.000 C 
ENDROOT
BRANCH   2   9
ATOM      9  C   UNL     1      -0.021  10.892  19.638  0.00  0.00    +0.000 C 
ATOM     10  C   UNL     1       0.987  11.969  19.173  0.00  0.00    +0.000 C 
ATOM     11  C   UNL     1       1.640  12.666  20.375  0.00  0.00    +0.000 C 
ATOM     12  C   UNL     1       0.620  13.231  21.362  0.00  0.00    +0.000 C 
ATOM     13  N   UNL     1      -0.444  12.241  21.683  0.00  0.00    +0.000 NA
ATOM     14  C   UNL     1      -1.063  11.628  20.483  0.00  0.00    +0.000 C 
BRANCH  13  15
ATOM     15  S   UNL     1      -1.560  12.774  22.872  0.00  0.00    +0.000 S 
ATOM     16  O   UNL     1      -2.248  11.614  23.407  0.00  0.00    +0.000 OA
ATOM     17  O   UNL     1      -0.892  13.720  23.740  0.00  0.00    +0.000 OA
BRANCH  15  18
ATOM     18  C   UNL     1      -2.844  13.721  22.138  0.00  0.00    +0.000 A 
ATOM     19  C   UNL     1      -2.664  14.842  21.352  0.00  0.00    +0.000 A 
ATOM     20  N   UNL     1      -3.921  15.205  20.951  0.00  0.00    +0.000 N 
ATOM     21  C   UNL     1      -4.803  14.312  21.494  0.00  0.00    +0.000 A 
ATOM     22  N   UNL     1      -4.195  13.410  22.232  0.00  0.00    +0.000 NA
ATOM     23  H   UNL     1      -4.163  15.982  20.348  0.00  0.00    +0.000 HD
ENDBRANCH  15  18
ENDBRANCH  13  15
ENDBRANCH   2   9
BRANCH   6  24
ATOM     24  C   UNL     1       2.074   5.779  17.733  0.00  0.00    +0.000 C 
BRANCH  24  25
ATOM     25  C   UNL     1       2.262   4.310  18.047  0.00  0.00    +0.000 A 
ATOM     26  C   UNL     1       1.288   3.623  18.793  0.00  0.00    +0.000 A 
ATOM     27  C   UNL     1       1.417   2.258  19.050  0.00  0.00    +0.000 A 
ATOM     28  C   UNL     1       2.520   1.561  18.566  0.00  0.00    +0.000 A 
ATOM     29  C   UNL     1       3.497   2.228  17.827  0.00  0.00    +0.000 A 
ATOM     30  C   UNL     1       3.370   3.596  17.568  0.00  0.00    +0.000 A 
ENDBRANCH  24  25
ENDBRANCH   6  24
TORSDOF 5
ENDMDL
MODEL 7
REMARK VINA RESULT:      -6.9      6.340     10.830
REMARK  Name = 
REMARK  5 active torsions:
REMARK  status: ('A' for Active; 'I' for Inactive)
REMARK    1  A    between atoms: C_2  and  C_3
REMARK    2  A    between atoms: N_7  and  S_8
REMARK    3  A    between atoms: S_8  and  C_11
REMARK    4  A    between atoms: N_20  and  C_21
REMARK    5  A    between atoms: C_21  and  C_22
REMARK                            x       y       z     vdW  Elec       q    Type
REMARK                         _______ _______ _______ _____ _____    ______ ____
ROOT
ATOM      1  O   UNL     1      -2.928  12.490  23.122  0.00  0.00    +0.000 OA
ATOM      2  C   UNL     1      -2.641  12.934  22.001  0.00  0.00    +0.000 C 
ATOM      3  N   UNL     1      -1.491  12.478  21.382  0.00  0.00    +0.000 N 
ATOM      4  C   UNL     1      -0.904  13.001  20.147  0.00  0.00    +0.000 C 
ATOM      5  C   UNL     1       0.614  12.709  20.018  0.00  0.00    +0.000 C 
ATOM      6  N   UNL     1       1.015  11.309  20.298  0.00  0.00    +0.000 NA
ATOM      7  C   UNL     1       0.497  10.962  21.638  0.00  0.00    +0.000 C 
ATOM      8  C   UNL     1      -1.016  11.151  21.803  0.00  0.00    +0.000 C 
ENDROOT
BRANCH   2   9
ATOM      9  C   UNL     1      -3.525  14.041  21.386  0.00  0.00    +0.000 C 
ATOM     10  C   UNL     1      -4.422  14.646  22.490  0.00  0.00    +0.000 C 
ATOM     11  C   UNL     1      -5.466  13.628  22.971  0.00  0.00    +0.000 C 
ATOM     12  C   UNL     1      -6.291  13.038  21.829  0.00  0.00    +0.000 C 
ATOM     13  N   UNL     1      -5.432  12.603  20.694  0.00  0.00    +0.000 NA
ATOM     14  C   UNL     1      -4.469  13.639  20.249  0.00  0.00    +0.000 C 
BRANCH  13  15
ATOM     15  S   UNL     1      -6.288  11.828  19.425  0.00  0.00    +0.000 S 
ATOM     16  O   UNL     1      -7.457  12.626  19.106  0.00  0.00    +0.000 OA
ATOM     17  O   UNL     1      -5.341  11.439  18.402  0.00  0.00    +0.000 OA
BRANCH  15  18
ATOM     18  C   UNL     1      -6.959  10.300  19.971  0.00  0.00    +0.000 A 
ATOM     19  C   UNL     1      -6.848   9.094  19.309  0.00  0.00    +0.000 A 
ATOM     20  N   UNL     1      -7.458   8.180  20.125  0.00  0.00    +0.000 N 
ATOM     21  C   UNL     1      -7.909   8.846  21.230  0.00  0.00    +0.000 A 
ATOM     22  N   UNL     1      -7.643  10.132  21.168  0.00  0.00    +0.000 NA
ATOM     23  H   UNL     1      -7.548   7.185  19.956  0.00  0.00    +0.000 HD
ENDBRANCH  15  18
ENDBRANCH  13  15
ENDBRANCH   2   9
BRANCH   6  24
ATOM     24  C   UNL     1       0.520  10.415  19.231  0.00  0.00    +0.000 C 
BRANCH  24  25
ATOM     25  C   UNL     1       1.341   9.165  18.988  0.00  0.00    +0.000 A 
ATOM     26  C   UNL     1       1.974   8.974  17.748  0.00  0.00    +0.000 A 
ATOM     27  C   UNL     1       2.776   7.855  17.520  0.00  0.00    +0.000 A 
ATOM     28  C   UNL     1       2.957   6.914  18.529  0.00  0.00    +0.000 A 
ATOM     29  C   UNL     1       2.333   7.087  19.764  0.00  0.00    +0.000 A 
ATOM     30  C   UNL     1       1.529   8.207  19.994  0.00  0.00    +0.000 A 
ENDBRANCH  24  25
ENDBRANCH   6  24
TORSDOF 5
ENDMDL
MODEL 8
REMARK VINA RESULT:      -6.9      4.414     10.196
REMARK  Name = 
REMARK  5 active torsions:
REMARK  status: ('A' for Active; 'I' for Inactive)
REMARK    1  A    between atoms: C_2  and  C_3
REMARK    2  A    between atoms: N_7  and  S_8
REMARK    3  A    between atoms: S_8  and  C_11
REMARK    4  A    between atoms: N_20  and  C_21
REMARK    5  A    between atoms: C_21  and  C_22
REMARK                            x       y       z     vdW  Elec       q    Type
REMARK                         _______ _______ _______ _____ _____    ______ ____
ROOT
ATOM      1  O   UNL     1       0.362  10.054  21.351  0.00  0.00    +0.000 OA
ATOM      2  C   UNL     1       0.490  10.063  20.118  0.00  0.00    +0.000 C 
ATOM      3  N   UNL     1       1.246   9.069  19.523  0.00  0.00    +0.000 N 
ATOM      4  C   UNL     1       1.645   9.007  18.116  0.00  0.00    +0.000 C 
ATOM      5  C   UNL     1       2.911   8.144  17.875  0.00  0.00    +0.000 C 
ATOM      6  N   UNL     1       2.903   6.813  18.530  0.00  0.00    +0.000 NA
ATOM      7  C   UNL     1       2.649   7.033  19.970  0.00  0.00    +0.000 C 
ATOM      8  C   UNL     1       1.365   7.812  20.276  0.00  0.00    +0.000 C 
ENDROOT
BRANCH   2   9
ATOM      9  C   UNL     1      -0.121  11.229  19.311  0.00  0.00    +0.000 C 
ATOM     10  C   UNL     1       1.016  12.018  18.621  0.00  0.00    +0.000 C 
ATOM     11  C   UNL     1       1.878  12.757  19.654  0.00  0.00    +0.000 C 
ATOM     12  C   UNL     1       1.059  13.643  20.589  0.00  0.00    +0.000 C 
ATOM     13  N   UNL     1      -0.130  12.928  21.127  0.00  0.00    +0.000 NA
ATOM     14  C   UNL     1      -0.945  12.264  20.080  0.00  0.00    +0.000 C 
BRANCH  13  15
ATOM     15  S   UNL     1      -1.033  13.831  22.272  0.00  0.00    +0.000 S 
ATOM     16  O   UNL     1      -0.562  13.488  23.601  0.00  0.00    +0.000 OA
ATOM     17  O   UNL     1      -1.095  15.207  21.828  0.00  0.00    +0.000 OA
BRANCH  15  18
ATOM     18  C   UNL     1      -2.714  13.321  22.279  0.00  0.00    +0.000 A 
ATOM     19  C   UNL     1      -3.256  12.360  23.109  0.00  0.00    +0.000 A 
ATOM     20  N   UNL     1      -4.591  12.341  22.811  0.00  0.00    +0.000 N 
ATOM     21  C   UNL     1      -4.810  13.271  21.833  0.00  0.00    +0.000 A 
ATOM     22  N   UNL     1      -3.700  13.872  21.471  0.00  0.00    +0.000 NA
ATOM     23  H   UNL     1      -5.299  11.760  23.244  0.00  0.00    +0.000 HD
ENDBRANCH  15  18
ENDBRANCH  13  15
ENDBRANCH   2   9
BRANCH   6  24
ATOM     24  C   UNL     1       1.904   5.935  17.887  0.00  0.00    +0.000 C 
BRANCH  24  25
ATOM     25  C   UNL     1       2.155   4.447  18.021  0.00  0.00    +0.000 A 
ATOM     26  C   UNL     1       3.370   3.900  17.576  0.00  0.00    +0.000 A 
ATOM     27  C   UNL     1       3.642   2.541  17.736  0.00  0.00    +0.000 A 
ATOM     28  C   UNL     1       2.703   1.711  18.343  0.00  0.00    +0.000 A 
ATOM     29  C   UNL     1       1.491   2.238  18.787  0.00  0.00    +0.000 A 
ATOM     30  C   UNL     1       1.217   3.600  18.628  0.00  0.00    +0.000 A 
ENDBRANCH  24  25
ENDBRANCH   6  24
TORSDOF 5
ENDMDL
MODEL 9
REMARK VINA RESULT:      -6.9      4.358     10.415
REMARK  Name = 
REMARK  5 active torsions:
REMARK  status: ('A' for Active; 'I' for Inactive)
REMARK    1  A    between atoms: C_2  and  C_3
REMARK    2  A    between atoms: N_7  and  S_8
REMARK    3  A    between atoms: S_8  and  C_11
REMARK    4  A    between atoms: N_20  and  C_21
REMARK    5  A    between atoms: C_21  and  C_22
REMARK                            x       y       z     vdW  Elec       q    Type
REMARK                         _______ _______ _______ _____ _____    ______ ____
ROOT
ATOM      1  O   UNL     1       0.615   9.794  21.337  0.00  0.00    +0.000 OA
ATOM      2  C   UNL     1       0.699   9.825  20.101  0.00  0.00    +0.000 C 
ATOM      3  N   UNL     1       1.443   8.850  19.462  0.00  0.00    +0.000 N 
ATOM      4  C   UNL     1       1.793   8.816  18.041  0.00  0.00    +0.000 C 
ATOM      5  C   UNL     1       3.057   7.970  17.741  0.00  0.00    +0.000 C 
ATOM      6  N   UNL     1       3.085   6.628  18.372  0.00  0.00    +0.000 NA
ATOM      7  C   UNL     1       2.880   6.820  19.823  0.00  0.00    +0.000 C 
ATOM      8  C   UNL     1       1.600   7.581  20.189  0.00  0.00    +0.000 C 
ENDROOT
BRANCH   2   9
ATOM      9  C   UNL     1       0.049  11.000  19.337  0.00  0.00    +0.000 C 
ATOM     10  C   UNL     1       1.103  12.111  19.124  0.00  0.00    +0.000 C 
ATOM     11  C   UNL     1       1.488  12.767  20.457  0.00  0.00    +0.000 C 
ATOM     12  C   UNL     1       0.280  13.273  21.242  0.00  0.00    +0.000 C 
ATOM     13  N   UNL     1      -0.803  12.254  21.307  0.00  0.00    +0.000 NA
ATOM     14  C   UNL     1      -1.158  11.682  19.985  0.00  0.00    +0.000 C 
BRANCH  13  15
ATOM     15  S   UNL     1      -2.145  12.718  22.270  0.00  0.00    +0.000 S 
ATOM     16  O   UNL     1      -3.272  12.976  21.392  0.00  0.00    +0.000 OA
ATOM     17  O   UNL     1      -2.254  11.799  23.382  0.00  0.00    +0.000 OA
BRANCH  15  18
ATOM     18  C   UNL     1      -1.850  14.269  23.040  0.00  0.00    +0.000 A 
ATOM     19  C   UNL     1      -2.372  15.479  22.629  0.00  0.00    +0.000 A 
ATOM     20  N   UNL     1      -1.933  16.390  23.551  0.00  0.00    +0.000 N 
ATOM     21  C   UNL     1      -1.176  15.718  24.470  0.00  0.00    +0.000 A 
ATOM     22  N   UNL     1      -1.087  14.437  24.188  0.00  0.00    +0.000 NA
ATOM     23  H   UNL     1      -2.141  17.381  23.568  0.00  0.00    +0.000 HD
ENDBRANCH  15  18
ENDBRANCH  13  15
ENDBRANCH   2   9
BRANCH   6  24
ATOM     24  C   UNL     1       2.072   5.751  17.749  0.00  0.00    +0.000 C 
BRANCH  24  25
ATOM     25  C   UNL     1       2.235   4.269  18.014  0.00  0.00    +0.000 A 
ATOM     26  C   UNL     1       3.391   3.603  17.573  0.00  0.00    +0.000 A 
ATOM     27  C   UNL     1       3.584   2.249  17.850  0.00  0.00    +0.000 A 
ATOM     28  C   UNL     1       2.625   1.544  18.572  0.00  0.00    +0.000 A 
ATOM     29  C   UNL     1       1.471   2.189  19.013  0.00  0.00    +0.000 A 
ATOM     30  C   UNL     1       1.275   3.546  18.737  0.00  0.00    +0.000 A 
ENDBRANCH  24  25
ENDBRANCH   6  24
TORSDOF 5
ENDMDL
