MODEL 1
REMARK VINA RESULT:      -7.5      0.000      0.000
REMARK  Name = 
REMARK  13 active torsions:
REMARK  status: ('A' for Active; 'I' for Inactive)
REMARK    1  A    between atoms: C_1  and  C_2
REMARK    2  A    between atoms: C_2  and  C_3
REMARK    3  A    between atoms: C_4  and  C_5
REMARK    4  A    between atoms: C_5  and  C_6
REMARK    5  A    between atoms: C_6  and  C_7
REMARK    6  A    between atoms: C_7  and  C_8
REMARK    7  A    between atoms: C_9  and  C_10
REMARK    8  A    between atoms: C_10  and  C_11
REMARK    9  A    between atoms: C_11  and  C_12
REMARK   10  A    between atoms: C_12  and  C_13
REMARK   11  A    between atoms: C_14  and  C_15
REMARK   12  A    between atoms: C_15  and  N_16
REMARK   13  A    between atoms: N_18  and  C_19
REMARK                            x       y       z     vdW  Elec       q    Type
REMARK                         _______ _______ _______ _____ _____    ______ ____
ROOT
ATOM      1  C   UNL     1       7.963   7.947  17.962  0.00  0.00    +0.000 C 
ATOM      2  C   UNL     1       8.229   6.835  18.947  0.00  0.00    +0.000 C 
ATOM      3  C   UNL     1       8.380   9.214  18.159  0.00  0.00    +0.000 C 
ENDROOT
BRANCH   1   4
ATOM      4  C   UNL     1       7.117   7.593  16.749  0.00  0.00    +0.000 C 
BRANCH   4   5
ATOM      5  C   UNL     1       6.258   6.351  17.029  0.00  0.00    +0.000 C 
BRANCH   5   8
ATOM      6  C   UNL     1       4.020   6.060  18.173  0.00  0.00    +0.000 C 
ATOM      7  C   UNL     1       2.578   6.480  18.298  0.00  0.00    +0.000 C 
ATOM      8  C   UNL     1       4.803   6.657  17.247  0.00  0.00    +0.000 C 
BRANCH   6   9
ATOM      9  C   UNL     1       4.589   4.993  19.092  0.00  0.00    +0.000 C 
BRANCH   9  10
ATOM     10  C   UNL     1       4.090   3.552  18.963  0.00  0.00    +0.000 C 
BRANCH  10  14
ATOM     11  C   UNL     1       1.413   2.608  21.641  0.00  0.00    +0.000 C 
ATOM     12  C   UNL     1       2.026   2.960  20.313  0.00  0.00    +0.000 C 
ATOM     13  C   UNL     1       1.088   3.132  19.152  0.00  0.00    +0.000 C 
ATOM     14  C   UNL     1       3.358   3.143  20.211  0.00  0.00    +0.000 C 
ENDBRANCH  10  14
ENDBRANCH   9  10
ENDBRANCH   6   9
ENDBRANCH   5   8
ENDBRANCH   4   5
ENDBRANCH   1   4
BRANCH   3  15
ATOM     15  C   UNL     1       9.087   9.733  19.372  0.00  0.00    +0.000 C 
BRANCH  15  16
ATOM     16  N   UNL     1       9.733  11.000  19.044  0.00  0.00    +0.000 N 
ATOM     17  C   UNL     1      10.217  11.335  17.829  0.00  0.00    +0.000 A 
ATOM     18  N   UNL     1      10.671  12.590  17.864  0.00  0.00    +0.000 N 
ATOM     19  C   UNL     1      11.286  13.289  16.750  0.00  0.00    +0.000 C 
ATOM     20  C   UNL     1      10.464  13.108  19.117  0.00  0.00    +0.000 A 
ATOM     21  N   UNL     1      10.773  14.379  19.516  0.00  0.00    +0.000 NA
ATOM     22  C   UNL     1      10.451  14.576  20.806  0.00  0.00    +0.000 A 
ATOM     23  N   UNL     1       9.906  13.671  21.660  0.00  0.00    +0.000 NA
ATOM     24  C   UNL     1       9.615  12.410  21.234  0.00  0.00    +0.000 A 
ATOM     25  N   UNL     1       9.104  11.547  22.186  0.00  0.00    +0.000 N 
ATOM     26  C   UNL     1       9.887  12.107  19.890  0.00  0.00    +0.000 A 
ATOM     27  H   UNL     1       8.843  12.024  23.045  0.00  0.00    +0.000 HD
ATOM     28  H   UNL     1       8.542  10.754  21.930  0.00  0.00    +0.000 HD
ENDBRANCH  15  16
ENDBRANCH   3  15
TORSDOF 8
ENDMDL
MODEL 2
REMARK VINA RESULT:      -7.4      5.383      8.086
REMARK  Name = 
REMARK  13 active torsions:
REMARK  status: ('A' for Active; 'I' for Inactive)
REMARK    1  A    between atoms: C_1  and  C_2
REMARK    2  A    between atoms: C_2  and  C_3
REMARK    3  A    between atoms: C_4  and  C_5
REMARK    4  A    between atoms: C_5  and  C_6
REMARK    5  A    between atoms: C_6  and  C_7
REMARK    6  A    between atoms: C_7  and  C_8
REMARK    7  A    between atoms: C_9  and  C_10
REMARK    8  A    between atoms: C_10  and  C_11
REMARK    9  A    between atoms: C_11  and  C_12
REMARK   10  A    between atoms: C_12  and  C_13
REMARK   11  A    between atoms: C_14  and  C_15
REMARK   12  A    between atoms: C_15  and  N_16
REMARK   13  A    between atoms: N_18  and  C_19
REMARK                            x       y       z     vdW  Elec       q    Type
REMARK                         _______ _______ _______ _____ _____    ______ ____
ROOT
ATOM      1  C   UNL     1       2.921   5.695  19.127  0.00  0.00    +0.000 C 
ATOM      2  C   UNL     1       2.378   5.242  17.793  0.00  0.00    +0.000 C 
ATOM      3  C   UNL     1       2.657   6.909  19.650  0.00  0.00    +0.000 C 
ENDROOT
BRANCH   1   4
ATOM      4  C   UNL     1       3.864   4.737  19.837  0.00  0.00    +0.000 C 
BRANCH   4   5
ATOM      5  C   UNL     1       4.990   4.285  18.897  0.00  0.00    +0.000 C 
BRANCH   5   8
ATOM      6  C   UNL     1       6.350   5.850  17.447  0.00  0.00    +0.000 C 
ATOM      7  C   UNL     1       7.409   6.918  17.352  0.00  0.00    +0.000 C 
ATOM      8  C   UNL     1       6.038   5.336  18.657  0.00  0.00    +0.000 C 
BRANCH   6   9
ATOM      9  C   UNL     1       5.629   5.376  16.197  0.00  0.00    +0.000 C 
BRANCH   9  10
ATOM     10  C   UNL     1       6.443   4.785  15.043  0.00  0.00    +0.000 C 
BRANCH  10  14
ATOM     11  C   UNL     1       4.817   3.140  11.901  0.00  0.00    +0.000 C 
ATOM     12  C   UNL     1       5.846   3.776  12.794  0.00  0.00    +0.000 C 
ATOM     13  C   UNL     1       7.190   4.067  12.189  0.00  0.00    +0.000 C 
ATOM     14  C   UNL     1       5.532   4.095  14.066  0.00  0.00    +0.000 C 
ENDBRANCH  10  14
ENDBRANCH   9  10
ENDBRANCH   6   9
ENDBRANCH   5   8
ENDBRANCH   4   5
ENDBRANCH   1   4
BRANCH   3  15
ATOM     15  C   UNL     1       1.874   8.003  18.994  0.00  0.00    +0.000 C 
BRANCH  15  16
ATOM     16  N   UNL     1       1.307   8.869  20.023  0.00  0.00    +0.000 N 
ATOM     17  C   UNL     1       0.848   8.455  21.222  0.00  0.00    +0.000 A 
ATOM     18  N   UNL     1       0.472   9.515  21.943  0.00  0.00    +0.000 N 
ATOM     19  C   UNL     1      -0.096   9.461  23.278  0.00  0.00    +0.000 C 
ATOM     20  C   UNL     1       0.707  10.656  21.218  0.00  0.00    +0.000 A 
ATOM     21  N   UNL     1       0.475  11.934  21.647  0.00  0.00    +0.000 NA
ATOM     22  C   UNL     1       0.805  12.831  20.702  0.00  0.00    +0.000 A 
ATOM     23  N   UNL     1       1.292  12.570  19.461  0.00  0.00    +0.000 NA
ATOM     24  C   UNL     1       1.506  11.285  19.060  0.00  0.00    +0.000 A 
ATOM     25  N   UNL     1       1.960  11.116  17.765  0.00  0.00    +0.000 N 
ATOM     26  C   UNL     1       1.219  10.268  19.986  0.00  0.00    +0.000 A 
ATOM     27  H   UNL     1       2.248  11.992  17.336  0.00  0.00    +0.000 HD
ATOM     28  H   UNL     1       2.473  10.296  17.490  0.00  0.00    +0.000 HD
ENDBRANCH  15  16
ENDBRANCH   3  15
TORSDOF 8
ENDMDL
MODEL 3
REMARK VINA RESULT:      -7.3      7.340     10.213
REMARK  Name = 
REMARK  13 active torsions:
REMARK  status: ('A' for Active; 'I' for Inactive)
REMARK    1  A    between atoms: C_1  and  C_2
REMARK    2  A    between atoms: C_2  and  C_3
REMARK    3  A    between atoms: C_4  and  C_5
REMARK    4  A    between atoms: C_5  and  C_6
REMARK    5  A    between atoms: C_6  and  C_7
REMARK    6  A    between atoms: C_7  and  C_8
REMARK    7  A    between atoms: C_9  and  C_10
REMARK    8  A    between atoms: C_10  and  C_11
REMARK    9  A    between atoms: C_11  and  C_12
REMARK   10  A    between atoms: C_12  and  C_13
REMARK   11  A    between atoms: C_14  and  C_15
REMARK   12  A    between atoms: C_15  and  N_16
REMARK   13  A    between atoms: N_18  and  C_19
REMARK                            x       y       z     vdW  Elec       q    Type
REMARK                         _______ _______ _______ _____ _____    ______ ____
ROOT
ATOM      1  C   UNL     1       1.265   9.198  18.661  0.00  0.00    +0.000 C 
ATOM      2  C   UNL     1       1.333   8.800  20.116  0.00  0.00    +0.000 C 
ATOM      3  C   UNL     1       0.280   9.971  18.161  0.00  0.00    +0.000 C 
ENDROOT
BRANCH   1   4
ATOM      4  C   UNL     1       2.329   8.616  17.746  0.00  0.00    +0.000 C 
BRANCH   4   5
ATOM      5  C   UNL     1       2.929   7.339  18.353  0.00  0.00    +0.000 C 
BRANCH   5   8
ATOM      6  C   UNL     1       2.460   4.856  18.484  0.00  0.00    +0.000 C 
ATOM      7  C   UNL     1       1.561   3.699  18.132  0.00  0.00    +0.000 C 
ATOM      8  C   UNL     1       2.136   6.097  18.058  0.00  0.00    +0.000 C 
BRANCH   6   9
ATOM      9  C   UNL     1       3.705   4.629  19.324  0.00  0.00    +0.000 C 
BRANCH   9  10
ATOM     10  C   UNL     1       4.927   3.965  18.685  0.00  0.00    +0.000 C 
BRANCH  10  14
ATOM     11  C   UNL     1       5.543   5.561  15.177  0.00  0.00    +0.000 C 
ATOM     12  C   UNL     1       5.622   5.327  16.661  0.00  0.00    +0.000 C 
ATOM     13  C   UNL     1       6.400   6.326  17.469  0.00  0.00    +0.000 C 
ATOM     14  C   UNL     1       4.979   4.280  17.215  0.00  0.00    +0.000 C 
ENDBRANCH  10  14
ENDBRANCH   9  10
ENDBRANCH   6   9
ENDBRANCH   5   8
ENDBRANCH   4   5
ENDBRANCH   1   4
BRANCH   3  15
ATOM     15  C   UNL     1      -0.908  10.487  18.913  0.00  0.00    +0.000 C 
BRANCH  15  16
ATOM     16  N   UNL     1      -2.006  10.708  17.978  0.00  0.00    +0.000 N 
ATOM     17  C   UNL     1      -2.074  10.210  16.725  0.00  0.00    +0.000 A 
ATOM     18  N   UNL     1      -3.246  10.545  16.178  0.00  0.00    +0.000 N 
ATOM     19  C   UNL     1      -3.668  10.206  14.831  0.00  0.00    +0.000 C 
ATOM     20  C   UNL     1      -3.981  11.257  17.092  0.00  0.00    +0.000 A 
ATOM     21  N   UNL     1      -5.245  11.739  16.897  0.00  0.00    +0.000 NA
ATOM     22  C   UNL     1      -5.688  12.398  17.981  0.00  0.00    +0.000 A 
ATOM     23  N   UNL     1      -5.014  12.608  19.142  0.00  0.00    +0.000 NA
ATOM     24  C   UNL     1      -3.751  12.121  19.304  0.00  0.00    +0.000 A 
ATOM     25  N   UNL     1      -3.128  12.424  20.500  0.00  0.00    +0.000 N 
ATOM     26  C   UNL     1      -3.203  11.390  18.237  0.00  0.00    +0.000 A 
ATOM     27  H   UNL     1      -3.768  12.824  21.182  0.00  0.00    +0.000 HD
ATOM     28  H   UNL     1      -2.388  11.852  20.868  0.00  0.00    +0.000 HD
ENDBRANCH  15  16
ENDBRANCH   3  15
TORSDOF 8
ENDMDL
MODEL 4
REMARK VINA RESULT:      -7.2      4.674      9.952
REMARK  Name = 
REMARK  13 active torsions:
REMARK  status: ('A' for Active; 'I' for Inactive)
REMARK    1  A    between atoms: C_1  and  C_2
REMARK    2  A    between atoms: C_2  and  C_3
REMARK    3  A    between atoms: C_4  and  C_5
REMARK    4  A    between atoms: C_5  and  C_6
REMARK    5  A    between atoms: C_6  and  C_7
REMARK    6  A    between atoms: C_7  and  C_8
REMARK    7  A    between atoms: C_9  and  C_10
REMARK    8  A    between atoms: C_10  and  C_11
REMARK    9  A    between atoms: C_11  and  C_12
REMARK   10  A    between atoms: C_12  and  C_13
REMARK   11  A    between atoms: C_14  and  C_15
REMARK   12  A    between atoms: C_15  and  N_16
REMARK   13  A    between atoms: N_18  and  C_19
REMARK                            x       y       z     vdW  Elec       q    Type
REMARK                         _______ _______ _______ _____ _____    ______ ____
ROOT
ATOM      1  C   UNL     1       6.746   6.405  17.455  0.00  0.00    +0.000 C 
ATOM      2  C   UNL     1       7.036   5.707  16.148  0.00  0.00    +0.000 C 
ATOM      3  C   UNL     1       5.498   6.550  17.945  0.00  0.00    +0.000 C 
ENDROOT
BRANCH   1   4
ATOM      4  C   UNL     1       7.934   7.023  18.174  0.00  0.00    +0.000 C 
BRANCH   4   5
ATOM      5  C   UNL     1       8.062   8.515  17.831  0.00  0.00    +0.000 C 
BRANCH   5   8
ATOM      6  C   UNL     1       9.091  10.630  18.762  0.00  0.00    +0.000 C 
ATOM      7  C   UNL     1       9.906  11.294  19.842  0.00  0.00    +0.000 C 
ATOM      8  C   UNL     1       8.871   9.298  18.826  0.00  0.00    +0.000 C 
BRANCH   6   9
ATOM      9  C   UNL     1       8.508  11.455  17.628  0.00  0.00    +0.000 C 
BRANCH   9  10
ATOM     10  C   UNL     1       8.760  12.965  17.596  0.00  0.00    +0.000 C 
BRANCH  10  14
ATOM     11  C   UNL     1       5.699  15.271  18.329  0.00  0.00    +0.000 C 
ATOM     12  C   UNL     1       7.063  14.647  18.444  0.00  0.00    +0.000 C 
ATOM     13  C   UNL     1       7.921  15.090  19.595  0.00  0.00    +0.000 C 
ATOM     14  C   UNL     1       7.452  13.707  17.561  0.00  0.00    +0.000 C 
ENDBRANCH  10  14
ENDBRANCH   9  10
ENDBRANCH   6   9
ENDBRANCH   5   8
ENDBRANCH   4   5
ENDBRANCH   1   4
BRANCH   3  15
ATOM     15  C   UNL     1       4.230   6.127  17.273  0.00  0.00    +0.000 C 
BRANCH  15  16
ATOM     16  N   UNL     1       3.754   4.889  17.883  0.00  0.00    +0.000 N 
ATOM     17  C   UNL     1       4.024   3.646  17.431  0.00  0.00    +0.000 A 
ATOM     18  N   UNL     1       3.496   2.748  18.267  0.00  0.00    +0.000 N 
ATOM     19  C   UNL     1       3.562   1.307  18.098  0.00  0.00    +0.000 C 
ATOM     20  C   UNL     1       2.886   3.405  19.306  0.00  0.00    +0.000 A 
ATOM     21  N   UNL     1       2.265   2.811  20.369  0.00  0.00    +0.000 NA
ATOM     22  C   UNL     1       1.762   3.728  21.213  0.00  0.00    +0.000 A 
ATOM     23  N   UNL     1       1.813   5.079  21.077  0.00  0.00    +0.000 NA
ATOM     24  C   UNL     1       2.433   5.641  20.002  0.00  0.00    +0.000 A 
ATOM     25  N   UNL     1       2.395   7.021  19.927  0.00  0.00    +0.000 N 
ATOM     26  C   UNL     1       3.019   4.768  19.071  0.00  0.00    +0.000 A 
ATOM     27  H   UNL     1       2.060   7.449  20.786  0.00  0.00    +0.000 HD
ATOM     28  H   UNL     1       3.087   7.539  19.413  0.00  0.00    +0.000 HD
ENDBRANCH  15  16
ENDBRANCH   3  15
TORSDOF 8
ENDMDL
MODEL 5
REMARK VINA RESULT:      -7.2      7.204      9.233
REMARK  Name = 
REMARK  13 active torsions:
REMARK  status: ('A' for Active; 'I' for Inactive)
REMARK    1  A    between atoms: C_1  and  C_2
REMARK    2  A    between atoms: C_2  and  C_3
REMARK    3  A    between atoms: C_4  and  C_5
REMARK    4  A    between atoms: C_5  and  C_6
REMARK    5  A    between atoms: C_6  and  C_7
REMARK    6  A    between atoms: C_7  and  C_8
REMARK    7  A    between atoms: C_9  and  C_10
REMARK    8  A    between atoms: C_10  and  C_11
REMARK    9  A    between atoms: C_11  and  C_12
REMARK   10  A    between atoms: C_12  and  C_13
REMARK   11  A    between atoms: C_14  and  C_15
REMARK   12  A    between atoms: C_15  and  N_16
REMARK   13  A    between atoms: N_18  and  C_19
REMARK                            x       y       z     vdW  Elec       q    Type
REMARK                         _______ _______ _______ _____ _____    ______ ____
ROOT
ATOM      1  C   UNL     1       1.714   8.584  19.032  0.00  0.00    +0.000 C 
ATOM      2  C   UNL     1       1.519   8.100  20.448  0.00  0.00    +0.000 C 
ATOM      3  C   UNL     1       1.192   9.741  18.577  0.00  0.00    +0.000 C 
ENDROOT
BRANCH   1   4
ATOM      4  C   UNL     1       2.470   7.657  18.094  0.00  0.00    +0.000 C 
BRANCH   4   5
ATOM      5  C   UNL     1       3.046   6.458  18.863  0.00  0.00    +0.000 C 
BRANCH   5   8
ATOM      6  C   UNL     1       3.779   4.554  17.366  0.00  0.00    +0.000 C 
ATOM      7  C   UNL     1       4.888   3.869  16.609  0.00  0.00    +0.000 C 
ATOM      8  C   UNL     1       4.057   5.667  18.081  0.00  0.00    +0.000 C 
BRANCH   6   9
ATOM      9  C   UNL     1       2.363   4.008  17.307  0.00  0.00    +0.000 C 
BRANCH   9  10
ATOM     10  C   UNL     1       2.062   2.641  17.926  0.00  0.00    +0.000 C 
BRANCH  10  14
ATOM     11  C   UNL     1       1.690   2.849  21.805  0.00  0.00    +0.000 C 
ATOM     12  C   UNL     1       2.325   2.721  20.447  0.00  0.00    +0.000 C 
ATOM     13  C   UNL     1       3.802   2.454  20.407  0.00  0.00    +0.000 C 
ATOM     14  C   UNL     1       1.567   2.809  19.336  0.00  0.00    +0.000 C 
ENDBRANCH  10  14
ENDBRANCH   9  10
ENDBRANCH   6   9
ENDBRANCH   5   8
ENDBRANCH   4   5
ENDBRANCH   1   4
BRANCH   3  15
ATOM     15  C   UNL     1       0.305  10.673  19.342  0.00  0.00    +0.000 C 
BRANCH  15  16
ATOM     16  N   UNL     1      -0.974  10.792  18.651  0.00  0.00    +0.000 N 
ATOM     17  C   UNL     1      -1.291  10.181  17.490  0.00  0.00    +0.000 A 
ATOM     18  N   UNL     1      -2.563  10.448  17.182  0.00  0.00    +0.000 N 
ATOM     19  C   UNL     1      -3.251   9.982  15.992  0.00  0.00    +0.000 C 
ATOM     20  C   UNL     1      -3.109  11.229  18.168  0.00  0.00    +0.000 A 
ATOM     21  N   UNL     1      -4.402  11.673  18.209  0.00  0.00    +0.000 NA
ATOM     22  C   UNL     1      -4.625  12.421  19.303  0.00  0.00    +0.000 A 
ATOM     23  N   UNL     1      -3.726  12.747  20.268  0.00  0.00    +0.000 NA
ATOM     24  C   UNL     1      -2.443  12.295  20.195  0.00  0.00    +0.000 A 
ATOM     25  N   UNL     1      -1.589  12.714  21.199  0.00  0.00    +0.000 N 
ATOM     26  C   UNL     1      -2.111  11.478  19.102  0.00  0.00    +0.000 A 
ATOM     27  H   UNL     1      -2.082  13.165  21.966  0.00  0.00    +0.000 HD
ATOM     28  H   UNL     1      -0.769  12.189  21.447  0.00  0.00    +0.000 HD
ENDBRANCH  15  16
ENDBRANCH   3  15
TORSDOF 8
ENDMDL
MODEL 6
REMARK VINA RESULT:      -7.2      6.887      9.589
REMARK  Name = 
REMARK  13 active torsions:
REMARK  status: ('A' for Active; 'I' for Inactive)
REMARK    1  A    between atoms: C_1  and  C_2
REMARK    2  A    between atoms: C_2  and  C_3
REMARK    3  A    between atoms: C_4  and  C_5
REMARK    4  A    between atoms: C_5  and  C_6
REMARK    5  A    between atoms: C_6  and  C_7
REMARK    6  A    between atoms: C_7  and  C_8
REMARK    7  A    between atoms: C_9  and  C_10
REMARK    8  A    between atoms: C_10  and  C_11
REMARK    9  A    between atoms: C_11  and  C_12
REMARK   10  A    between atoms: C_12  and  C_13
REMARK   11  A    between atoms: C_14  and  C_15
REMARK   12  A    between atoms: C_15  and  N_16
REMARK   13  A    between atoms: N_18  and  C_19
REMARK                            x       y       z     vdW  Elec       q    Type
REMARK                         _______ _______ _______ _____ _____    ______ ____
ROOT
ATOM      1  C   UNL     1       1.219   9.207  19.628  0.00  0.00    +0.000 C 
ATOM      2  C   UNL     1       1.795   9.027  18.244  0.00  0.00    +0.000 C 
ATOM      3  C   UNL     1       0.548  10.315  20.002  0.00  0.00    +0.000 C 
ENDROOT
BRANCH   1   4
ATOM      4  C   UNL     1       1.501   8.101  20.631  0.00  0.00    +0.000 C 
BRANCH   4   5
ATOM      5  C   UNL     1       2.084   6.865  19.928  0.00  0.00    +0.000 C 
BRANCH   5   8
ATOM      6  C   UNL     1       1.569   4.389  19.987  0.00  0.00    +0.000 C 
ATOM      7  C   UNL     1       1.274   3.157  20.805  0.00  0.00    +0.000 C 
ATOM      8  C   UNL     1       1.762   5.568  20.617  0.00  0.00    +0.000 C 
BRANCH   6   9
ATOM      9  C   UNL     1       1.668   4.296  18.474  0.00  0.00    +0.000 C 
BRANCH   9  10
ATOM     10  C   UNL     1       2.967   3.794  17.840  0.00  0.00    +0.000 C 
BRANCH  10  14
ATOM     11  C   UNL     1       5.418   6.758  17.180  0.00  0.00    +0.000 C 
ATOM     12  C   UNL     1       4.771   5.576  17.849  0.00  0.00    +0.000 C 
ATOM     13  C   UNL     1       5.302   5.181  19.198  0.00  0.00    +0.000 C 
ATOM     14  C   UNL     1       3.738   4.946  17.256  0.00  0.00    +0.000 C 
ENDBRANCH  10  14
ENDBRANCH   9  10
ENDBRANCH   6   9
ENDBRANCH   5   8
ENDBRANCH   4   5
ENDBRANCH   1   4
BRANCH   3  15
ATOM     15  C   UNL     1       0.328  11.539  19.169  0.00  0.00    +0.000 C 
BRANCH  15  16
ATOM     16  N   UNL     1      -1.098  11.683  18.896  0.00  0.00    +0.000 N 
ATOM     17  C   UNL     1      -1.715  11.299  17.758  0.00  0.00    +0.000 A 
ATOM     18  N   UNL     1      -3.029  11.509  17.875  0.00  0.00    +0.000 N 
ATOM     19  C   UNL     1      -4.014  11.239  16.844  0.00  0.00    +0.000 C 
ATOM     20  C   UNL     1      -3.294  12.018  19.121  0.00  0.00    +0.000 A 
ATOM     21  N   UNL     1      -4.533  12.326  19.610  0.00  0.00    +0.000 NA
ATOM     22  C   UNL     1      -4.456  12.810  20.862  0.00  0.00    +0.000 A 
ATOM     23  N   UNL     1      -3.329  13.009  21.593  0.00  0.00    +0.000 NA
ATOM     24  C   UNL     1      -2.107  12.698  21.076  0.00  0.00    +0.000 A 
ATOM     25  N   UNL     1      -1.015  12.977  21.877  0.00  0.00    +0.000 N 
ATOM     26  C   UNL     1      -2.078  12.157  19.780  0.00  0.00    +0.000 A 
ATOM     27  H   UNL     1      -1.281  13.214  22.830  0.00  0.00    +0.000 HD
ATOM     28  H   UNL     1      -0.144  12.487  21.769  0.00  0.00    +0.000 HD
ENDBRANCH  15  16
ENDBRANCH   3  15
TORSDOF 8
ENDMDL
MODEL 7
REMARK VINA RESULT:      -7.2      5.938      8.758
REMARK  Name = 
REMARK  13 active torsions:
REMARK  status: ('A' for Active; 'I' for Inactive)
REMARK    1  A    between atoms: C_1  and  C_2
REMARK    2  A    between atoms: C_2  and  C_3
REMARK    3  A    between atoms: C_4  and  C_5
REMARK    4  A    between atoms: C_5  and  C_6
REMARK    5  A    between atoms: C_6  and  C_7
REMARK    6  A    between atoms: C_7  and  C_8
REMARK    7  A    between atoms: C_9  and  C_10
REMARK    8  A    between atoms: C_10  and  C_11
REMARK    9  A    between atoms: C_11  and  C_12
REMARK   10  A    between atoms: C_12  and  C_13
REMARK   11  A    between atoms: C_14  and  C_15
REMARK   12  A    between atoms: C_15  and  N_16
REMARK   13  A    between atoms: N_18  and  C_19
REMARK                            x       y       z     vdW  Elec       q    Type
REMARK                         _______ _______ _______ _____ _____    ______ ____
ROOT
ATOM      1  C   UNL     1       1.726   9.635  17.904  0.00  0.00    +0.000 C 
ATOM      2  C   UNL     1       2.366  11.000  17.990  0.00  0.00    +0.000 C 
ATOM      3  C   UNL     1       0.406   9.434  18.093  0.00  0.00    +0.000 C 
ENDROOT
BRANCH   1   4
ATOM      4  C   UNL     1       2.660   8.459  17.669  0.00  0.00    +0.000 C 
BRANCH   4   5
ATOM      5  C   UNL     1       2.472   7.390  18.756  0.00  0.00    +0.000 C 
BRANCH   5   8
ATOM      6  C   UNL     1       3.018   5.045  17.981  0.00  0.00    +0.000 C 
ATOM      7  C   UNL     1       2.530   3.719  17.457  0.00  0.00    +0.000 C 
ATOM      8  C   UNL     1       2.125   6.031  18.216  0.00  0.00    +0.000 C 
BRANCH   6   9
ATOM      9  C   UNL     1       4.496   5.259  18.259  0.00  0.00    +0.000 C 
BRANCH   9  10
ATOM     10  C   UNL     1       5.485   5.261  17.091  0.00  0.00    +0.000 C 
BRANCH  10  14
ATOM     11  C   UNL     1       7.854   8.307  17.668  0.00  0.00    +0.000 C 
ATOM     12  C   UNL     1       7.259   6.931  17.793  0.00  0.00    +0.000 C 
ATOM     13  C   UNL     1       7.861   6.018  18.823  0.00  0.00    +0.000 C 
ATOM     14  C   UNL     1       6.209   6.578  17.027  0.00  0.00    +0.000 C 
ENDBRANCH  10  14
ENDBRANCH   9  10
ENDBRANCH   6   9
ENDBRANCH   5   8
ENDBRANCH   4   5
ENDBRANCH   1   4
BRANCH   3  15
ATOM     15  C   UNL     1      -0.601  10.472  18.477  0.00  0.00    +0.000 C 
BRANCH  15  16
ATOM     16  N   UNL     1      -0.583  10.642  19.927  0.00  0.00    +0.000 N 
ATOM     17  C   UNL     1      -0.290   9.674  20.820  0.00  0.00    +0.000 A 
ATOM     18  N   UNL     1      -0.294  10.192  22.051  0.00  0.00    +0.000 N 
ATOM     19  C   UNL     1      -0.045   9.448  23.273  0.00  0.00    +0.000 C 
ATOM     20  C   UNL     1      -0.571  11.533  21.974  0.00  0.00    +0.000 A 
ATOM     21  N   UNL     1      -0.627  12.398  23.031  0.00  0.00    +0.000 NA
ATOM     22  C   UNL     1      -0.927  13.644  22.625  0.00  0.00    +0.000 A 
ATOM     23  N   UNL     1      -1.170  14.053  21.353  0.00  0.00    +0.000 NA
ATOM     24  C   UNL     1      -1.113  13.165  20.321  0.00  0.00    +0.000 A 
ATOM     25  N   UNL     1      -1.419  13.665  19.068  0.00  0.00    +0.000 N 
ATOM     26  C   UNL     1      -0.779  11.838  20.633  0.00  0.00    +0.000 A 
ATOM     27  H   UNL     1      -1.473  14.680  19.056  0.00  0.00    +0.000 HD
ATOM     28  H   UNL     1      -1.077  13.228  18.229  0.00  0.00    +0.000 HD
ENDBRANCH  15  16
ENDBRANCH   3  15
TORSDOF 8
ENDMDL
MODEL 8
REMARK VINA RESULT:      -7.2      6.481      7.644
REMARK  Name = 
REMARK  13 active torsions:
REMARK  status: ('A' for Active; 'I' for Inactive)
REMARK    1  A    between atoms: C_1  and  C_2
REMARK    2  A    between atoms: C_2  and  C_3
REMARK    3  A    between atoms: C_4  and  C_5
REMARK    4  A    between atoms: C_5  and  C_6
REMARK    5  A    between atoms: C_6  and  C_7
REMARK    6  A    between atoms: C_7  and  C_8
REMARK    7  A    between atoms: C_9  and  C_10
REMARK    8  A    between atoms: C_10  and  C_11
REMARK    9  A    between atoms: C_11  and  C_12
REMARK   10  A    between atoms: C_12  and  C_13
REMARK   11  A    between atoms: C_14  and  C_15
REMARK   12  A    between atoms: C_15  and  N_16
REMARK   13  A    between atoms: N_18  and  C_19
REMARK                            x       y       z     vdW  Elec       q    Type
REMARK                         _______ _______ _______ _____ _____    ______ ____
ROOT
ATOM      1  C   UNL     1       2.296   7.105  19.481  0.00  0.00    +0.000 C 
ATOM      2  C   UNL     1       1.923   5.960  20.391  0.00  0.00    +0.000 C 
ATOM      3  C   UNL     1       1.849   8.363  19.668  0.00  0.00    +0.000 C 
ENDROOT
BRANCH   1   4
ATOM      4  C   UNL     1       3.150   6.762  18.271  0.00  0.00    +0.000 C 
BRANCH   4   5
ATOM      5  C   UNL     1       4.345   5.887  18.679  0.00  0.00    +0.000 C 
BRANCH   5   8
ATOM      6  C   UNL     1       4.718   4.253  16.784  0.00  0.00    +0.000 C 
ATOM      7  C   UNL     1       5.571   3.804  15.625  0.00  0.00    +0.000 C 
ATOM      8  C   UNL     1       5.108   5.322  17.514  0.00  0.00    +0.000 C 
BRANCH   6   9
ATOM      9  C   UNL     1       3.427   3.523  17.112  0.00  0.00    +0.000 C 
BRANCH   9  10
ATOM     10  C   UNL     1       3.495   2.160  17.805  0.00  0.00    +0.000 C 
BRANCH  10  14
ATOM     11  C   UNL     1       1.666   2.578  21.227  0.00  0.00    +0.000 C 
ATOM     12  C   UNL     1       1.884   2.379  19.752  0.00  0.00    +0.000 C 
ATOM     13  C   UNL     1       0.661   2.319  18.884  0.00  0.00    +0.000 C 
ATOM     14  C   UNL     1       3.136   2.300  19.259  0.00  0.00    +0.000 C 
ENDBRANCH  10  14
ENDBRANCH   9  10
ENDBRANCH   6   9
ENDBRANCH   5   8
ENDBRANCH   4   5
ENDBRANCH   1   4
BRANCH   3  15
ATOM     15  C   UNL     1       0.886   8.812  20.723  0.00  0.00    +0.000 C 
BRANCH  15  16
ATOM     16  N   UNL     1       0.611  10.234  20.547  0.00  0.00    +0.000 N 
ATOM     17  C   UNL     1       0.988  10.973  19.482  0.00  0.00    +0.000 A 
ATOM     18  N   UNL     1       0.508  12.213  19.612  0.00  0.00    +0.000 N 
ATOM     19  C   UNL     1       0.727  13.298  18.673  0.00  0.00    +0.000 C 
ATOM     20  C   UNL     1      -0.221  12.293  20.771  0.00  0.00    +0.000 A 
ATOM     21  N   UNL     1      -0.888  13.400  21.219  0.00  0.00    +0.000 NA
ATOM     22  C   UNL     1      -1.503  13.158  22.389  0.00  0.00    +0.000 A 
ATOM     23  N   UNL     1      -1.488  11.997  23.095  0.00  0.00    +0.000 NA
ATOM     24  C   UNL     1      -0.807  10.913  22.627  0.00  0.00    +0.000 A 
ATOM     25  N   UNL     1      -0.813   9.792  23.436  0.00  0.00    +0.000 N 
ATOM     26  C   UNL     1      -0.152  11.052  21.393  0.00  0.00    +0.000 A 
ATOM     27  H   UNL     1      -1.480   9.866  24.200  0.00  0.00    +0.000 HD
ATOM     28  H   UNL     1      -0.669   8.871  23.060  0.00  0.00    +0.000 HD
ENDBRANCH  15  16
ENDBRANCH   3  15
TORSDOF 8
ENDMDL
MODEL 9
REMARK VINA RESULT:      -7.2      4.510     10.023
REMARK  Name = 
REMARK  13 active torsions:
REMARK  status: ('A' for Active; 'I' for Inactive)
REMARK    1  A    between atoms: C_1  and  C_2
REMARK    2  A    between atoms: C_2  and  C_3
REMARK    3  A    between atoms: C_4  and  C_5
REMARK    4  A    between atoms: C_5  and  C_6
REMARK    5  A    between atoms: C_6  and  C_7
REMARK    6  A    between atoms: C_7  and  C_8
REMARK    7  A    between atoms: C_9  and  C_10
REMARK    8  A    between atoms: C_10  and  C_11
REMARK    9  A    between atoms: C_11  and  C_12
REMARK   10  A    between atoms: C_12  and  C_13
REMARK   11  A    between atoms: C_14  and  C_15
REMARK   12  A    between atoms: C_15  and  N_16
REMARK   13  A    between atoms: N_18  and  C_19
REMARK                            x       y       z     vdW  Elec       q    Type
REMARK                         _______ _______ _______ _____ _____    ______ ____
ROOT
ATOM      1  C   UNL     1       7.282   6.076  17.512  0.00  0.00    +0.000 C 
ATOM      2  C   UNL     1       7.068   4.966  16.512  0.00  0.00    +0.000 C 
ATOM      3  C   UNL     1       6.917   5.974  18.806  0.00  0.00    +0.000 C 
ENDROOT
BRANCH   1   4
ATOM      4  C   UNL     1       7.862   7.374  16.974  0.00  0.00    +0.000 C 
BRANCH   4   5
ATOM      5  C   UNL     1       8.174   8.347  18.121  0.00  0.00    +0.000 C 
BRANCH   5   8
ATOM      6  C   UNL     1       8.901  10.756  18.382  0.00  0.00    +0.000 C 
ATOM      7  C   UNL     1       8.943  12.154  17.819  0.00  0.00    +0.000 C 
ATOM      8  C   UNL     1       8.272   9.783  17.687  0.00  0.00    +0.000 C 
BRANCH   6   9
ATOM      9  C   UNL     1       9.578  10.445  19.707  0.00  0.00    +0.000 C 
BRANCH   9  10
ATOM     10  C   UNL     1      10.617  11.421  20.262  0.00  0.00    +0.000 C 
BRANCH  10  14
ATOM     11  C   UNL     1       9.471  14.516  22.345  0.00  0.00    +0.000 C 
ATOM     12  C   UNL     1      10.125  13.698  21.264  0.00  0.00    +0.000 C 
ATOM     13  C   UNL     1      10.966  14.438  20.263  0.00  0.00    +0.000 C 
ATOM     14  C   UNL     1       9.974  12.359  21.246  0.00  0.00    +0.000 C 
ENDBRANCH  10  14
ENDBRANCH   9  10
ENDBRANCH   6   9
ENDBRANCH   5   8
ENDBRANCH   4   5
ENDBRANCH   1   4
BRANCH   3  15
ATOM     15  C   UNL     1       6.202   4.819  19.435  0.00  0.00    +0.000 C 
BRANCH  15  16
ATOM     16  N   UNL     1       4.775   4.926  19.147  0.00  0.00    +0.000 N 
ATOM     17  C   UNL     1       4.129   6.068  18.834  0.00  0.00    +0.000 A 
ATOM     18  N   UNL     1       2.850   5.792  18.560  0.00  0.00    +0.000 N 
ATOM     19  C   UNL     1       1.840   6.772  18.204  0.00  0.00    +0.000 C 
ATOM     20  C   UNL     1       2.650   4.439  18.670  0.00  0.00    +0.000 A 
ATOM     21  N   UNL     1       1.472   3.786  18.432  0.00  0.00    +0.000 NA
ATOM     22  C   UNL     1       1.600   2.463  18.631  0.00  0.00    +0.000 A 
ATOM     23  N   UNL     1       2.717   1.802  19.033  0.00  0.00    +0.000 NA
ATOM     24  C   UNL     1       3.874   2.482  19.270  0.00  0.00    +0.000 A 
ATOM     25  N   UNL     1       4.944   1.730  19.718  0.00  0.00    +0.000 N 
ATOM     26  C   UNL     1       3.856   3.871  19.063  0.00  0.00    +0.000 A 
ATOM     27  H   UNL     1       4.777   0.729  19.642  0.00  0.00    +0.000 HD
ATOM     28  H   UNL     1       5.893   2.033  19.585  0.00  0.00    +0.000 HD
ENDBRANCH  15  16
ENDBRANCH   3  15
TORSDOF 8
ENDMDL
