MODEL 1
REMARK VINA RESULT:      -7.1      0.000      0.000
REMARK  Name = 
REMARK  12 active torsions:
REMARK  status: ('A' for Active; 'I' for Inactive)
REMARK    1  A    between atoms: C_1  and  C_2
REMARK    2  A    between atoms: C_2  and  C_3
REMARK    3  A    between atoms: C_2  and  N_4
REMARK    4  A    between atoms: N_4  and  C_26
REMARK    5  A    between atoms: C_5  and  C_7
REMARK    6  A    between atoms: C_7  and  O_8
REMARK    7  A    between atoms: O_8  and  C_9
REMARK    8  A    between atoms: C_12  and  C_13
REMARK    9  A    between atoms: C_17  and  C_18
REMARK   10  A    between atoms: C_18  and  O_20
REMARK   11  A    between atoms: C_26  and  C_27
REMARK   12  A    between atoms: C_26  and  C_28
REMARK                            x       y       z     vdW  Elec       q    Type
REMARK                         _______ _______ _______ _____ _____    ______ ____
ROOT
ATOM      1  C   UNL     1       1.252   9.576  18.916  0.00  0.00    +0.000 A 
ATOM      2  C   UNL     1       1.791   8.930  17.817  0.00  0.00    +0.000 A 
ATOM      3  C   UNL     1       2.267   7.625  17.933  0.00  0.00    +0.000 A 
ATOM      4  C   UNL     1       2.370   6.969  19.178  0.00  0.00    +0.000 A 
ATOM      5  C   UNL     1       1.886   7.681  20.293  0.00  0.00    +0.000 A 
ATOM      6  C   UNL     1       1.301   8.953  20.160  0.00  0.00    +0.000 A 
ENDROOT
BRANCH   4   7
ATOM      7  C   UNL     1       2.971   5.598  19.261  0.00  0.00    +0.000 A 
ATOM      8  C   UNL     1       2.310   4.531  19.931  0.00  0.00    +0.000 A 
ATOM      9 CL   UNL     1       0.667   4.614  20.499  0.00  0.00    +0.000 Cl
ATOM     10  C   UNL     1       2.921   3.286  20.143  0.00  0.00    +0.000 A 
ATOM     11  C   UNL     1       4.179   3.016  19.617  0.00  0.00    +0.000 A 
ATOM     12  C   UNL     1       4.824   3.999  18.875  0.00  0.00    +0.000 A 
ATOM     13  C   UNL     1       4.250   5.279  18.732  0.00  0.00    +0.000 A 
ATOM     14 CL   UNL     1       5.269   6.423  17.913  0.00  0.00    +0.000 Cl
BRANCH  11  15
ATOM     15  C   UNL     1       4.742   1.656  19.829  0.00  0.00    +0.000 C 
ATOM     16  O   UNL     1       5.416   1.377  20.802  0.00  0.00    +0.000 OA
BRANCH  15  17
ATOM     17  O   UNL     1       4.484   0.779  18.839  0.00  0.00    +0.000 OA
ATOM     18  H   UNL     1       3.766   0.141  18.992  0.00  0.00    +0.000 HD
ENDBRANCH  15  17
ENDBRANCH  11  15
ENDBRANCH   4   7
BRANCH   1  19
ATOM     19  O   UNL     1       0.701  10.825  18.856  0.00  0.00    +0.000 OA
BRANCH  19  20
ATOM     20  C   UNL     1       1.608  11.912  19.054  0.00  0.00    +0.000 C 
BRANCH  20  22
ATOM     21  N   UNL     1       1.050  14.105  20.202  0.00  0.00    +0.000 N 
ATOM     22  C   UNL     1       1.373  12.737  20.346  0.00  0.00    +0.000 C 
ATOM     23  O   UNL     1       1.502  12.199  21.444  0.00  0.00    +0.000 OA
BRANCH  21  25
ATOM     24  C   UNL     1      -0.207  14.346  22.434  0.00  0.00    +0.000 C 
ATOM     25  C   UNL     1       0.763  14.944  21.406  0.00  0.00    +0.000 C 
ATOM     26  C   UNL     1       2.043  15.394  22.123  0.00  0.00    +0.000 C 
ENDBRANCH  21  25
BRANCH  21  27
ATOM     27  C   UNL     1       0.981  14.743  18.865  0.00  0.00    +0.000 C 
ATOM     28  C   UNL     1      -0.207  15.710  18.784  0.00  0.00    +0.000 C 
ATOM     29  C   UNL     1       2.264  15.448  18.399  0.00  0.00    +0.000 C 
ENDBRANCH  21  27
ENDBRANCH  20  22
ENDBRANCH  19  20
ENDBRANCH   1  19
TORSDOF 8
ENDMDL
MODEL 2
REMARK VINA RESULT:      -7.1      4.146      9.756
REMARK  Name = 
REMARK  12 active torsions:
REMARK  status: ('A' for Active; 'I' for Inactive)
REMARK    1  A    between atoms: C_1  and  C_2
REMARK    2  A    between atoms: C_2  and  C_3
REMARK    3  A    between atoms: C_2  and  N_4
REMARK    4  A    between atoms: N_4  and  C_26
REMARK    5  A    between atoms: C_5  and  C_7
REMARK    6  A    between atoms: C_7  and  O_8
REMARK    7  A    between atoms: O_8  and  C_9
REMARK    8  A    between atoms: C_12  and  C_13
REMARK    9  A    between atoms: C_17  and  C_18
REMARK   10  A    between atoms: C_18  and  O_20
REMARK   11  A    between atoms: C_26  and  C_27
REMARK   12  A    between atoms: C_26  and  C_28
REMARK                            x       y       z     vdW  Elec       q    Type
REMARK                         _______ _______ _______ _____ _____    ______ ____
ROOT
ATOM      1  C   UNL     1       2.153   8.796  18.410  0.00  0.00    +0.000 A 
ATOM      2  C   UNL     1       1.658   8.226  19.571  0.00  0.00    +0.000 A 
ATOM      3  C   UNL     1       0.729   8.914  20.351  0.00  0.00    +0.000 A 
ATOM      4  C   UNL     1       0.376  10.255  20.092  0.00  0.00    +0.000 A 
ATOM      5  C   UNL     1       0.955  10.838  18.949  0.00  0.00    +0.000 A 
ATOM      6  C   UNL     1       1.804  10.107  18.097  0.00  0.00    +0.000 A 
ENDROOT
BRANCH   4   7
ATOM      7  C   UNL     1      -0.560  10.979  21.014  0.00  0.00    +0.000 A 
ATOM      8  C   UNL     1      -0.663  10.640  22.392  0.00  0.00    +0.000 A 
ATOM      9 CL   UNL     1       0.426   9.553  23.206  0.00  0.00    +0.000 Cl
ATOM     10  C   UNL     1      -1.633  11.205  23.233  0.00  0.00    +0.000 A 
ATOM     11  C   UNL     1      -2.484  12.201  22.764  0.00  0.00    +0.000 A 
ATOM     12  C   UNL     1      -2.356  12.630  21.447  0.00  0.00    +0.000 A 
ATOM     13  C   UNL     1      -1.440  12.005  20.577  0.00  0.00    +0.000 A 
ATOM     14 CL   UNL     1      -1.534  12.561  18.934  0.00  0.00    +0.000 Cl
BRANCH  11  15
ATOM     15  C   UNL     1      -3.448  12.797  23.725  0.00  0.00    +0.000 C 
ATOM     16  O   UNL     1      -3.513  13.996  23.919  0.00  0.00    +0.000 OA
BRANCH  15  17
ATOM     17  O   UNL     1      -4.205  11.904  24.391  0.00  0.00    +0.000 OA
ATOM     18  H   UNL     1      -4.344  11.041  23.965  0.00  0.00    +0.000 HD
ENDBRANCH  15  17
ENDBRANCH  11  15
ENDBRANCH   4   7
BRANCH   1  19
ATOM     19  O   UNL     1       3.006   8.149  17.562  0.00  0.00    +0.000 OA
BRANCH  19  20
ATOM     20  C   UNL     1       3.270   6.780  17.874  0.00  0.00    +0.000 C 
BRANCH  20  22
ATOM     21  N   UNL     1       4.691   4.765  17.277  0.00  0.00    +0.000 N 
ATOM     22  C   UNL     1       4.465   6.150  17.113  0.00  0.00    +0.000 C 
ATOM     23  O   UNL     1       5.192   6.862  16.425  0.00  0.00    +0.000 OA
BRANCH  21  25
ATOM     24  C   UNL     1       5.709   4.127  15.002  0.00  0.00    +0.000 C 
ATOM     25  C   UNL     1       5.797   4.087  16.533  0.00  0.00    +0.000 C 
ATOM     26  C   UNL     1       7.183   4.579  16.971  0.00  0.00    +0.000 C 
ENDBRANCH  21  25
BRANCH  21  27
ATOM     27  C   UNL     1       3.843   3.947  18.179  0.00  0.00    +0.000 C 
ATOM     28  C   UNL     1       2.919   3.027  17.372  0.00  0.00    +0.000 C 
ATOM     29  C   UNL     1       4.597   3.132  19.241  0.00  0.00    +0.000 C 
ENDBRANCH  21  27
ENDBRANCH  20  22
ENDBRANCH  19  20
ENDBRANCH   1  19
TORSDOF 8
ENDMDL
MODEL 3
REMARK VINA RESULT:      -7.1      3.990      9.753
REMARK  Name = 
REMARK  12 active torsions:
REMARK  status: ('A' for Active; 'I' for Inactive)
REMARK    1  A    between atoms: C_1  and  C_2
REMARK    2  A    between atoms: C_2  and  C_3
REMARK    3  A    between atoms: C_2  and  N_4
REMARK    4  A    between atoms: N_4  and  C_26
REMARK    5  A    between atoms: C_5  and  C_7
REMARK    6  A    between atoms: C_7  and  O_8
REMARK    7  A    between atoms: O_8  and  C_9
REMARK    8  A    between atoms: C_12  and  C_13
REMARK    9  A    between atoms: C_17  and  C_18
REMARK   10  A    between atoms: C_18  and  O_20
REMARK   11  A    between atoms: C_26  and  C_27
REMARK   12  A    between atoms: C_26  and  C_28
REMARK                            x       y       z     vdW  Elec       q    Type
REMARK                         _______ _______ _______ _____ _____    ______ ____
ROOT
ATOM      1  C   UNL     1       2.372   7.721  18.970  0.00  0.00    +0.000 A 
ATOM      2  C   UNL     1       1.918   7.458  20.252  0.00  0.00    +0.000 A 
ATOM      3  C   UNL     1       0.995   8.308  20.858  0.00  0.00    +0.000 A 
ATOM      4  C   UNL     1       0.607   9.534  20.278  0.00  0.00    +0.000 A 
ATOM      5  C   UNL     1       1.145   9.815  19.007  0.00  0.00    +0.000 A 
ATOM      6  C   UNL     1       1.988   8.904  18.345  0.00  0.00    +0.000 A 
ENDROOT
BRANCH   4   7
ATOM      7  C   UNL     1      -0.322  10.455  21.012  0.00  0.00    +0.000 A 
ATOM      8  C   UNL     1      -0.495  10.373  22.422  0.00  0.00    +0.000 A 
ATOM      9 CL   UNL     1       0.501   9.398  23.466  0.00  0.00    +0.000 Cl
ATOM     10  C   UNL     1      -1.463  11.126  23.104  0.00  0.00    +0.000 A 
ATOM     11  C   UNL     1      -2.238  12.061  22.427  0.00  0.00    +0.000 A 
ATOM     12  C   UNL     1      -2.037  12.242  21.063  0.00  0.00    +0.000 A 
ATOM     13  C   UNL     1      -1.125  11.428  20.361  0.00  0.00    +0.000 A 
ATOM     14 CL   UNL     1      -1.127  11.686  18.643  0.00  0.00    +0.000 Cl
BRANCH  11  15
ATOM     15  C   UNL     1      -3.203  12.866  23.222  0.00  0.00    +0.000 C 
ATOM     16  O   UNL     1      -3.189  14.082  23.222  0.00  0.00    +0.000 OA
BRANCH  15  17
ATOM     17  O   UNL     1      -4.057  12.142  23.972  0.00  0.00    +0.000 OA
ATOM     18  H   UNL     1      -4.866  12.590  24.273  0.00  0.00    +0.000 HD
ENDBRANCH  15  17
ENDBRANCH  11  15
ENDBRANCH   4   7
BRANCH   1  19
ATOM     19  O   UNL     1       3.218   6.892  18.290  0.00  0.00    +0.000 OA
BRANCH  19  20
ATOM     20  C   UNL     1       2.634   5.688  17.786  0.00  0.00    +0.000 C 
BRANCH  20  22
ATOM     21  N   UNL     1       2.736   3.415  18.907  0.00  0.00    +0.000 N 
ATOM     22  C   UNL     1       3.405   4.388  18.131  0.00  0.00    +0.000 C 
ATOM     23  O   UNL     1       4.567   4.252  17.757  0.00  0.00    +0.000 OA
BRANCH  21  25
ATOM     24  C   UNL     1       3.872   1.276  18.038  0.00  0.00    +0.000 C 
ATOM     25  C   UNL     1       3.406   2.118  19.232  0.00  0.00    +0.000 C 
ATOM     26  C   UNL     1       4.575   2.295  20.212  0.00  0.00    +0.000 C 
ENDBRANCH  21  25
BRANCH  21  27
ATOM     27  C   UNL     1       1.360   3.644  19.411  0.00  0.00    +0.000 C 
ATOM     28  C   UNL     1       0.400   2.573  18.882  0.00  0.00    +0.000 C 
ATOM     29  C   UNL     1       1.224   3.762  20.937  0.00  0.00    +0.000 C 
ENDBRANCH  21  27
ENDBRANCH  20  22
ENDBRANCH  19  20
ENDBRANCH   1  19
TORSDOF 8
ENDMDL
MODEL 4
REMARK VINA RESULT:      -6.9      1.052      1.715
REMARK  Name = 
REMARK  12 active torsions:
REMARK  status: ('A' for Active; 'I' for Inactive)
REMARK    1  A    between atoms: C_1  and  C_2
REMARK    2  A    between atoms: C_2  and  C_3
REMARK    3  A    between atoms: C_2  and  N_4
REMARK    4  A    between atoms: N_4  and  C_26
REMARK    5  A    between atoms: C_5  and  C_7
REMARK    6  A    between atoms: C_7  and  O_8
REMARK    7  A    between atoms: O_8  and  C_9
REMARK    8  A    between atoms: C_12  and  C_13
REMARK    9  A    between atoms: C_17  and  C_18
REMARK   10  A    between atoms: C_18  and  O_20
REMARK   11  A    between atoms: C_26  and  C_27
REMARK   12  A    between atoms: C_26  and  C_28
REMARK                            x       y       z     vdW  Elec       q    Type
REMARK                         _______ _______ _______ _____ _____    ______ ____
ROOT
ATOM      1  C   UNL     1       1.317   9.507  19.036  0.00  0.00    +0.000 A 
ATOM      2  C   UNL     1       1.360   8.796  20.223  0.00  0.00    +0.000 A 
ATOM      3  C   UNL     1       1.983   7.550  20.274  0.00  0.00    +0.000 A 
ATOM      4  C   UNL     1       2.450   6.894  19.116  0.00  0.00    +0.000 A 
ATOM      5  C   UNL     1       2.323   7.607  17.908  0.00  0.00    +0.000 A 
ATOM      6  C   UNL     1       1.797   8.912  17.872  0.00  0.00    +0.000 A 
ENDROOT
BRANCH   4   7
ATOM      7  C   UNL     1       3.033   5.516  19.213  0.00  0.00    +0.000 A 
ATOM      8  C   UNL     1       2.351   4.462  19.883  0.00  0.00    +0.000 A 
ATOM      9 CL   UNL     1       0.704   4.570  20.435  0.00  0.00    +0.000 Cl
ATOM     10  C   UNL     1       2.943   3.210  20.109  0.00  0.00    +0.000 A 
ATOM     11  C   UNL     1       4.203   2.921  19.598  0.00  0.00    +0.000 A 
ATOM     12  C   UNL     1       4.868   3.891  18.855  0.00  0.00    +0.000 A 
ATOM     13  C   UNL     1       4.312   5.177  18.699  0.00  0.00    +0.000 A 
ATOM     14 CL   UNL     1       5.354   6.302  17.882  0.00  0.00    +0.000 Cl
BRANCH  11  15
ATOM     15  C   UNL     1       4.746   1.555  19.824  0.00  0.00    +0.000 C 
ATOM     16  O   UNL     1       5.408   1.274  20.804  0.00  0.00    +0.000 OA
BRANCH  15  17
ATOM     17  O   UNL     1       4.485   0.675  18.838  0.00  0.00    +0.000 OA
ATOM     18  H   UNL     1       4.601  -0.268  19.048  0.00  0.00    +0.000 HD
ENDBRANCH  15  17
ENDBRANCH  11  15
ENDBRANCH   4   7
BRANCH   1  19
ATOM     19  O   UNL     1       0.789  10.763  18.932  0.00  0.00    +0.000 OA
BRANCH  19  20
ATOM     20  C   UNL     1       1.088  11.652  20.010  0.00  0.00    +0.000 C 
BRANCH  20  22
ATOM     21  N   UNL     1      -0.386  13.470  20.987  0.00  0.00    +0.000 N 
ATOM     22  C   UNL     1      -0.132  12.086  20.863  0.00  0.00    +0.000 C 
ATOM     23  O   UNL     1      -0.816  11.234  21.424  0.00  0.00    +0.000 OA
BRANCH  21  25
ATOM     24  C   UNL     1      -2.946  13.487  21.245  0.00  0.00    +0.000 C 
ATOM     25  C   UNL     1      -1.576  13.954  21.754  0.00  0.00    +0.000 C 
ATOM     26  C   UNL     1      -1.465  13.651  23.255  0.00  0.00    +0.000 C 
ENDBRANCH  21  25
BRANCH  21  27
ATOM     27  C   UNL     1       0.506  14.477  20.361  0.00  0.00    +0.000 C 
ATOM     28  C   UNL     1      -0.231  15.249  19.260  0.00  0.00    +0.000 C 
ATOM     29  C   UNL     1       1.178  15.461  21.331  0.00  0.00    +0.000 C 
ENDBRANCH  21  27
ENDBRANCH  20  22
ENDBRANCH  19  20
ENDBRANCH   1  19
TORSDOF 8
ENDMDL
MODEL 5
REMARK VINA RESULT:      -6.9      4.447     10.157
REMARK  Name = 
REMARK  12 active torsions:
REMARK  status: ('A' for Active; 'I' for Inactive)
REMARK    1  A    between atoms: C_1  and  C_2
REMARK    2  A    between atoms: C_2  and  C_3
REMARK    3  A    between atoms: C_2  and  N_4
REMARK    4  A    between atoms: N_4  and  C_26
REMARK    5  A    between atoms: C_5  and  C_7
REMARK    6  A    between atoms: C_7  and  O_8
REMARK    7  A    between atoms: O_8  and  C_9
REMARK    8  A    between atoms: C_12  and  C_13
REMARK    9  A    between atoms: C_17  and  C_18
REMARK   10  A    between atoms: C_18  and  O_20
REMARK   11  A    between atoms: C_26  and  C_27
REMARK   12  A    between atoms: C_26  and  C_28
REMARK                            x       y       z     vdW  Elec       q    Type
REMARK                         _______ _______ _______ _____ _____    ______ ____
ROOT
ATOM      1  C   UNL     1       1.856   8.442  19.139  0.00  0.00    +0.000 A 
ATOM      2  C   UNL     1       1.202   8.635  20.344  0.00  0.00    +0.000 A 
ATOM      3  C   UNL     1       0.064   9.439  20.404  0.00  0.00    +0.000 A 
ATOM      4  C   UNL     1      -0.375  10.205  19.305  0.00  0.00    +0.000 A 
ATOM      5  C   UNL     1       0.356  10.050  18.111  0.00  0.00    +0.000 A 
ATOM      6  C   UNL     1       1.436   9.153  18.018  0.00  0.00    +0.000 A 
ENDROOT
BRANCH   4   7
ATOM      7  C   UNL     1      -1.553  11.122  19.448  0.00  0.00    +0.000 A 
ATOM      8  C   UNL     1      -1.576  12.164  20.417  0.00  0.00    +0.000 A 
ATOM      9 CL   UNL     1      -0.190  12.645  21.354  0.00  0.00    +0.000 Cl
ATOM     10  C   UNL     1      -2.722  12.935  20.663  0.00  0.00    +0.000 A 
ATOM     11  C   UNL     1      -3.867  12.768  19.891  0.00  0.00    +0.000 A 
ATOM     12  C   UNL     1      -3.857  11.825  18.868  0.00  0.00    +0.000 A 
ATOM     13  C   UNL     1      -2.737  10.990  18.675  0.00  0.00    +0.000 A 
ATOM     14 CL   UNL     1      -2.968   9.768  17.463  0.00  0.00    +0.000 Cl
BRANCH  11  15
ATOM     15  C   UNL     1      -5.024  13.659  20.165  0.00  0.00    +0.000 C 
ATOM     16  O   UNL     1      -6.089  13.234  20.569  0.00  0.00    +0.000 OA
BRANCH  15  17
ATOM     17  O   UNL     1      -4.811  14.960  19.888  0.00  0.00    +0.000 OA
ATOM     18  H   UNL     1      -5.481  15.592  20.200  0.00  0.00    +0.000 HD
ENDBRANCH  15  17
ENDBRANCH  11  15
ENDBRANCH   4   7
BRANCH   1  19
ATOM     19  O   UNL     1       2.931   7.610  18.994  0.00  0.00    +0.000 OA
BRANCH  19  20
ATOM     20  C   UNL     1       2.729   6.481  18.142  0.00  0.00    +0.000 C 
BRANCH  20  22
ATOM     21  N   UNL     1       4.358   4.651  17.485  0.00  0.00    +0.000 N 
ATOM     22  C   UNL     1       3.986   6.008  17.367  0.00  0.00    +0.000 C 
ATOM     23  O   UNL     1       4.635   6.818  16.708  0.00  0.00    +0.000 OA
BRANCH  21  25
ATOM     24  C   UNL     1       5.465   4.251  15.197  0.00  0.00    +0.000 C 
ATOM     25  C   UNL     1       5.532   4.120  16.724  0.00  0.00    +0.000 C 
ATOM     26  C   UNL     1       6.862   4.702  17.223  0.00  0.00    +0.000 C 
ENDBRANCH  21  25
BRANCH  21  27
ATOM     27  C   UNL     1       3.600   3.717  18.353  0.00  0.00    +0.000 C 
ATOM     28  C   UNL     1       2.758   2.752  17.510  0.00  0.00    +0.000 C 
ATOM     29  C   UNL     1       4.439   2.929  19.371  0.00  0.00    +0.000 C 
ENDBRANCH  21  27
ENDBRANCH  20  22
ENDBRANCH  19  20
ENDBRANCH   1  19
TORSDOF 8
ENDMDL
MODEL 6
REMARK VINA RESULT:      -6.9      1.051      2.135
REMARK  Name = 
REMARK  12 active torsions:
REMARK  status: ('A' for Active; 'I' for Inactive)
REMARK    1  A    between atoms: C_1  and  C_2
REMARK    2  A    between atoms: C_2  and  C_3
REMARK    3  A    between atoms: C_2  and  N_4
REMARK    4  A    between atoms: N_4  and  C_26
REMARK    5  A    between atoms: C_5  and  C_7
REMARK    6  A    between atoms: C_7  and  O_8
REMARK    7  A    between atoms: O_8  and  C_9
REMARK    8  A    between atoms: C_12  and  C_13
REMARK    9  A    between atoms: C_17  and  C_18
REMARK   10  A    between atoms: C_18  and  O_20
REMARK   11  A    between atoms: C_26  and  C_27
REMARK   12  A    between atoms: C_26  and  C_28
REMARK                            x       y       z     vdW  Elec       q    Type
REMARK                         _______ _______ _______ _____ _____    ______ ____
ROOT
ATOM      1  C   UNL     1       1.247   9.755  18.901  0.00  0.00    +0.000 A 
ATOM      2  C   UNL     1       1.811   9.132  17.801  0.00  0.00    +0.000 A 
ATOM      3  C   UNL     1       2.267   7.818  17.895  0.00  0.00    +0.000 A 
ATOM      4  C   UNL     1       2.324   7.127  19.123  0.00  0.00    +0.000 A 
ATOM      5  C   UNL     1       1.816   7.813  20.243  0.00  0.00    +0.000 A 
ATOM      6  C   UNL     1       1.251   9.097  20.128  0.00  0.00    +0.000 A 
ENDROOT
BRANCH   4   7
ATOM      7  C   UNL     1       2.906   5.746  19.185  0.00  0.00    +0.000 A 
ATOM      8  C   UNL     1       2.247   4.688  19.872  0.00  0.00    +0.000 A 
ATOM      9 CL   UNL     1       0.624   4.796  20.489  0.00  0.00    +0.000 Cl
ATOM     10  C   UNL     1       2.844   3.433  20.063  0.00  0.00    +0.000 A 
ATOM     11  C   UNL     1       4.083   3.144  19.500  0.00  0.00    +0.000 A 
ATOM     12  C   UNL     1       4.720   4.119  18.741  0.00  0.00    +0.000 A 
ATOM     13  C   UNL     1       4.163   5.408  18.618  0.00  0.00    +0.000 A 
ATOM     14 CL   UNL     1       5.176   6.538  17.772  0.00  0.00    +0.000 Cl
BRANCH  11  15
ATOM     15  C   UNL     1       4.629   1.775  19.692  0.00  0.00    +0.000 C 
ATOM     16  O   UNL     1       5.289   1.471  20.667  0.00  0.00    +0.000 OA
BRANCH  15  17
ATOM     17  O   UNL     1       4.375   0.920  18.682  0.00  0.00    +0.000 OA
ATOM     18  H   UNL     1       3.561   0.391  18.748  0.00  0.00    +0.000 HD
ENDBRANCH  15  17
ENDBRANCH  11  15
ENDBRANCH   4   7
BRANCH   1  19
ATOM     19  O   UNL     1       0.714  11.013  18.860  0.00  0.00    +0.000 OA
BRANCH  19  20
ATOM     20  C   UNL     1       1.329  11.974  19.720  0.00  0.00    +0.000 C 
BRANCH  20  22
ATOM     21  N   UNL     1       2.549  14.198  19.671  0.00  0.00    +0.000 N 
ATOM     22  C   UNL     1       2.279  12.976  19.014  0.00  0.00    +0.000 C 
ATOM     23  O   UNL     1       2.739  12.703  17.909  0.00  0.00    +0.000 OA
BRANCH  21  25
ATOM     24  C   UNL     1       4.896  14.662  18.724  0.00  0.00    +0.000 C 
ATOM     25  C   UNL     1       3.496  15.186  19.067  0.00  0.00    +0.000 C 
ATOM     26  C   UNL     1       2.903  15.885  17.835  0.00  0.00    +0.000 C 
ENDBRANCH  21  25
BRANCH  21  27
ATOM     27  C   UNL     1       1.914  14.532  20.969  0.00  0.00    +0.000 C 
ATOM     28  C   UNL     1       2.963  15.001  21.984  0.00  0.00    +0.000 C 
ATOM     29  C   UNL     1       0.760  15.545  20.901  0.00  0.00    +0.000 C 
ENDBRANCH  21  27
ENDBRANCH  20  22
ENDBRANCH  19  20
ENDBRANCH   1  19
TORSDOF 8
ENDMDL
MODEL 7
REMARK VINA RESULT:      -6.9      0.946      1.728
REMARK  Name = 
REMARK  12 active torsions:
REMARK  status: ('A' for Active; 'I' for Inactive)
REMARK    1  A    between atoms: C_1  and  C_2
REMARK    2  A    between atoms: C_2  and  C_3
REMARK    3  A    between atoms: C_2  and  N_4
REMARK    4  A    between atoms: N_4  and  C_26
REMARK    5  A    between atoms: C_5  and  C_7
REMARK    6  A    between atoms: C_7  and  O_8
REMARK    7  A    between atoms: O_8  and  C_9
REMARK    8  A    between atoms: C_12  and  C_13
REMARK    9  A    between atoms: C_17  and  C_18
REMARK   10  A    between atoms: C_18  and  O_20
REMARK   11  A    between atoms: C_26  and  C_27
REMARK   12  A    between atoms: C_26  and  C_28
REMARK                            x       y       z     vdW  Elec       q    Type
REMARK                         _______ _______ _______ _____ _____    ______ ____
ROOT
ATOM      1  C   UNL     1       1.222   9.633  18.967  0.00  0.00    +0.000 A 
ATOM      2  C   UNL     1       1.291   8.933  20.160  0.00  0.00    +0.000 A 
ATOM      3  C   UNL     1       1.921   7.691  20.210  0.00  0.00    +0.000 A 
ATOM      4  C   UNL     1       2.368   7.026  19.049  0.00  0.00    +0.000 A 
ATOM      5  C   UNL     1       2.214   7.727  17.837  0.00  0.00    +0.000 A 
ATOM      6  C   UNL     1       1.682   9.029  17.800  0.00  0.00    +0.000 A 
ENDROOT
BRANCH   4   7
ATOM      7  C   UNL     1       2.960   5.652  19.148  0.00  0.00    +0.000 A 
ATOM      8  C   UNL     1       2.301   4.603  19.850  0.00  0.00    +0.000 A 
ATOM      9 CL   UNL     1       0.669   4.712  20.445  0.00  0.00    +0.000 Cl
ATOM     10  C   UNL     1       2.905   3.357  20.076  0.00  0.00    +0.000 A 
ATOM     11  C   UNL     1       4.152   3.066  19.534  0.00  0.00    +0.000 A 
ATOM     12  C   UNL     1       4.791   4.029  18.761  0.00  0.00    +0.000 A 
ATOM     13  C   UNL     1       4.226   5.311  18.604  0.00  0.00    +0.000 A 
ATOM     14 CL   UNL     1       5.241   6.430  17.745  0.00  0.00    +0.000 Cl
BRANCH  11  15
ATOM     15  C   UNL     1       4.706   1.706  19.763  0.00  0.00    +0.000 C 
ATOM     16  O   UNL     1       5.365   1.431  20.747  0.00  0.00    +0.000 OA
BRANCH  15  17
ATOM     17  O   UNL     1       4.460   0.823  18.774  0.00  0.00    +0.000 OA
ATOM     18  H   UNL     1       4.634   1.122  17.865  0.00  0.00    +0.000 HD
ENDBRANCH  15  17
ENDBRANCH  11  15
ENDBRANCH   4   7
BRANCH   1  19
ATOM     19  O   UNL     1       0.686  10.885  18.861  0.00  0.00    +0.000 OA
BRANCH  19  20
ATOM     20  C   UNL     1       1.463  11.942  19.429  0.00  0.00    +0.000 C 
BRANCH  20  22
ATOM     21  N   UNL     1       1.467  14.475  19.551  0.00  0.00    +0.000 N 
ATOM     22  C   UNL     1       0.710  13.284  19.617  0.00  0.00    +0.000 C 
ATOM     23  O   UNL     1      -0.497  13.279  19.845  0.00  0.00    +0.000 OA
BRANCH  21  25
ATOM     24  C   UNL     1      -0.265  16.131  18.613  0.00  0.00    +0.000 C 
ATOM     25  C   UNL     1       0.794  15.805  19.674  0.00  0.00    +0.000 C 
ATOM     26  C   UNL     1       0.195  16.030  21.070  0.00  0.00    +0.000 C 
ENDBRANCH  21  25
BRANCH  21  27
ATOM     27  C   UNL     1       2.937  14.444  19.354  0.00  0.00    +0.000 C 
ATOM     28  C   UNL     1       3.310  14.957  17.957  0.00  0.00    +0.000 C 
ATOM     29  C   UNL     1       3.765  15.178  20.420  0.00  0.00    +0.000 C 
ENDBRANCH  21  27
ENDBRANCH  20  22
ENDBRANCH  19  20
ENDBRANCH   1  19
TORSDOF 8
ENDMDL
MODEL 8
REMARK VINA RESULT:      -6.8      1.577      2.689
REMARK  Name = 
REMARK  12 active torsions:
REMARK  status: ('A' for Active; 'I' for Inactive)
REMARK    1  A    between atoms: C_1  and  C_2
REMARK    2  A    between atoms: C_2  and  C_3
REMARK    3  A    between atoms: C_2  and  N_4
REMARK    4  A    between atoms: N_4  and  C_26
REMARK    5  A    between atoms: C_5  and  C_7
REMARK    6  A    between atoms: C_7  and  O_8
REMARK    7  A    between atoms: O_8  and  C_9
REMARK    8  A    between atoms: C_12  and  C_13
REMARK    9  A    between atoms: C_17  and  C_18
REMARK   10  A    between atoms: C_18  and  O_20
REMARK   11  A    between atoms: C_26  and  C_27
REMARK   12  A    between atoms: C_26  and  C_28
REMARK                            x       y       z     vdW  Elec       q    Type
REMARK                         _______ _______ _______ _____ _____    ______ ____
ROOT
ATOM      1  C   UNL     1       1.180   9.883  19.024  0.00  0.00    +0.000 A 
ATOM      2  C   UNL     1       1.184   9.144  20.195  0.00  0.00    +0.000 A 
ATOM      3  C   UNL     1       1.805   7.897  20.237  0.00  0.00    +0.000 A 
ATOM      4  C   UNL     1       2.308   7.268  19.079  0.00  0.00    +0.000 A 
ATOM      5  C   UNL     1       2.221   8.010  17.884  0.00  0.00    +0.000 A 
ATOM      6  C   UNL     1       1.697   9.315  17.863  0.00  0.00    +0.000 A 
ENDROOT
BRANCH   4   7
ATOM      7  C   UNL     1       2.887   5.887  19.162  0.00  0.00    +0.000 A 
ATOM      8  C   UNL     1       2.229   4.842  19.869  0.00  0.00    +0.000 A 
ATOM      9 CL   UNL     1       0.607   4.964  20.489  0.00  0.00    +0.000 Cl
ATOM     10  C   UNL     1       2.823   3.589  20.079  0.00  0.00    +0.000 A 
ATOM     11  C   UNL     1       4.059   3.288  19.517  0.00  0.00    +0.000 A 
ATOM     12  C   UNL     1       4.696   4.248  18.739  0.00  0.00    +0.000 A 
ATOM     13  C   UNL     1       4.142   5.536  18.596  0.00  0.00    +0.000 A 
ATOM     14 CL   UNL     1       5.154   6.649  17.728  0.00  0.00    +0.000 Cl
BRANCH  11  15
ATOM     15  C   UNL     1       4.603   1.921  19.731  0.00  0.00    +0.000 C 
ATOM     16  O   UNL     1       5.256   1.629  20.714  0.00  0.00    +0.000 OA
BRANCH  15  17
ATOM     17  O   UNL     1       4.354   1.053  18.731  0.00  0.00    +0.000 OA
ATOM     18  H   UNL     1       5.046   0.398  18.534  0.00  0.00    +0.000 HD
ENDBRANCH  15  17
ENDBRANCH  11  15
ENDBRANCH   4   7
BRANCH   1  19
ATOM     19  O   UNL     1       0.656  11.142  18.933  0.00  0.00    +0.000 OA
BRANCH  19  20
ATOM     20  C   UNL     1      -0.474  11.404  19.768  0.00  0.00    +0.000 C 
BRANCH  20  22
ATOM     21  N   UNL     1      -1.262  13.037  21.542  0.00  0.00    +0.000 N 
ATOM     22  C   UNL     1      -0.553  12.845  20.335  0.00  0.00    +0.000 C 
ATOM     23  O   UNL     1      -0.036  13.772  19.716  0.00  0.00    +0.000 OA
BRANCH  21  25
ATOM     24  C   UNL     1       0.002  15.017  22.593  0.00  0.00    +0.000 C 
ATOM     25  C   UNL     1      -1.334  14.395  22.167  0.00  0.00    +0.000 C 
ATOM     26  C   UNL     1      -2.103  15.398  21.296  0.00  0.00    +0.000 C 
ENDBRANCH  21  25
BRANCH  21  27
ATOM     27  C   UNL     1      -1.944  11.910  22.223  0.00  0.00    +0.000 C 
ATOM     28  C   UNL     1      -0.941  11.068  23.020  0.00  0.00    +0.000 C 
ATOM     29  C   UNL     1      -3.131  12.297  23.118  0.00  0.00    +0.000 C 
ENDBRANCH  21  27
ENDBRANCH  20  22
ENDBRANCH  19  20
ENDBRANCH   1  19
TORSDOF 8
ENDMDL
MODEL 9
REMARK VINA RESULT:      -6.8      0.987      2.102
REMARK  Name = 
REMARK  12 active torsions:
REMARK  status: ('A' for Active; 'I' for Inactive)
REMARK    1  A    between atoms: C_1  and  C_2
REMARK    2  A    between atoms: C_2  and  C_3
REMARK    3  A    between atoms: C_2  and  N_4
REMARK    4  A    between atoms: N_4  and  C_26
REMARK    5  A    between atoms: C_5  and  C_7
REMARK    6  A    between atoms: C_7  and  O_8
REMARK    7  A    between atoms: O_8  and  C_9
REMARK    8  A    between atoms: C_12  and  C_13
REMARK    9  A    between atoms: C_17  and  C_18
REMARK   10  A    between atoms: C_18  and  O_20
REMARK   11  A    between atoms: C_26  and  C_27
REMARK   12  A    between atoms: C_26  and  C_28
REMARK                            x       y       z     vdW  Elec       q    Type
REMARK                         _______ _______ _______ _____ _____    ______ ____
ROOT
ATOM      1  C   UNL     1       1.245   9.655  19.048  0.00  0.00    +0.000 A 
ATOM      2  C   UNL     1       1.301   8.936  20.230  0.00  0.00    +0.000 A 
ATOM      3  C   UNL     1       1.923   7.689  20.266  0.00  0.00    +0.000 A 
ATOM      4  C   UNL     1       2.374   7.040  19.097  0.00  0.00    +0.000 A 
ATOM      5  C   UNL     1       2.234   7.761  17.895  0.00  0.00    +0.000 A 
ATOM      6  C   UNL     1       1.709   9.066  17.875  0.00  0.00    +0.000 A 
ENDROOT
BRANCH   4   7
ATOM      7  C   UNL     1       2.957   5.661  19.179  0.00  0.00    +0.000 A 
ATOM      8  C   UNL     1       2.288   4.607  19.862  0.00  0.00    +0.000 A 
ATOM      9 CL   UNL     1       0.655   4.717  20.452  0.00  0.00    +0.000 Cl
ATOM     10  C   UNL     1       2.883   3.353  20.072  0.00  0.00    +0.000 A 
ATOM     11  C   UNL     1       4.131   3.062  19.531  0.00  0.00    +0.000 A 
ATOM     12  C   UNL     1       4.780   4.032  18.775  0.00  0.00    +0.000 A 
ATOM     13  C   UNL     1       4.223   5.320  18.634  0.00  0.00    +0.000 A 
ATOM     14 CL   UNL     1       5.248   6.444  17.796  0.00  0.00    +0.000 Cl
BRANCH  11  15
ATOM     15  C   UNL     1       4.675   1.695  19.743  0.00  0.00    +0.000 C 
ATOM     16  O   UNL     1       5.324   1.400  20.728  0.00  0.00    +0.000 OA
BRANCH  15  17
ATOM     17  O   UNL     1       4.433   0.830  18.738  0.00  0.00    +0.000 OA
ATOM     18  H   UNL     1       4.536  -0.116  18.938  0.00  0.00    +0.000 HD
ENDBRANCH  15  17
ENDBRANCH  11  15
ENDBRANCH   4   7
BRANCH   1  19
ATOM     19  O   UNL     1       0.717  10.912  18.959  0.00  0.00    +0.000 OA
BRANCH  19  20
ATOM     20  C   UNL     1       0.926  11.754  20.095  0.00  0.00    +0.000 C 
BRANCH  20  22
ATOM     21  N   UNL     1       0.090  14.129  20.403  0.00  0.00    +0.000 N 
ATOM     22  C   UNL     1       1.023  13.269  19.781  0.00  0.00    +0.000 C 
ATOM     23  O   UNL     1       1.873  13.674  18.991  0.00  0.00    +0.000 OA
BRANCH  21  25
ATOM     24  C   UNL     1       1.472  16.292  20.589  0.00  0.00    +0.000 C 
ATOM     25  C   UNL     1       0.161  15.606  20.181  0.00  0.00    +0.000 C 
ATOM     26  C   UNL     1      -0.185  15.998  18.738  0.00  0.00    +0.000 C 
ENDBRANCH  21  25
BRANCH  21  27
ATOM     27  C   UNL     1      -0.974  13.599  21.289  0.00  0.00    +0.000 C 
ATOM     28  C   UNL     1      -0.768  14.076  22.732  0.00  0.00    +0.000 C 
ATOM     29  C   UNL     1      -2.415  13.888  20.842  0.00  0.00    +0.000 C 
ENDBRANCH  21  27
ENDBRANCH  20  22
ENDBRANCH  19  20
ENDBRANCH   1  19
TORSDOF 8
ENDMDL
