MODEL 1
REMARK VINA RESULT:      -8.2      0.000      0.000
REMARK  Name = 
REMARK  4 active torsions:
REMARK  status: ('A' for Active; 'I' for Inactive)
REMARK    1  A    between atoms: C_1  and  C_2
REMARK    2  A    between atoms: C_6  and  C_7
REMARK    3  A    between atoms: C_7  and  N_8
REMARK    4  A    between atoms: N_15  and  C_16
REMARK                            x       y       z     vdW  Elec       q    Type
REMARK                         _______ _______ _______ _____ _____    ______ ____
ROOT
ATOM      1  N   UNL     1       6.229   4.858  16.392  0.00  0.00    +0.000 NA
ATOM      2  C   UNL     1       6.306   4.315  17.750  0.00  0.00    +0.000 C 
ATOM      3  C   UNL     1       4.990   4.594  18.452  0.00  0.00    +0.000 C 
ATOM      4  C   UNL     1       4.046   5.234  17.418  0.00  0.00    +0.000 C 
ATOM      5  C   UNL     1       3.742   6.702  17.785  0.00  0.00    +0.000 C 
ATOM      6  C   UNL     1       2.845   6.812  19.019  0.00  0.00    +0.000 C 
ATOM      7  C   UNL     1       1.600   5.972  18.804  0.00  0.00    +0.000 C 
ATOM      8  N   UNL     1       1.965   4.590  18.515  0.00  0.00    +0.000 N 
ATOM      9  C   UNL     1       2.767   4.376  17.398  0.00  0.00    +0.000 C 
ATOM     10  O   UNL     1       2.586   3.446  16.619  0.00  0.00    +0.000 OA
ATOM     11  C   UNL     1       4.804   5.114  16.092  0.00  0.00    +0.000 C 
ENDROOT
BRANCH   8  12
ATOM     12  C   UNL     1       1.378   3.421  19.204  0.00  0.00    +0.000 C 
ATOM     13  C   UNL     1       2.247   2.164  19.073  0.00  0.00    +0.000 C 
ATOM     14  C   UNL     1       3.410   2.100  20.057  0.00  0.00    +0.000 C 
ATOM     15  C   UNL     1       3.021   2.454  21.491  0.00  0.00    +0.000 C 
ATOM     16  C   UNL     1       2.068   3.639  21.649  0.00  0.00    +0.000 C 
ATOM     17  C   UNL     1       0.926   3.642  20.644  0.00  0.00    +0.000 C 
ENDBRANCH   8  12
BRANCH   1  18
ATOM     18  C   UNL     1       6.766   3.898  15.398  0.00  0.00    +0.000 C 
BRANCH  18  24
ATOM     19  C   UNL     1       5.873   3.221  12.284  0.00  0.00    +0.000 C 
ATOM     20  C   UNL     1       6.806   4.245  12.792  0.00  0.00    +0.000 A 
ATOM     21  N   UNL     1       7.473   5.044  11.952  0.00  0.00    +0.000 NA
ATOM     22  O   UNL     1       8.254   5.853  12.769  0.00  0.00    +0.000 OA
ATOM     23  N   UNL     1       8.062   5.546  14.111  0.00  0.00    +0.000 NA
ATOM     24  C   UNL     1       7.170   4.549  14.117  0.00  0.00    +0.000 A 
ENDBRANCH  18  24
ENDBRANCH   1  18
TORSDOF 3
ENDMDL
MODEL 2
REMARK VINA RESULT:      -7.1      2.045      3.053
REMARK  Name = 
REMARK  4 active torsions:
REMARK  status: ('A' for Active; 'I' for Inactive)
REMARK    1  A    between atoms: C_1  and  C_2
REMARK    2  A    between atoms: C_6  and  C_7
REMARK    3  A    between atoms: C_7  and  N_8
REMARK    4  A    between atoms: N_15  and  C_16
REMARK                            x       y       z     vdW  Elec       q    Type
REMARK                         _______ _______ _______ _____ _____    ______ ____
ROOT
ATOM      1  N   UNL     1       6.691   4.047  14.495  0.00  0.00    +0.000 NA
ATOM      2  C   UNL     1       5.580   3.196  14.924  0.00  0.00    +0.000 C 
ATOM      3  C   UNL     1       5.110   3.671  16.286  0.00  0.00    +0.000 C 
ATOM      4  C   UNL     1       5.910   4.941  16.628  0.00  0.00    +0.000 C 
ATOM      5  C   UNL     1       6.853   4.692  17.825  0.00  0.00    +0.000 C 
ATOM      6  C   UNL     1       6.086   4.538  19.139  0.00  0.00    +0.000 C 
ATOM      7  C   UNL     1       5.176   5.738  19.326  0.00  0.00    +0.000 C 
ATOM      8  N   UNL     1       4.281   5.877  18.183  0.00  0.00    +0.000 N 
ATOM      9  C   UNL     1       4.878   6.042  16.938  0.00  0.00    +0.000 C 
ATOM     10  O   UNL     1       4.458   6.833  16.100  0.00  0.00    +0.000 OA
ATOM     11  C   UNL     1       6.678   5.260  15.342  0.00  0.00    +0.000 C 
ENDROOT
BRANCH   8  12
ATOM     12  C   UNL     1       2.817   6.054  18.300  0.00  0.00    +0.000 C 
ATOM     13  C   UNL     1       2.034   4.872  17.716  0.00  0.00    +0.000 C 
ATOM     14  C   UNL     1       1.917   3.673  18.651  0.00  0.00    +0.000 C 
ATOM     15  C   UNL     1       1.527   4.046  20.080  0.00  0.00    +0.000 C 
ATOM     16  C   UNL     1       2.212   5.286  20.655  0.00  0.00    +0.000 C 
ATOM     17  C   UNL     1       2.292   6.448  19.676  0.00  0.00    +0.000 C 
ENDBRANCH   8  12
BRANCH   1  18
ATOM     18  C   UNL     1       6.543   4.449  13.076  0.00  0.00    +0.000 C 
BRANCH  18  24
ATOM     19  C   UNL     1       3.915   3.255  11.457  0.00  0.00    +0.000 C 
ATOM     20  C   UNL     1       5.306   2.764  11.480  0.00  0.00    +0.000 A 
ATOM     21  N   UNL     1       5.656   1.658  10.816  0.00  0.00    +0.000 NA
ATOM     22  O   UNL     1       7.012   1.495  11.075  0.00  0.00    +0.000 OA
ATOM     23  N   UNL     1       7.490   2.506  11.900  0.00  0.00    +0.000 NA
ATOM     24  C   UNL     1       6.430   3.284  12.149  0.00  0.00    +0.000 A 
ENDBRANCH  18  24
ENDBRANCH   1  18
TORSDOF 3
ENDMDL
MODEL 3
REMARK VINA RESULT:      -7.0      2.854      5.119
REMARK  Name = 
REMARK  4 active torsions:
REMARK  status: ('A' for Active; 'I' for Inactive)
REMARK    1  A    between atoms: C_1  and  C_2
REMARK    2  A    between atoms: C_6  and  C_7
REMARK    3  A    between atoms: C_7  and  N_8
REMARK    4  A    between atoms: N_15  and  C_16
REMARK                            x       y       z     vdW  Elec       q    Type
REMARK                         _______ _______ _______ _____ _____    ______ ____
ROOT
ATOM      1  N   UNL     1       3.689   3.833  18.087  0.00  0.00    +0.000 NA
ATOM      2  C   UNL     1       2.387   4.070  17.459  0.00  0.00    +0.000 C 
ATOM      3  C   UNL     1       1.796   5.338  18.048  0.00  0.00    +0.000 C 
ATOM      4  C   UNL     1       2.854   5.942  18.988  0.00  0.00    +0.000 C 
ATOM      5  C   UNL     1       2.382   5.883  20.458  0.00  0.00    +0.000 C 
ATOM      6  C   UNL     1       1.238   6.860  20.734  0.00  0.00    +0.000 C 
ATOM      7  C   UNL     1       1.654   8.250  20.287  0.00  0.00    +0.000 C 
ATOM      8  N   UNL     1       2.034   8.237  18.880  0.00  0.00    +0.000 N 
ATOM      9  C   UNL     1       3.081   7.393  18.522  0.00  0.00    +0.000 C 
ATOM     10  O   UNL     1       3.959   7.721  17.731  0.00  0.00    +0.000 OA
ATOM     11  C   UNL     1       4.103   5.089  18.747  0.00  0.00    +0.000 C 
ENDROOT
BRANCH   8  12
ATOM     12  C   UNL     1       1.520   9.196  17.879  0.00  0.00    +0.000 C 
ATOM     13  C   UNL     1      -0.012   9.245  17.845  0.00  0.00    +0.000 C 
ATOM     14  C   UNL     1      -0.637  10.114  18.930  0.00  0.00    +0.000 C 
ATOM     15  C   UNL     1       0.035  11.476  19.088  0.00  0.00    +0.000 C 
ATOM     16  C   UNL     1       1.563  11.477  19.019  0.00  0.00    +0.000 C 
ATOM     17  C   UNL     1       2.124  10.596  17.913  0.00  0.00    +0.000 C 
ENDBRANCH   8  12
BRANCH   1  18
ATOM     18  C   UNL     1       4.710   3.457  17.080  0.00  0.00    +0.000 C 
BRANCH  18  24
ATOM     19  C   UNL     1       7.672   4.660  17.933  0.00  0.00    +0.000 C 
ATOM     20  C   UNL     1       6.712   5.156  16.928  0.00  0.00    +0.000 A 
ATOM     21  N   UNL     1       6.959   6.270  16.232  0.00  0.00    +0.000 NA
ATOM     22  O   UNL     1       5.851   6.434  15.410  0.00  0.00    +0.000 OA
ATOM     23  N   UNL     1       4.925   5.415  15.606  0.00  0.00    +0.000 NA
ATOM     24  C   UNL     1       5.462   4.632  16.548  0.00  0.00    +0.000 A 
ENDBRANCH  18  24
ENDBRANCH   1  18
TORSDOF 3
ENDMDL
MODEL 4
REMARK VINA RESULT:      -7.0      2.971      5.144
REMARK  Name = 
REMARK  4 active torsions:
REMARK  status: ('A' for Active; 'I' for Inactive)
REMARK    1  A    between atoms: C_1  and  C_2
REMARK    2  A    between atoms: C_6  and  C_7
REMARK    3  A    between atoms: C_7  and  N_8
REMARK    4  A    between atoms: N_15  and  C_16
REMARK                            x       y       z     vdW  Elec       q    Type
REMARK                         _______ _______ _______ _____ _____    ______ ____
ROOT
ATOM      1  N   UNL     1       3.688   3.890  18.184  0.00  0.00    +0.000 NA
ATOM      2  C   UNL     1       2.391   4.104  17.539  0.00  0.00    +0.000 C 
ATOM      3  C   UNL     1       1.777   5.371  18.106  0.00  0.00    +0.000 C 
ATOM      4  C   UNL     1       2.817   5.999  19.051  0.00  0.00    +0.000 C 
ATOM      5  C   UNL     1       2.329   5.952  20.515  0.00  0.00    +0.000 C 
ATOM      6  C   UNL     1       1.170   6.917  20.767  0.00  0.00    +0.000 C 
ATOM      7  C   UNL     1       1.574   8.307  20.309  0.00  0.00    +0.000 C 
ATOM      8  N   UNL     1       1.970   8.282  18.906  0.00  0.00    +0.000 N 
ATOM      9  C   UNL     1       3.031   7.448  18.570  0.00  0.00    +0.000 C 
ATOM     10  O   UNL     1       3.913   7.778  17.785  0.00  0.00    +0.000 OA
ATOM     11  C   UNL     1       4.080   5.160  18.833  0.00  0.00    +0.000 C 
ENDROOT
BRANCH   8  12
ATOM     12  C   UNL     1       1.455   9.223  17.888  0.00  0.00    +0.000 C 
ATOM     13  C   UNL     1      -0.078   9.281  17.863  0.00  0.00    +0.000 C 
ATOM     14  C   UNL     1      -0.690  10.178  18.934  0.00  0.00    +0.000 C 
ATOM     15  C   UNL     1      -0.007  11.538  19.058  0.00  0.00    +0.000 C 
ATOM     16  C   UNL     1       1.520  11.527  18.979  0.00  0.00    +0.000 C 
ATOM     17  C   UNL     1       2.068  10.619  17.888  0.00  0.00    +0.000 C 
ENDBRANCH   8  12
BRANCH   1  18
ATOM     18  C   UNL     1       4.725   3.516  17.193  0.00  0.00    +0.000 C 
BRANCH  18  24
ATOM     19  C   UNL     1       5.318   6.051  15.149  0.00  0.00    +0.000 C 
ATOM     20  C   UNL     1       6.130   5.539  16.270  0.00  0.00    +0.000 A 
ATOM     21  N   UNL     1       7.315   6.082  16.565  0.00  0.00    +0.000 NA
ATOM     22  O   UNL     1       7.789   5.349  17.646  0.00  0.00    +0.000 OA
ATOM     23  N   UNL     1       6.889   4.355  18.012  0.00  0.00    +0.000 NA
ATOM     24  C   UNL     1       5.868   4.476  17.155  0.00  0.00    +0.000 A 
ENDBRANCH  18  24
ENDBRANCH   1  18
TORSDOF 3
ENDMDL
MODEL 5
REMARK VINA RESULT:      -6.9      1.280      1.463
REMARK  Name = 
REMARK  4 active torsions:
REMARK  status: ('A' for Active; 'I' for Inactive)
REMARK    1  A    between atoms: C_1  and  C_2
REMARK    2  A    between atoms: C_6  and  C_7
REMARK    3  A    between atoms: C_7  and  N_8
REMARK    4  A    between atoms: N_15  and  C_16
REMARK                            x       y       z     vdW  Elec       q    Type
REMARK                         _______ _______ _______ _____ _____    ______ ____
ROOT
ATOM      1  N   UNL     1       6.784   5.678  16.863  0.00  0.00    +0.000 NA
ATOM      2  C   UNL     1       6.728   5.106  18.211  0.00  0.00    +0.000 C 
ATOM      3  C   UNL     1       5.274   5.020  18.635  0.00  0.00    +0.000 C 
ATOM      4  C   UNL     1       4.420   5.457  17.431  0.00  0.00    +0.000 C 
ATOM      5  C   UNL     1       3.692   6.786  17.725  0.00  0.00    +0.000 C 
ATOM      6  C   UNL     1       2.574   6.614  18.755  0.00  0.00    +0.000 C 
ATOM      7  C   UNL     1       1.645   5.504  18.297  0.00  0.00    +0.000 C 
ATOM      8  N   UNL     1       2.394   4.270  18.091  0.00  0.00    +0.000 N 
ATOM      9  C   UNL     1       3.425   4.312  17.158  0.00  0.00    +0.000 C 
ATOM     10  O   UNL     1       3.637   3.405  16.361  0.00  0.00    +0.000 OA
ATOM     11  C   UNL     1       5.427   5.589  16.284  0.00  0.00    +0.000 C 
ENDROOT
BRANCH   8  12
ATOM     12  C   UNL     1       1.995   2.961  18.651  0.00  0.00    +0.000 C 
ATOM     13  C   UNL     1       3.185   2.178  19.218  0.00  0.00    +0.000 C 
ATOM     14  C   UNL     1       3.603   2.599  20.623  0.00  0.00    +0.000 C 
ATOM     15  C   UNL     1       2.431   2.757  21.590  0.00  0.00    +0.000 C 
ATOM     16  C   UNL     1       1.187   3.440  21.022  0.00  0.00    +0.000 C 
ATOM     17  C   UNL     1       0.819   2.972  19.622  0.00  0.00    +0.000 C 
ENDBRANCH   8  12
BRANCH   1  18
ATOM     18  C   UNL     1       7.727   4.926  16.000  0.00  0.00    +0.000 C 
BRANCH  18  24
ATOM     19  C   UNL     1       8.368   5.824  12.880  0.00  0.00    +0.000 C 
ATOM     20  C   UNL     1       7.366   4.871  13.396  0.00  0.00    +0.000 A 
ATOM     21  N   UNL     1       6.515   4.255  12.570  0.00  0.00    +0.000 NA
ATOM     22  O   UNL     1       5.724   3.462  13.393  0.00  0.00    +0.000 OA
ATOM     23  N   UNL     1       6.095   3.596  14.726  0.00  0.00    +0.000 NA
ATOM     24  C   UNL     1       7.108   4.471  14.720  0.00  0.00    +0.000 A 
ENDBRANCH  18  24
ENDBRANCH   1  18
TORSDOF 3
ENDMDL
MODEL 6
REMARK VINA RESULT:      -6.8      2.116      3.086
REMARK  Name = 
REMARK  4 active torsions:
REMARK  status: ('A' for Active; 'I' for Inactive)
REMARK    1  A    between atoms: C_1  and  C_2
REMARK    2  A    between atoms: C_6  and  C_7
REMARK    3  A    between atoms: C_7  and  N_8
REMARK    4  A    between atoms: N_15  and  C_16
REMARK                            x       y       z     vdW  Elec       q    Type
REMARK                         _______ _______ _______ _____ _____    ______ ____
ROOT
ATOM      1  N   UNL     1       6.845   4.076  14.695  0.00  0.00    +0.000 NA
ATOM      2  C   UNL     1       5.699   3.235  15.048  0.00  0.00    +0.000 C 
ATOM      3  C   UNL     1       5.147   3.711  16.379  0.00  0.00    +0.000 C 
ATOM      4  C   UNL     1       5.936   4.972  16.776  0.00  0.00    +0.000 C 
ATOM      5  C   UNL     1       6.797   4.709  18.031  0.00  0.00    +0.000 C 
ATOM      6  C   UNL     1       5.944   4.560  19.292  0.00  0.00    +0.000 C 
ATOM      7  C   UNL     1       5.037   5.769  19.423  0.00  0.00    +0.000 C 
ATOM      8  N   UNL     1       4.219   5.921  18.226  0.00  0.00    +0.000 N 
ATOM      9  C   UNL     1       4.898   6.083  17.022  0.00  0.00    +0.000 C 
ATOM     10  O   UNL     1       4.542   6.881  16.161  0.00  0.00    +0.000 OA
ATOM     11  C   UNL     1       6.790   5.285  15.544  0.00  0.00    +0.000 C 
ENDROOT
BRANCH   8  12
ATOM     12  C   UNL     1       2.754   6.114  18.248  0.00  0.00    +0.000 C 
ATOM     13  C   UNL     1       1.992   4.888  17.727  0.00  0.00    +0.000 C 
ATOM     14  C   UNL     1       1.815   3.775  18.754  0.00  0.00    +0.000 C 
ATOM     15  C   UNL     1       1.353   4.272  20.123  0.00  0.00    +0.000 C 
ATOM     16  C   UNL     1       2.017   5.555  20.625  0.00  0.00    +0.000 C 
ATOM     17  C   UNL     1       2.159   6.627  19.555  0.00  0.00    +0.000 C 
ENDBRANCH   8  12
BRANCH   1  18
ATOM     18  C   UNL     1       6.793   4.483  13.271  0.00  0.00    +0.000 C 
BRANCH  18  24
ATOM     19  C   UNL     1       7.526   1.895  11.343  0.00  0.00    +0.000 C 
ATOM     20  C   UNL     1       6.219   2.525  11.611  0.00  0.00    +0.000 A 
ATOM     21  N   UNL     1       5.110   2.090  11.006  0.00  0.00    +0.000 NA
ATOM     22  O   UNL     1       4.095   2.915  11.478  0.00  0.00    +0.000 OA
ATOM     23  N   UNL     1       4.589   3.856  12.374  0.00  0.00    +0.000 NA
ATOM     24  C   UNL     1       5.902   3.612  12.448  0.00  0.00    +0.000 A 
ENDBRANCH  18  24
ENDBRANCH   1  18
TORSDOF 3
ENDMDL
MODEL 7
REMARK VINA RESULT:      -6.7      4.486      5.829
REMARK  Name = 
REMARK  4 active torsions:
REMARK  status: ('A' for Active; 'I' for Inactive)
REMARK    1  A    between atoms: C_1  and  C_2
REMARK    2  A    between atoms: C_6  and  C_7
REMARK    3  A    between atoms: C_7  and  N_8
REMARK    4  A    between atoms: N_15  and  C_16
REMARK                            x       y       z     vdW  Elec       q    Type
REMARK                         _______ _______ _______ _____ _____    ______ ____
ROOT
ATOM      1  N   UNL     1       7.916   8.404  17.534  0.00  0.00    +0.000 NA
ATOM      2  C   UNL     1       6.473   8.638  17.451  0.00  0.00    +0.000 C 
ATOM      3  C   UNL     1       5.776   7.296  17.326  0.00  0.00    +0.000 C 
ATOM      4  C   UNL     1       6.855   6.206  17.459  0.00  0.00    +0.000 C 
ATOM      5  C   UNL     1       7.032   5.442  16.129  0.00  0.00    +0.000 C 
ATOM      6  C   UNL     1       5.833   4.546  15.817  0.00  0.00    +0.000 C 
ATOM      7  C   UNL     1       5.569   3.639  17.005  0.00  0.00    +0.000 C 
ATOM      8  N   UNL     1       5.360   4.433  18.211  0.00  0.00    +0.000 N 
ATOM      9  C   UNL     1       6.401   5.271  18.596  0.00  0.00    +0.000 C 
ATOM     10  O   UNL     1       6.748   5.406  19.764  0.00  0.00    +0.000 OA
ATOM     11  C   UNL     1       8.119   6.975  17.857  0.00  0.00    +0.000 C 
ENDROOT
BRANCH   8  12
ATOM     12  C   UNL     1       4.219   4.246  19.133  0.00  0.00    +0.000 C 
ATOM     13  C   UNL     1       3.324   5.489  19.220  0.00  0.00    +0.000 C 
ATOM     14  C   UNL     1       2.321   5.621  18.079  0.00  0.00    +0.000 C 
ATOM     15  C   UNL     1       1.575   4.326  17.765  0.00  0.00    +0.000 C 
ATOM     16  C   UNL     1       2.420   3.052  17.776  0.00  0.00    +0.000 C 
ATOM     17  C   UNL     1       3.396   2.976  18.940  0.00  0.00    +0.000 C 
ENDBRANCH   8  12
BRANCH   1  18
ATOM     18  C   UNL     1       8.533   9.231  18.599  0.00  0.00    +0.000 C 
BRANCH  18  24
ATOM     19  C   UNL     1      11.136  11.187  19.193  0.00  0.00    +0.000 C 
ATOM     20  C   UNL     1       9.901  11.471  18.437  0.00  0.00    +0.000 A 
ATOM     21  N   UNL     1       9.683  12.679  17.907  0.00  0.00    +0.000 NA
ATOM     22  O   UNL     1       8.438  12.584  17.295  0.00  0.00    +0.000 OA
ATOM     23  N   UNL     1       7.896  11.314  17.454  0.00  0.00    +0.000 NA
ATOM     24  C   UNL     1       8.803  10.633  18.164  0.00  0.00    +0.000 A 
ENDBRANCH  18  24
ENDBRANCH   1  18
TORSDOF 3
ENDMDL
MODEL 8
REMARK VINA RESULT:      -6.7      1.122      1.736
REMARK  Name = 
REMARK  4 active torsions:
REMARK  status: ('A' for Active; 'I' for Inactive)
REMARK    1  A    between atoms: C_1  and  C_2
REMARK    2  A    between atoms: C_6  and  C_7
REMARK    3  A    between atoms: C_7  and  N_8
REMARK    4  A    between atoms: N_15  and  C_16
REMARK                            x       y       z     vdW  Elec       q    Type
REMARK                         _______ _______ _______ _____ _____    ______ ____
ROOT
ATOM      1  N   UNL     1       6.845   5.841  15.752  0.00  0.00    +0.000 NA
ATOM      2  C   UNL     1       7.242   5.878  17.161  0.00  0.00    +0.000 C 
ATOM      3  C   UNL     1       5.986   5.948  18.011  0.00  0.00    +0.000 C 
ATOM      4  C   UNL     1       4.782   5.830  17.058  0.00  0.00    +0.000 C 
ATOM      5  C   UNL     1       3.979   7.147  17.021  0.00  0.00    +0.000 C 
ATOM      6  C   UNL     1       3.221   7.396  18.325  0.00  0.00    +0.000 C 
ATOM      7  C   UNL     1       2.372   6.179  18.646  0.00  0.00    +0.000 C 
ATOM      8  N   UNL     1       3.206   4.985  18.717  0.00  0.00    +0.000 N 
ATOM      9  C   UNL     1       3.927   4.656  17.573  0.00  0.00    +0.000 C 
ATOM     10  O   UNL     1       4.042   3.504  17.169  0.00  0.00    +0.000 OA
ATOM     11  C   UNL     1       5.408   5.494  15.701  0.00  0.00    +0.000 C 
ENDROOT
BRANCH   8  12
ATOM     12  C   UNL     1       3.168   4.020  19.836  0.00  0.00    +0.000 C 
ATOM     13  C   UNL     1       2.172   4.426  20.929  0.00  0.00    +0.000 C 
ATOM     14  C   UNL     1       0.723   4.060  20.626  0.00  0.00    +0.000 C 
ATOM     15  C   UNL     1       0.547   2.634  20.107  0.00  0.00    +0.000 C 
ATOM     16  C   UNL     1       1.589   2.160  19.094  0.00  0.00    +0.000 C 
ATOM     17  C   UNL     1       3.014   2.551  19.456  0.00  0.00    +0.000 C 
ENDBRANCH   8  12
BRANCH   1  18
ATOM     18  C   UNL     1       7.614   4.817  15.005  0.00  0.00    +0.000 C 
BRANCH  18  24
ATOM     19  C   UNL     1       5.862   3.294  12.647  0.00  0.00    +0.000 C 
ATOM     20  C   UNL     1       6.863   4.371  12.524  0.00  0.00    +0.000 A 
ATOM     21  N   UNL     1       7.218   4.846  11.326  0.00  0.00    +0.000 NA
ATOM     22  O   UNL     1       8.175   5.818  11.594  0.00  0.00    +0.000 OA
ATOM     23  N   UNL     1       8.404   5.935  12.960  0.00  0.00    +0.000 NA
ATOM     24  C   UNL     1       7.593   5.036  13.528  0.00  0.00    +0.000 A 
ENDBRANCH  18  24
ENDBRANCH   1  18
TORSDOF 3
ENDMDL
MODEL 9
REMARK VINA RESULT:      -6.6     10.422     12.867
REMARK  Name = 
REMARK  4 active torsions:
REMARK  status: ('A' for Active; 'I' for Inactive)
REMARK    1  A    between atoms: C_1  and  C_2
REMARK    2  A    between atoms: C_6  and  C_7
REMARK    3  A    between atoms: C_7  and  N_8
REMARK    4  A    between atoms: N_15  and  C_16
REMARK                            x       y       z     vdW  Elec       q    Type
REMARK                         _______ _______ _______ _____ _____    ______ ____
ROOT
ATOM      1  N   UNL     1       5.153  16.067  18.590  0.00  0.00    +0.000 NA
ATOM      2  C   UNL     1       5.411  14.890  17.757  0.00  0.00    +0.000 C 
ATOM      3  C   UNL     1       6.861  14.482  17.940  0.00  0.00    +0.000 C 
ATOM      4  C   UNL     1       7.459  15.396  19.025  0.00  0.00    +0.000 C 
ATOM      5  C   UNL     1       8.534  16.329  18.428  0.00  0.00    +0.000 C 
ATOM      6  C   UNL     1       9.802  15.569  18.037  0.00  0.00    +0.000 C 
ATOM      7  C   UNL     1      10.291  14.771  19.232  0.00  0.00    +0.000 C 
ATOM      8  N   UNL     1       9.242  13.877  19.707  0.00  0.00    +0.000 N 
ATOM      9  C   UNL     1       8.048  14.470  20.107  0.00  0.00    +0.000 C 
ATOM     10  O   UNL     1       7.429  14.111  21.103  0.00  0.00    +0.000 OA
ATOM     11  C   UNL     1       6.256  16.173  19.569  0.00  0.00    +0.000 C 
ENDROOT
BRANCH   8  12
ATOM     12  C   UNL     1       9.445  12.437  19.973  0.00  0.00    +0.000 C 
ATOM     13  C   UNL     1       9.282  11.578  18.712  0.00  0.00    +0.000 C 
ATOM     14  C   UNL     1      10.516  11.538  17.816  0.00  0.00    +0.000 C 
ATOM     15  C   UNL     1      11.819  11.305  18.577  0.00  0.00    +0.000 C 
ATOM     16  C   UNL     1      11.967  12.067  19.895  0.00  0.00    +0.000 C 
ATOM     17  C   UNL     1      10.705  12.064  20.746  0.00  0.00    +0.000 C 
ENDBRANCH   8  12
BRANCH   1  18
ATOM     18  C   UNL     1       3.870  15.936  19.321  0.00  0.00    +0.000 C 
BRANCH  18  24
ATOM     19  C   UNL     1       2.017  17.811  21.322  0.00  0.00    +0.000 C 
ATOM     20  C   UNL     1       2.096  17.805  19.848  0.00  0.00    +0.000 A 
ATOM     21  N   UNL     1       1.319  18.607  19.115  0.00  0.00    +0.000 NA
ATOM     22  O   UNL     1       1.649  18.321  17.795  0.00  0.00    +0.000 OA
ATOM     23  N   UNL     1       2.632  17.341  17.725  0.00  0.00    +0.000 NA
ATOM     24  C   UNL     1       2.901  17.024  18.997  0.00  0.00    +0.000 A 
ENDBRANCH  18  24
ENDBRANCH   1  18
TORSDOF 3
ENDMDL
