MODEL 1
REMARK VINA RESULT:      -7.7      0.000      0.000
REMARK  Name = 
REMARK  6 active torsions:
REMARK  status: ('A' for Active; 'I' for Inactive)
REMARK    1  A    between atoms: C_1  and  N_2
REMARK    2  A    between atoms: N_2  and  C_3
REMARK    3  A    between atoms: N_2  and  C_4
REMARK    4  A    between atoms: C_4  and  C_5
REMARK    5  A    between atoms: C_10  and  C_11
REMARK    6  A    between atoms: N_14  and  C_15
REMARK                            x       y       z     vdW  Elec       q    Type
REMARK                         _______ _______ _______ _____ _____    ______ ____
ROOT
ATOM      1  C   UNL     1       1.767   8.363  19.462  0.00  0.00    +0.000 A 
ATOM      2  N   UNL     1       1.520   9.491  18.791  0.00  0.00    +0.000 NA
ATOM      3  C   UNL     1       0.868  10.474  19.433  0.00  0.00    +0.000 A 
ATOM      4  N   UNL     1       1.426  11.703  19.091  0.00  0.00    +0.000 N 
ATOM      5  C   UNL     1       0.249  10.252  20.669  0.00  0.00    +0.000 A 
ATOM      6  C   UNL     1      -0.799  11.017  21.256  0.00  0.00    +0.000 A 
ATOM      7  C   UNL     1      -1.153  10.833  22.588  0.00  0.00    +0.000 A 
ATOM      8  C   UNL     1      -0.421   9.939  23.355  0.00  0.00    +0.000 A 
ATOM      9  C   UNL     1       0.533   9.120  22.739  0.00  0.00    +0.000 A 
ATOM     10  C   UNL     1       0.791   9.182  21.374  0.00  0.00    +0.000 A 
ATOM     11  N   UNL     1       1.555   8.250  20.788  0.00  0.00    +0.000 NA
ATOM     12  H   UNL     1       2.403  11.568  19.359  0.00  0.00    +0.000 HD
ENDROOT
BRANCH   4  13
ATOM     13  C   UNL     1       0.969  13.031  19.481  0.00  0.00    +0.000 C 
ATOM     14  C   UNL     1       1.274  14.000  18.341  0.00  0.00    +0.000 C 
ATOM     15  C   UNL     1       2.786  14.171  18.169  0.00  0.00    +0.000 C 
ATOM     16  N   UNL     1       3.411  14.677  19.397  0.00  0.00    +0.000 NA
ATOM     17  C   UNL     1       3.192  13.751  20.505  0.00  0.00    +0.000 C 
ATOM     18  C   UNL     1       1.709  13.483  20.756  0.00  0.00    +0.000 C 
ATOM     19  H   UNL     1       3.015  15.588  19.628  0.00  0.00    +0.000 HD
ENDBRANCH   4  13
BRANCH   1  25
ATOM     20  C   UNL     1       2.580   5.931  19.133  0.00  0.00    +0.000 A 
ATOM     21  C   UNL     1       3.393   5.052  18.379  0.00  0.00    +0.000 A 
ATOM     22  C   UNL     1       4.180   5.498  17.323  0.00  0.00    +0.000 A 
ATOM     23  C   UNL     1       4.178   6.839  16.977  0.00  0.00    +0.000 A 
ATOM     24  C   UNL     1       3.385   7.728  17.705  0.00  0.00    +0.000 A 
ATOM     25  C   UNL     1       2.573   7.317  18.791  0.00  0.00    +0.000 A 
BRANCH  20  26
ATOM     26  C   UNL     1       1.740   5.305  20.238  0.00  0.00    +0.000 C 
BRANCH  26  28
ATOM     27  C   UNL     1       0.753   3.108  19.735  0.00  0.00    +0.000 C 
ATOM     28  N   UNL     1       1.806   3.849  20.401  0.00  0.00    +0.000 NA
ATOM     29  C   UNL     1       2.151   3.353  21.720  0.00  0.00    +0.000 C 
ENDBRANCH  26  28
ENDBRANCH  20  26
ENDBRANCH   1  25
TORSDOF 4
ENDMDL
MODEL 2
REMARK VINA RESULT:      -7.5      2.474      7.087
REMARK  Name = 
REMARK  6 active torsions:
REMARK  status: ('A' for Active; 'I' for Inactive)
REMARK    1  A    between atoms: C_1  and  N_2
REMARK    2  A    between atoms: N_2  and  C_3
REMARK    3  A    between atoms: N_2  and  C_4
REMARK    4  A    between atoms: C_4  and  C_5
REMARK    5  A    between atoms: C_10  and  C_11
REMARK    6  A    between atoms: N_14  and  C_15
REMARK                            x       y       z     vdW  Elec       q    Type
REMARK                         _______ _______ _______ _____ _____    ______ ____
ROOT
ATOM      1  C   UNL     1       2.141   7.393  19.390  0.00  0.00    +0.000 A 
ATOM      2  N   UNL     1       3.318   7.148  18.809  0.00  0.00    +0.000 NA
ATOM      3  C   UNL     1       3.790   5.892  18.852  0.00  0.00    +0.000 A 
ATOM      4  N   UNL     1       4.377   5.573  17.629  0.00  0.00    +0.000 N 
ATOM      5  C   UNL     1       3.209   4.921  19.677  0.00  0.00    +0.000 A 
ATOM      6  C   UNL     1       3.812   3.723  20.153  0.00  0.00    +0.000 A 
ATOM      7  C   UNL     1       3.046   2.734  20.762  0.00  0.00    +0.000 A 
ATOM      8  C   UNL     1       1.672   2.908  20.837  0.00  0.00    +0.000 A 
ATOM      9  C   UNL     1       1.109   4.135  20.463  0.00  0.00    +0.000 A 
ATOM     10  C   UNL     1       1.881   5.191  19.996  0.00  0.00    +0.000 A 
ATOM     11  N   UNL     1       1.340   6.408  19.843  0.00  0.00    +0.000 NA
ATOM     12  H   UNL     1       3.604   5.736  16.981  0.00  0.00    +0.000 HD
ENDROOT
BRANCH   4  13
ATOM     13  C   UNL     1       5.093   4.355  17.273  0.00  0.00    +0.000 C 
ATOM     14  C   UNL     1       6.534   4.482  17.762  0.00  0.00    +0.000 C 
ATOM     15  C   UNL     1       7.270   5.578  16.988  0.00  0.00    +0.000 C 
ATOM     16  N   UNL     1       7.286   5.298  15.547  0.00  0.00    +0.000 NA
ATOM     17  C   UNL     1       5.925   5.224  15.023  0.00  0.00    +0.000 C 
ATOM     18  C   UNL     1       5.081   4.172  15.742  0.00  0.00    +0.000 C 
ATOM     19  H   UNL     1       7.768   4.415  15.379  0.00  0.00    +0.000 HD
ENDBRANCH   4  13
BRANCH   1  25
ATOM     20  C   UNL     1       0.559   9.312  20.098  0.00  0.00    +0.000 A 
ATOM     21  C   UNL     1       0.133  10.639  19.853  0.00  0.00    +0.000 A 
ATOM     22  C   UNL     1       0.667  11.407  18.822  0.00  0.00    +0.000 A 
ATOM     23  C   UNL     1       1.651  10.878  18.004  0.00  0.00    +0.000 A 
ATOM     24  C   UNL     1       2.089   9.572  18.224  0.00  0.00    +0.000 A 
ATOM     25  C   UNL     1       1.570   8.754  19.258  0.00  0.00    +0.000 A 
BRANCH  20  26
ATOM     26  C   UNL     1      -0.080   8.597  21.281  0.00  0.00    +0.000 C 
BRANCH  26  28
ATOM     27  C   UNL     1      -0.656  10.026  23.199  0.00  0.00    +0.000 C 
ATOM     28  N   UNL     1       0.267   9.065  22.626  0.00  0.00    +0.000 NA
ATOM     29  C   UNL     1       1.667   9.349  22.880  0.00  0.00    +0.000 C 
ENDBRANCH  26  28
ENDBRANCH  20  26
ENDBRANCH   1  25
TORSDOF 4
ENDMDL
MODEL 3
REMARK VINA RESULT:      -7.4      4.608      8.067
REMARK  Name = 
REMARK  6 active torsions:
REMARK  status: ('A' for Active; 'I' for Inactive)
REMARK    1  A    between atoms: C_1  and  N_2
REMARK    2  A    between atoms: N_2  and  C_3
REMARK    3  A    between atoms: N_2  and  C_4
REMARK    4  A    between atoms: C_4  and  C_5
REMARK    5  A    between atoms: C_10  and  C_11
REMARK    6  A    between atoms: N_14  and  C_15
REMARK                            x       y       z     vdW  Elec       q    Type
REMARK                         _______ _______ _______ _____ _____    ______ ____
ROOT
ATOM      1  C   UNL     1      -0.026  14.417  19.315  0.00  0.00    +0.000 A 
ATOM      2  N   UNL     1      -0.457  13.585  18.364  0.00  0.00    +0.000 NA
ATOM      3  C   UNL     1      -0.867  12.362  18.739  0.00  0.00    +0.000 A 
ATOM      4  N   UNL     1      -1.999  12.007  18.008  0.00  0.00    +0.000 N 
ATOM      5  C   UNL     1      -0.628  11.876  20.030  0.00  0.00    +0.000 A 
ATOM      6  C   UNL     1      -0.606  10.515  20.447  0.00  0.00    +0.000 A 
ATOM      7  C   UNL     1      -0.598  10.185  21.798  0.00  0.00    +0.000 A 
ATOM      8  C   UNL     1      -0.680  11.206  22.733  0.00  0.00    +0.000 A 
ATOM      9  C   UNL     1      -0.593  12.538  22.312  0.00  0.00    +0.000 A 
ATOM     10  C   UNL     1      -0.445  12.882  20.973  0.00  0.00    +0.000 A 
ATOM     11  N   UNL     1      -0.160  14.146  20.628  0.00  0.00    +0.000 NA
ATOM     12  H   UNL     1      -2.635  12.775  18.227  0.00  0.00    +0.000 HD
ENDROOT
BRANCH   4  13
ATOM     13  C   UNL     1      -2.710  10.735  18.026  0.00  0.00    +0.000 C 
ATOM     14  C   UNL     1      -2.321   9.947  16.777  0.00  0.00    +0.000 C 
ATOM     15  C   UNL     1      -2.845  10.640  15.518  0.00  0.00    +0.000 C 
ATOM     16  N   UNL     1      -4.307  10.778  15.550  0.00  0.00    +0.000 NA
ATOM     17  C   UNL     1      -4.722  11.575  16.700  0.00  0.00    +0.000 C 
ATOM     18  C   UNL     1      -4.231  10.989  18.024  0.00  0.00    +0.000 C 
ATOM     19  H   UNL     1      -4.733   9.852  15.601  0.00  0.00    +0.000 HD
ENDBRANCH   4  13
BRANCH   1  25
ATOM     20  C   UNL     1       1.656  16.333  18.883  0.00  0.00    +0.000 A 
ATOM     21  C   UNL     1       1.834  17.672  18.461  0.00  0.00    +0.000 A 
ATOM     22  C   UNL     1       0.763  18.476  18.085  0.00  0.00    +0.000 A 
ATOM     23  C   UNL     1      -0.525  17.968  18.111  0.00  0.00    +0.000 A 
ATOM     24  C   UNL     1      -0.729  16.651  18.524  0.00  0.00    +0.000 A 
ATOM     25  C   UNL     1       0.333  15.799  18.919  0.00  0.00    +0.000 A 
BRANCH  20  26
ATOM     26  C   UNL     1       2.917  15.553  19.230  0.00  0.00    +0.000 C 
BRANCH  26  28
ATOM     27  C   UNL     1       3.143  13.343  18.174  0.00  0.00    +0.000 C 
ATOM     28  N   UNL     1       3.527  14.741  18.173  0.00  0.00    +0.000 NA
ATOM     29  C   UNL     1       4.929  14.981  17.889  0.00  0.00    +0.000 C 
ENDBRANCH  26  28
ENDBRANCH  20  26
ENDBRANCH   1  25
TORSDOF 4
ENDMDL
MODEL 4
REMARK VINA RESULT:      -7.4      4.748      7.727
REMARK  Name = 
REMARK  6 active torsions:
REMARK  status: ('A' for Active; 'I' for Inactive)
REMARK    1  A    between atoms: C_1  and  N_2
REMARK    2  A    between atoms: N_2  and  C_3
REMARK    3  A    between atoms: N_2  and  C_4
REMARK    4  A    between atoms: C_4  and  C_5
REMARK    5  A    between atoms: C_10  and  C_11
REMARK    6  A    between atoms: N_14  and  C_15
REMARK                            x       y       z     vdW  Elec       q    Type
REMARK                         _______ _______ _______ _____ _____    ______ ____
ROOT
ATOM      1  C   UNL     1      -1.472  11.977  22.882  0.00  0.00    +0.000 A 
ATOM      2  N   UNL     1      -2.736  11.736  23.239  0.00  0.00    +0.000 NA
ATOM      3  C   UNL     1      -3.426  12.733  23.815  0.00  0.00    +0.000 A 
ATOM      4  N   UNL     1      -4.733  12.733  23.331  0.00  0.00    +0.000 N 
ATOM      5  C   UNL     1      -2.792  13.901  24.255  0.00  0.00    +0.000 A 
ATOM      6  C   UNL     1      -3.270  14.826  25.226  0.00  0.00    +0.000 A 
ATOM      7  C   UNL     1      -2.657  16.064  25.390  0.00  0.00    +0.000 A 
ATOM      8  C   UNL     1      -1.614  16.409  24.544  0.00  0.00    +0.000 A 
ATOM      9  C   UNL     1      -1.088  15.450  23.668  0.00  0.00    +0.000 A 
ATOM     10  C   UNL     1      -1.590  14.156  23.601  0.00  0.00    +0.000 A 
ATOM     11  N   UNL     1      -0.937  13.213  22.908  0.00  0.00    +0.000 NA
ATOM     12  H   UNL     1      -4.580  12.821  22.324  0.00  0.00    +0.000 HD
ENDROOT
BRANCH   4  13
ATOM     13  C   UNL     1      -5.842  13.579  23.754  0.00  0.00    +0.000 C 
ATOM     14  C   UNL     1      -7.085  12.706  23.902  0.00  0.00    +0.000 C 
ATOM     15  C   UNL     1      -7.534  12.172  22.540  0.00  0.00    +0.000 C 
ATOM     16  N   UNL     1      -7.836  13.266  21.609  0.00  0.00    +0.000 NA
ATOM     17  C   UNL     1      -6.655  14.097  21.392  0.00  0.00    +0.000 C 
ATOM     18  C   UNL     1      -6.098  14.670  22.695  0.00  0.00    +0.000 C 
ATOM     19  H   UNL     1      -8.592  13.835  21.988  0.00  0.00    +0.000 HD
ENDBRANCH   4  13
BRANCH   1  25
ATOM     20  C   UNL     1      -0.563  10.846  20.741  0.00  0.00    +0.000 A 
ATOM     21  C   UNL     1       0.184   9.772  20.202  0.00  0.00    +0.000 A 
ATOM     22  C   UNL     1       0.745   8.786  21.008  0.00  0.00    +0.000 A 
ATOM     23  C   UNL     1       0.585   8.842  22.382  0.00  0.00    +0.000 A 
ATOM     24  C   UNL     1      -0.147   9.891  22.940  0.00  0.00    +0.000 A 
ATOM     25  C   UNL     1      -0.739  10.913  22.157  0.00  0.00    +0.000 A 
BRANCH  20  26
ATOM     26  C   UNL     1      -1.089  11.876  19.751  0.00  0.00    +0.000 C 
BRANCH  26  28
ATOM     27  C   UNL     1      -2.528  11.522  17.788  0.00  0.00    +0.000 C 
ATOM     28  N   UNL     1      -2.444  11.685  19.226  0.00  0.00    +0.000 NA
ATOM     29  C   UNL     1      -3.491  12.507  19.801  0.00  0.00    +0.000 C 
ENDBRANCH  26  28
ENDBRANCH  20  26
ENDBRANCH   1  25
TORSDOF 4
ENDMDL
MODEL 5
REMARK VINA RESULT:      -7.2      4.626      8.137
REMARK  Name = 
REMARK  6 active torsions:
REMARK  status: ('A' for Active; 'I' for Inactive)
REMARK    1  A    between atoms: C_1  and  N_2
REMARK    2  A    between atoms: N_2  and  C_3
REMARK    3  A    between atoms: N_2  and  C_4
REMARK    4  A    between atoms: C_4  and  C_5
REMARK    5  A    between atoms: C_10  and  C_11
REMARK    6  A    between atoms: N_14  and  C_15
REMARK                            x       y       z     vdW  Elec       q    Type
REMARK                         _______ _______ _______ _____ _____    ______ ____
ROOT
ATOM      1  C   UNL     1       0.069  14.466  19.121  0.00  0.00    +0.000 A 
ATOM      2  N   UNL     1      -0.235  13.546  18.203  0.00  0.00    +0.000 NA
ATOM      3  C   UNL     1      -0.651  12.343  18.633  0.00  0.00    +0.000 A 
ATOM      4  N   UNL     1      -1.688  11.892  17.819  0.00  0.00    +0.000 N 
ATOM      5  C   UNL     1      -0.540  11.970  19.977  0.00  0.00    +0.000 A 
ATOM      6  C   UNL     1      -0.528  10.648  20.506  0.00  0.00    +0.000 A 
ATOM      7  C   UNL     1      -0.657  10.428  21.873  0.00  0.00    +0.000 A 
ATOM      8  C   UNL     1      -0.866  11.516  22.706  0.00  0.00    +0.000 A 
ATOM      9  C   UNL     1      -0.769  12.813  22.187  0.00  0.00    +0.000 A 
ATOM     10  C   UNL     1      -0.486  13.055  20.848  0.00  0.00    +0.000 A 
ATOM     11  N   UNL     1      -0.199  14.296  20.431  0.00  0.00    +0.000 NA
ATOM     12  H   UNL     1      -2.364  12.653  17.905  0.00  0.00    +0.000 HD
ENDROOT
BRANCH   4  13
ATOM     13  C   UNL     1      -2.364  10.601  17.867  0.00  0.00    +0.000 C 
ATOM     14  C   UNL     1      -2.113   9.876  16.547  0.00  0.00    +0.000 C 
ATOM     15  C   UNL     1      -2.803  10.606  15.392  0.00  0.00    +0.000 C 
ATOM     16  N   UNL     1      -4.252  10.702  15.608  0.00  0.00    +0.000 NA
ATOM     17  C   UNL     1      -4.541  11.440  16.834  0.00  0.00    +0.000 C 
ATOM     18  C   UNL     1      -3.878  10.814  18.061  0.00  0.00    +0.000 C 
ATOM     19  H   UNL     1      -4.648   9.764  15.670  0.00  0.00    +0.000 HD
ENDBRANCH   4  13
BRANCH   1  25
ATOM     20  C   UNL     1       1.762  16.320  18.502  0.00  0.00    +0.000 A 
ATOM     21  C   UNL     1       1.942  17.638  18.022  0.00  0.00    +0.000 A 
ATOM     22  C   UNL     1       0.866  18.458  17.696  0.00  0.00    +0.000 A 
ATOM     23  C   UNL     1      -0.429  17.986  17.832  0.00  0.00    +0.000 A 
ATOM     24  C   UNL     1      -0.634  16.690  18.305  0.00  0.00    +0.000 A 
ATOM     25  C   UNL     1       0.432  15.824  18.652  0.00  0.00    +0.000 A 
BRANCH  20  26
ATOM     26  C   UNL     1       3.025  15.518  18.785  0.00  0.00    +0.000 C 
BRANCH  26  28
ATOM     27  C   UNL     1       3.333  14.049  20.735  0.00  0.00    +0.000 C 
ATOM     28  N   UNL     1       3.448  15.385  20.183  0.00  0.00    +0.000 NA
ATOM     29  C   UNL     1       3.056  16.447  21.089  0.00  0.00    +0.000 C 
ENDBRANCH  26  28
ENDBRANCH  20  26
ENDBRANCH   1  25
TORSDOF 4
ENDMDL
MODEL 6
REMARK VINA RESULT:      -7.0      4.657      7.855
REMARK  Name = 
REMARK  6 active torsions:
REMARK  status: ('A' for Active; 'I' for Inactive)
REMARK    1  A    between atoms: C_1  and  N_2
REMARK    2  A    between atoms: N_2  and  C_3
REMARK    3  A    between atoms: N_2  and  C_4
REMARK    4  A    between atoms: C_4  and  C_5
REMARK    5  A    between atoms: C_10  and  C_11
REMARK    6  A    between atoms: N_14  and  C_15
REMARK                            x       y       z     vdW  Elec       q    Type
REMARK                         _______ _______ _______ _____ _____    ______ ____
ROOT
ATOM      1  C   UNL     1      -1.519  11.984  22.929  0.00  0.00    +0.000 A 
ATOM      2  N   UNL     1      -2.789  11.751  23.268  0.00  0.00    +0.000 NA
ATOM      3  C   UNL     1      -3.483  12.754  23.830  0.00  0.00    +0.000 A 
ATOM      4  N   UNL     1      -4.782  12.759  23.327  0.00  0.00    +0.000 N 
ATOM      5  C   UNL     1      -2.849  13.920  24.275  0.00  0.00    +0.000 A 
ATOM      6  C   UNL     1      -3.336  14.851  25.236  0.00  0.00    +0.000 A 
ATOM      7  C   UNL     1      -2.719  16.086  25.405  0.00  0.00    +0.000 A 
ATOM      8  C   UNL     1      -1.662  16.422  24.573  0.00  0.00    +0.000 A 
ATOM      9  C   UNL     1      -1.128  15.458  23.708  0.00  0.00    +0.000 A 
ATOM     10  C   UNL     1      -1.636  14.166  23.638  0.00  0.00    +0.000 A 
ATOM     11  N   UNL     1      -0.978  13.217  22.958  0.00  0.00    +0.000 NA
ATOM     12  H   UNL     1      -4.615  12.843  22.323  0.00  0.00    +0.000 HD
ENDROOT
BRANCH   4  13
ATOM     13  C   UNL     1      -5.893  13.613  23.731  0.00  0.00    +0.000 C 
ATOM     14  C   UNL     1      -7.133  12.739  23.908  0.00  0.00    +0.000 C 
ATOM     15  C   UNL     1      -7.584  12.167  22.563  0.00  0.00    +0.000 C 
ATOM     16  N   UNL     1      -7.893  13.234  21.603  0.00  0.00    +0.000 NA
ATOM     17  C   UNL     1      -6.716  14.062  21.359  0.00  0.00    +0.000 C 
ATOM     18  C   UNL     1      -6.157  14.673  22.644  0.00  0.00    +0.000 C 
ATOM     19  H   UNL     1      -8.650  13.811  21.969  0.00  0.00    +0.000 HD
ENDBRANCH   4  13
BRANCH   1  25
ATOM     20  C   UNL     1      -0.542  10.866  20.812  0.00  0.00    +0.000 A 
ATOM     21  C   UNL     1       0.200   9.782  20.287  0.00  0.00    +0.000 A 
ATOM     22  C   UNL     1       0.698   8.767  21.099  0.00  0.00    +0.000 A 
ATOM     23  C   UNL     1       0.477   8.805  22.466  0.00  0.00    +0.000 A 
ATOM     24  C   UNL     1      -0.252   9.862  23.009  0.00  0.00    +0.000 A 
ATOM     25  C   UNL     1      -0.781  10.913  22.218  0.00  0.00    +0.000 A 
BRANCH  20  26
ATOM     26  C   UNL     1      -0.996  11.927  19.818  0.00  0.00    +0.000 C 
BRANCH  26  28
ATOM     27  C   UNL     1      -0.758  14.369  19.645  0.00  0.00    +0.000 C 
ATOM     28  N   UNL     1      -0.110  13.074  19.596  0.00  0.00    +0.000 NA
ATOM     29  C   UNL     1       0.887  12.938  18.551  0.00  0.00    +0.000 C 
ENDBRANCH  26  28
ENDBRANCH  20  26
ENDBRANCH   1  25
TORSDOF 4
ENDMDL
MODEL 7
REMARK VINA RESULT:      -7.0      4.123      8.020
REMARK  Name = 
REMARK  6 active torsions:
REMARK  status: ('A' for Active; 'I' for Inactive)
REMARK    1  A    between atoms: C_1  and  N_2
REMARK    2  A    between atoms: N_2  and  C_3
REMARK    3  A    between atoms: N_2  and  C_4
REMARK    4  A    between atoms: C_4  and  C_5
REMARK    5  A    between atoms: C_10  and  C_11
REMARK    6  A    between atoms: N_14  and  C_15
REMARK                            x       y       z     vdW  Elec       q    Type
REMARK                         _______ _______ _______ _____ _____    ______ ____
ROOT
ATOM      1  C   UNL     1      -0.359  13.850  20.176  0.00  0.00    +0.000 A 
ATOM      2  N   UNL     1      -0.721  13.245  19.042  0.00  0.00    +0.000 NA
ATOM      3  C   UNL     1      -0.966  11.925  19.085  0.00  0.00    +0.000 A 
ATOM      4  N   UNL     1      -2.073  11.632  18.291  0.00  0.00    +0.000 N 
ATOM      5  C   UNL     1      -0.625  11.155  20.204  0.00  0.00    +0.000 A 
ATOM      6  C   UNL     1      -0.425   9.747  20.251  0.00  0.00    +0.000 A 
ATOM      7  C   UNL     1      -0.329   9.083  21.469  0.00  0.00    +0.000 A 
ATOM      8  C   UNL     1      -0.500   9.808  22.638  0.00  0.00    +0.000 A 
ATOM      9  C   UNL     1      -0.589  11.204  22.580  0.00  0.00    +0.000 A 
ATOM     10  C   UNL     1      -0.531  11.899  21.377  0.00  0.00    +0.000 A 
ATOM     11  N   UNL     1      -0.413  13.234  21.373  0.00  0.00    +0.000 NA
ATOM     12  H   UNL     1      -2.789  12.232  18.705  0.00  0.00    +0.000 HD
ENDROOT
BRANCH   4  13
ATOM     13  C   UNL     1      -2.625  10.320  17.978  0.00  0.00    +0.000 C 
ATOM     14  C   UNL     1      -2.169   9.927  16.575  0.00  0.00    +0.000 C 
ATOM     15  C   UNL     1      -2.799  10.847  15.527  0.00  0.00    +0.000 C 
ATOM     16  N   UNL     1      -4.266  10.792  15.578  0.00  0.00    +0.000 NA
ATOM     17  C   UNL     1      -4.750  11.216  16.888  0.00  0.00    +0.000 C 
ATOM     18  C   UNL     1      -4.165  10.379  18.025  0.00  0.00    +0.000 C 
ATOM     19  H   UNL     1      -4.576   9.840  15.388  0.00  0.00    +0.000 HD
ENDBRANCH   4  13
BRANCH   1  25
ATOM     20  C   UNL     1       1.053  16.005  19.952  0.00  0.00    +0.000 A 
ATOM     21  C   UNL     1       1.050  17.420  19.938  0.00  0.00    +0.000 A 
ATOM     22  C   UNL     1      -0.117  18.156  20.116  0.00  0.00    +0.000 A 
ATOM     23  C   UNL     1      -1.324  17.505  20.308  0.00  0.00    +0.000 A 
ATOM     24  C   UNL     1      -1.349  16.110  20.326  0.00  0.00    +0.000 A 
ATOM     25  C   UNL     1      -0.184  15.321  20.154  0.00  0.00    +0.000 A 
BRANCH  20  26
ATOM     26  C   UNL     1       2.392  15.323  19.707  0.00  0.00    +0.000 C 
BRANCH  26  28
ATOM     27  C   UNL     1       2.805  13.335  18.318  0.00  0.00    +0.000 C 
ATOM     28  N   UNL     1       2.641  14.774  18.370  0.00  0.00    +0.000 NA
ATOM     29  C   UNL     1       3.551  15.515  17.517  0.00  0.00    +0.000 C 
ENDBRANCH  26  28
ENDBRANCH  20  26
ENDBRANCH   1  25
TORSDOF 4
ENDMDL
MODEL 8
REMARK VINA RESULT:      -6.8      2.371      7.334
REMARK  Name = 
REMARK  6 active torsions:
REMARK  status: ('A' for Active; 'I' for Inactive)
REMARK    1  A    between atoms: C_1  and  N_2
REMARK    2  A    between atoms: N_2  and  C_3
REMARK    3  A    between atoms: N_2  and  C_4
REMARK    4  A    between atoms: C_4  and  C_5
REMARK    5  A    between atoms: C_10  and  C_11
REMARK    6  A    between atoms: N_14  and  C_15
REMARK                            x       y       z     vdW  Elec       q    Type
REMARK                         _______ _______ _______ _____ _____    ______ ____
ROOT
ATOM      1  C   UNL     1       1.988   6.578  20.214  0.00  0.00    +0.000 A 
ATOM      2  N   UNL     1       3.312   6.494  20.062  0.00  0.00    +0.000 NA
ATOM      3  C   UNL     1       3.822   5.332  19.624  0.00  0.00    +0.000 A 
ATOM      4  N   UNL     1       4.851   5.587  18.720  0.00  0.00    +0.000 N 
ATOM      5  C   UNL     1       3.042   4.171  19.559  0.00  0.00    +0.000 A 
ATOM      6  C   UNL     1       3.504   2.824  19.534  0.00  0.00    +0.000 A 
ATOM      7  C   UNL     1       2.637   1.782  19.225  0.00  0.00    +0.000 A 
ATOM      8  C   UNL     1       1.329   2.083  18.875  0.00  0.00    +0.000 A 
ATOM      9  C   UNL     1       0.864   3.398  19.008  0.00  0.00    +0.000 A 
ATOM     10  C   UNL     1       1.678   4.428  19.465  0.00  0.00    +0.000 A 
ATOM     11  N   UNL     1       1.149   5.620  19.774  0.00  0.00    +0.000 NA
ATOM     12  H   UNL     1       4.374   6.157  18.019  0.00  0.00    +0.000 HD
ENDROOT
BRANCH   4  13
ATOM     13  C   UNL     1       5.736   4.623  18.078  0.00  0.00    +0.000 C 
ATOM     14  C   UNL     1       7.174   5.113  18.229  0.00  0.00    +0.000 C 
ATOM     15  C   UNL     1       7.391   6.398  17.426  0.00  0.00    +0.000 C 
ATOM     16  N   UNL     1       7.111   6.192  15.999  0.00  0.00    +0.000 NA
ATOM     17  C   UNL     1       5.725   5.777  15.803  0.00  0.00    +0.000 C 
ATOM     18  C   UNL     1       5.382   4.507  16.582  0.00  0.00    +0.000 C 
ATOM     19  H   UNL     1       7.740   5.480  15.630  0.00  0.00    +0.000 HD
ENDBRANCH   4  13
BRANCH   1  25
ATOM     20  C   UNL     1       0.979   8.901  19.695  0.00  0.00    +0.000 A 
ATOM     21  C   UNL     1       0.432  10.093  20.225  0.00  0.00    +0.000 A 
ATOM     22  C   UNL     1       0.308  10.302  21.595  0.00  0.00    +0.000 A 
ATOM     23  C   UNL     1       0.721   9.324  22.484  0.00  0.00    +0.000 A 
ATOM     24  C   UNL     1       1.265   8.139  21.988  0.00  0.00    +0.000 A 
ATOM     25  C   UNL     1       1.413   7.887  20.601  0.00  0.00    +0.000 A 
BRANCH  20  26
ATOM     26  C   UNL     1       1.022   8.786  18.177  0.00  0.00    +0.000 C 
BRANCH  26  28
ATOM     27  C   UNL     1       3.324   8.480  17.364  0.00  0.00    +0.000 C 
ATOM     28  N   UNL     1       2.179   9.361  17.484  0.00  0.00    +0.000 NA
ATOM     29  C   UNL     1       2.509  10.739  17.794  0.00  0.00    +0.000 C 
ENDBRANCH  26  28
ENDBRANCH  20  26
ENDBRANCH   1  25
TORSDOF 4
ENDMDL
MODEL 9
REMARK VINA RESULT:      -6.8      4.132      8.065
REMARK  Name = 
REMARK  6 active torsions:
REMARK  status: ('A' for Active; 'I' for Inactive)
REMARK    1  A    between atoms: C_1  and  N_2
REMARK    2  A    between atoms: N_2  and  C_3
REMARK    3  A    between atoms: N_2  and  C_4
REMARK    4  A    between atoms: C_4  and  C_5
REMARK    5  A    between atoms: C_10  and  C_11
REMARK    6  A    between atoms: N_14  and  C_15
REMARK                            x       y       z     vdW  Elec       q    Type
REMARK                         _______ _______ _______ _____ _____    ______ ____
ROOT
ATOM      1  C   UNL     1       0.983  13.332  19.085  0.00  0.00    +0.000 A 
ATOM      2  N   UNL     1       0.453  12.541  18.149  0.00  0.00    +0.000 NA
ATOM      3  C   UNL     1      -0.218  11.451  18.555  0.00  0.00    +0.000 A 
ATOM      4  N   UNL     1      -1.350  11.279  17.761  0.00  0.00    +0.000 N 
ATOM      5  C   UNL     1      -0.164  11.013  19.883  0.00  0.00    +0.000 A 
ATOM      6  C   UNL     1      -0.443   9.705  20.370  0.00  0.00    +0.000 A 
ATOM      7  C   UNL     1      -0.586   9.469  21.733  0.00  0.00    +0.000 A 
ATOM      8  C   UNL     1      -0.519  10.545  22.606  0.00  0.00    +0.000 A 
ATOM      9  C   UNL     1      -0.139  11.804  22.124  0.00  0.00    +0.000 A 
ATOM     10  C   UNL     1       0.160  12.023  20.785  0.00  0.00    +0.000 A 
ATOM     11  N   UNL     1       0.714  13.180  20.396  0.00  0.00    +0.000 NA
ATOM     12  H   UNL     1      -1.831  12.171  17.892  0.00  0.00    +0.000 HD
ENDROOT
BRANCH   4  13
ATOM     13  C   UNL     1      -2.303  10.177  17.791  0.00  0.00    +0.000 C 
ATOM     14  C   UNL     1      -2.325   9.520  16.413  0.00  0.00    +0.000 C 
ATOM     15  C   UNL     1      -2.906  10.476  15.370  0.00  0.00    +0.000 C 
ATOM     16  N   UNL     1      -4.274  10.883  15.719  0.00  0.00    +0.000 NA
ATOM     17  C   UNL     1      -4.293  11.568  17.007  0.00  0.00    +0.000 C 
ATOM     18  C   UNL     1      -3.708  10.713  18.131  0.00  0.00    +0.000 C 
ATOM     19  H   UNL     1      -4.872  10.058  15.759  0.00  0.00    +0.000 HD
ENDBRANCH   4  13
BRANCH   1  25
ATOM     20  C   UNL     1       1.025  15.878  18.631  0.00  0.00    +0.000 A 
ATOM     21  C   UNL     1       1.794  16.985  18.202  0.00  0.00    +0.000 A 
ATOM     22  C   UNL     1       3.117  16.852  17.795  0.00  0.00    +0.000 A 
ATOM     23  C   UNL     1       3.723  15.606  17.809  0.00  0.00    +0.000 A 
ATOM     24  C   UNL     1       2.988  14.497  18.228  0.00  0.00    +0.000 A 
ATOM     25  C   UNL     1       1.637  14.588  18.646  0.00  0.00    +0.000 A 
BRANCH  20  26
ATOM     26  C   UNL     1      -0.398  16.169  19.086  0.00  0.00    +0.000 C 
BRANCH  26  28
ATOM     27  C   UNL     1      -0.834  17.883  20.797  0.00  0.00    +0.000 C 
ATOM     28  N   UNL     1      -0.745  17.562  19.386  0.00  0.00    +0.000 NA
ATOM     29  C   UNL     1      -1.771  18.173  18.563  0.00  0.00    +0.000 C 
ENDBRANCH  26  28
ENDBRANCH  20  26
ENDBRANCH   1  25
TORSDOF 4
ENDMDL
