MODEL 1
REMARK VINA RESULT:      -7.1      0.000      0.000
REMARK  Name = 
REMARK  3 active torsions:
REMARK  status: ('A' for Active; 'I' for Inactive)
REMARK    1  A    between atoms: C_1  and  C_2
REMARK    2  A    between atoms: C_2  and  N_4
REMARK    3  A    between atoms: C_17  and  C_18
REMARK                            x       y       z     vdW  Elec       q    Type
REMARK                         _______ _______ _______ _____ _____    ______ ____
ROOT
ATOM      1  N   UNL     1       3.470   3.267  19.753  0.00  0.00    +0.000 NA
ATOM      2  C   UNL     1       4.131   4.343  19.547  0.00  0.00    +0.000 C 
ATOM      3  O   UNL     1       5.438   4.400  19.186  0.00  0.00    +0.000 OA
ATOM      4  C   UNL     1       5.816   5.765  18.917  0.00  0.00    +0.000 C 
ATOM      5  C   UNL     1       4.478   6.509  18.867  0.00  0.00    +0.000 C 
ATOM      6  C   UNL     1       4.040   6.715  17.407  0.00  0.00    +0.000 C 
ATOM      7  S   UNL     1       5.166   5.783  16.400  0.00  0.00    +0.000 S 
ATOM      8  O   UNL     1       4.642   4.431  16.328  0.00  0.00    +0.000 OA
ATOM      9  O   UNL     1       5.445   6.541  15.200  0.00  0.00    +0.000 OA
ATOM     10  C   UNL     1       6.526   5.878  17.567  0.00  0.00    +0.000 C 
ATOM     11 BR   UNL     1       7.858   4.466  17.320  0.00  0.00    +0.000 Br
ATOM     12 BR   UNL     1       7.428   7.641  17.502  0.00  0.00    +0.000 Br
ATOM     13  N   UNL     1       3.591   5.618  19.587  0.00  0.00    +0.000 N 
ATOM     14  C   UNL     1       2.343   6.055  20.014  0.00  0.00    +0.000 C 
ATOM     15  C   UNL     1       1.450   5.115  20.788  0.00  0.00    +0.000 C 
ATOM     16  O   UNL     1       1.960   7.202  19.761  0.00  0.00    +0.000 OA
ENDROOT
BRANCH   1  18
ATOM     17  C   UNL     1       3.651   1.309  18.399  0.00  0.00    +0.000 C 
ATOM     18  C   UNL     1       4.121   2.068  19.610  0.00  0.00    +0.000 C 
ATOM     19  O   UNL     1       4.935   1.596  20.395  0.00  0.00    +0.000 OA
ENDBRANCH   1  18
TORSDOF 1
ENDMDL
MODEL 2
REMARK VINA RESULT:      -6.9      3.101      5.093
REMARK  Name = 
REMARK  3 active torsions:
REMARK  status: ('A' for Active; 'I' for Inactive)
REMARK    1  A    between atoms: C_1  and  C_2
REMARK    2  A    between atoms: C_2  and  N_4
REMARK    3  A    between atoms: C_17  and  C_18
REMARK                            x       y       z     vdW  Elec       q    Type
REMARK                         _______ _______ _______ _____ _____    ______ ____
ROOT
ATOM      1  N   UNL     1       6.065   5.907  16.569  0.00  0.00    +0.000 NA
ATOM      2  C   UNL     1       5.335   5.727  17.603  0.00  0.00    +0.000 C 
ATOM      3  O   UNL     1       3.981   5.629  17.597  0.00  0.00    +0.000 OA
ATOM      4  C   UNL     1       3.503   5.302  18.917  0.00  0.00    +0.000 C 
ATOM      5  C   UNL     1       4.775   4.911  19.677  0.00  0.00    +0.000 C 
ATOM      6  C   UNL     1       4.911   3.380  19.731  0.00  0.00    +0.000 C 
ATOM      7  S   UNL     1       3.648   2.718  18.675  0.00  0.00    +0.000 S 
ATOM      8  O   UNL     1       4.201   2.682  17.334  0.00  0.00    +0.000 OA
ATOM      9  O   UNL     1       3.110   1.526  19.293  0.00  0.00    +0.000 OA
ATOM     10  C   UNL     1       2.540   4.115  18.869  0.00  0.00    +0.000 C 
ATOM     11 BR   UNL     1       1.243   4.283  17.414  0.00  0.00    +0.000 Br
ATOM     12 BR   UNL     1       1.572   4.051  20.598  0.00  0.00    +0.000 Br
ATOM     13  N   UNL     1       5.821   5.529  18.886  0.00  0.00    +0.000 N 
ATOM     14  C   UNL     1       7.110   5.652  19.390  0.00  0.00    +0.000 C 
ATOM     15  C   UNL     1       8.173   6.326  18.555  0.00  0.00    +0.000 C 
ATOM     16  O   UNL     1       7.390   5.213  20.509  0.00  0.00    +0.000 OA
ENDROOT
BRANCH   1  18
ATOM     17  C   UNL     1       5.483   4.730  14.575  0.00  0.00    +0.000 C 
ATOM     18  C   UNL     1       5.448   6.019  15.349  0.00  0.00    +0.000 C 
ATOM     19  O   UNL     1       4.981   7.048  14.873  0.00  0.00    +0.000 OA
ENDBRANCH   1  18
TORSDOF 1
ENDMDL
MODEL 3
REMARK VINA RESULT:      -6.3      2.117      4.061
REMARK  Name = 
REMARK  3 active torsions:
REMARK  status: ('A' for Active; 'I' for Inactive)
REMARK    1  A    between atoms: C_1  and  C_2
REMARK    2  A    between atoms: C_2  and  N_4
REMARK    3  A    between atoms: C_17  and  C_18
REMARK                            x       y       z     vdW  Elec       q    Type
REMARK                         _______ _______ _______ _____ _____    ______ ____
ROOT
ATOM      1  N   UNL     1       1.939   5.983  19.961  0.00  0.00    +0.000 NA
ATOM      2  C   UNL     1       2.522   5.328  19.030  0.00  0.00    +0.000 C 
ATOM      3  O   UNL     1       3.202   5.880  17.992  0.00  0.00    +0.000 OA
ATOM      4  C   UNL     1       3.833   4.847  17.209  0.00  0.00    +0.000 C 
ATOM      5  C   UNL     1       3.700   3.596  18.084  0.00  0.00    +0.000 C 
ATOM      6  C   UNL     1       5.014   3.336  18.839  0.00  0.00    +0.000 C 
ATOM      7  S   UNL     1       6.055   4.745  18.554  0.00  0.00    +0.000 S 
ATOM      8  O   UNL     1       5.713   5.729  19.564  0.00  0.00    +0.000 OA
ATOM      9  O   UNL     1       7.416   4.285  18.390  0.00  0.00    +0.000 OA
ATOM     10  C   UNL     1       5.310   5.166  16.977  0.00  0.00    +0.000 C 
ATOM     11 BR   UNL     1       5.584   7.034  16.465  0.00  0.00    +0.000 Br
ATOM     12 BR   UNL     1       5.961   3.992  15.520  0.00  0.00    +0.000 Br
ATOM     13  N   UNL     1       2.612   3.946  18.977  0.00  0.00    +0.000 N 
ATOM     14  C   UNL     1       1.988   2.972  19.746  0.00  0.00    +0.000 C 
ATOM     15  C   UNL     1       0.838   3.359  20.645  0.00  0.00    +0.000 C 
ATOM     16  O   UNL     1       2.368   1.798  19.701  0.00  0.00    +0.000 OA
ENDROOT
BRANCH   1  18
ATOM     17  C   UNL     1       1.355   7.980  21.131  0.00  0.00    +0.000 C 
ATOM     18  C   UNL     1       1.989   7.353  19.920  0.00  0.00    +0.000 C 
ATOM     19  O   UNL     1       2.417   8.028  18.991  0.00  0.00    +0.000 OA
ENDBRANCH   1  18
TORSDOF 1
ENDMDL
MODEL 4
REMARK VINA RESULT:      -6.0      3.088      5.284
REMARK  Name = 
REMARK  3 active torsions:
REMARK  status: ('A' for Active; 'I' for Inactive)
REMARK    1  A    between atoms: C_1  and  C_2
REMARK    2  A    between atoms: C_2  and  N_4
REMARK    3  A    between atoms: C_17  and  C_18
REMARK                            x       y       z     vdW  Elec       q    Type
REMARK                         _______ _______ _______ _____ _____    ______ ____
ROOT
ATOM      1  N   UNL     1       3.231   7.332  17.618  0.00  0.00    +0.000 NA
ATOM      2  C   UNL     1       3.769   6.256  18.054  0.00  0.00    +0.000 C 
ATOM      3  O   UNL     1       3.565   5.723  19.286  0.00  0.00    +0.000 OA
ATOM      4  C   UNL     1       4.228   4.448  19.388  0.00  0.00    +0.000 C 
ATOM      5  C   UNL     1       4.618   4.125  17.942  0.00  0.00    +0.000 C 
ATOM      6  C   UNL     1       3.602   3.149  17.325  0.00  0.00    +0.000 C 
ATOM      7  S   UNL     1       2.268   2.999  18.486  0.00  0.00    +0.000 S 
ATOM      8  O   UNL     1       1.344   4.082  18.203  0.00  0.00    +0.000 OA
ATOM      9  O   UNL     1       1.824   1.623  18.500  0.00  0.00    +0.000 OA
ATOM     10  C   UNL     1       3.274   3.379  19.922  0.00  0.00    +0.000 C 
ATOM     11 BR   UNL     1       2.233   4.023  21.448  0.00  0.00    +0.000 Br
ATOM     12 BR   UNL     1       4.363   1.823  20.489  0.00  0.00    +0.000 Br
ATOM     13  N   UNL     1       4.588   5.426  17.305  0.00  0.00    +0.000 N 
ATOM     14  C   UNL     1       5.156   5.614  16.051  0.00  0.00    +0.000 C 
ATOM     15  C   UNL     1       5.137   6.987  15.424  0.00  0.00    +0.000 C 
ATOM     16  O   UNL     1       5.672   4.667  15.449  0.00  0.00    +0.000 OA
ENDROOT
BRANCH   1  18
ATOM     17  C   UNL     1       1.841   9.264  17.806  0.00  0.00    +0.000 C 
ATOM     18  C   UNL     1       2.383   8.017  18.450  0.00  0.00    +0.000 C 
ATOM     19  O   UNL     1       2.133   7.729  19.615  0.00  0.00    +0.000 OA
ENDBRANCH   1  18
TORSDOF 1
ENDMDL
MODEL 5
REMARK VINA RESULT:      -5.9      2.086      4.004
REMARK  Name = 
REMARK  3 active torsions:
REMARK  status: ('A' for Active; 'I' for Inactive)
REMARK    1  A    between atoms: C_1  and  C_2
REMARK    2  A    between atoms: C_2  and  N_4
REMARK    3  A    between atoms: C_17  and  C_18
REMARK                            x       y       z     vdW  Elec       q    Type
REMARK                         _______ _______ _______ _____ _____    ______ ____
ROOT
ATOM      1  N   UNL     1       2.101   5.906  19.180  0.00  0.00    +0.000 NA
ATOM      2  C   UNL     1       2.885   5.473  18.267  0.00  0.00    +0.000 C 
ATOM      3  O   UNL     1       3.785   6.228  17.586  0.00  0.00    +0.000 OA
ATOM      4  C   UNL     1       4.582   5.391  16.726  0.00  0.00    +0.000 C 
ATOM      5  C   UNL     1       4.253   3.970  17.196  0.00  0.00    +0.000 C 
ATOM      6  C   UNL     1       5.358   3.453  18.133  0.00  0.00    +0.000 C 
ATOM      7  S   UNL     1       6.433   4.826  18.461  0.00  0.00    +0.000 S 
ATOM      8  O   UNL     1       5.864   5.543  19.588  0.00  0.00    +0.000 OA
ATOM      9  O   UNL     1       7.796   4.345  18.494  0.00  0.00    +0.000 OA
ATOM     10  C   UNL     1       6.072   5.672  16.920  0.00  0.00    +0.000 C 
ATOM     11 BR   UNL     1       6.453   7.590  16.982  0.00  0.00    +0.000 Br
ATOM     12 BR   UNL     1       7.046   4.866  15.394  0.00  0.00    +0.000 Br
ATOM     13  N   UNL     1       2.988   4.146  17.881  0.00  0.00    +0.000 N 
ATOM     14  C   UNL     1       2.205   3.048  18.214  0.00  0.00    +0.000 C 
ATOM     15  C   UNL     1       0.877   3.262  18.901  0.00  0.00    +0.000 C 
ATOM     16  O   UNL     1       2.588   1.903  17.954  0.00  0.00    +0.000 OA
ENDROOT
BRANCH   1  18
ATOM     17  C   UNL     1       1.660   7.500  20.902  0.00  0.00    +0.000 C 
ATOM     18  C   UNL     1       2.156   7.237  19.506  0.00  0.00    +0.000 C 
ATOM     19  O   UNL     1       2.485   8.146  18.754  0.00  0.00    +0.000 OA
ENDBRANCH   1  18
TORSDOF 1
ENDMDL
MODEL 6
REMARK VINA RESULT:      -5.7      2.902      4.786
REMARK  Name = 
REMARK  3 active torsions:
REMARK  status: ('A' for Active; 'I' for Inactive)
REMARK    1  A    between atoms: C_1  and  C_2
REMARK    2  A    between atoms: C_2  and  N_4
REMARK    3  A    between atoms: C_17  and  C_18
REMARK                            x       y       z     vdW  Elec       q    Type
REMARK                         _______ _______ _______ _____ _____    ______ ____
ROOT
ATOM      1  N   UNL     1       4.651   6.766  17.103  0.00  0.00    +0.000 NA
ATOM      2  C   UNL     1       3.624   6.087  17.448  0.00  0.00    +0.000 C 
ATOM      3  O   UNL     1       3.462   4.755  17.242  0.00  0.00    +0.000 OA
ATOM      4  C   UNL     1       2.246   4.302  17.870  0.00  0.00    +0.000 C 
ATOM      5  C   UNL     1       1.833   5.483  18.754  0.00  0.00    +0.000 C 
ATOM      6  C   UNL     1       2.261   5.231  20.210  0.00  0.00    +0.000 C 
ATOM      7  S   UNL     1       3.272   3.773  20.199  0.00  0.00    +0.000 S 
ATOM      8  O   UNL     1       4.628   4.205  19.914  0.00  0.00    +0.000 OA
ATOM      9  O   UNL     1       2.969   2.995  21.380  0.00  0.00    +0.000 OA
ATOM     10  C   UNL     1       2.508   3.069  18.736  0.00  0.00    +0.000 C 
ATOM     11 BR   UNL     1       3.640   1.760  17.824  0.00  0.00    +0.000 Br
ATOM     12 BR   UNL     1       0.757   2.237  19.150  0.00  0.00    +0.000 Br
ATOM     13  N   UNL     1       2.545   6.594  18.155  0.00  0.00    +0.000 N 
ATOM     14  C   UNL     1       2.221   7.904  18.486  0.00  0.00    +0.000 C 
ATOM     15  C   UNL     1       2.959   9.043  17.825  0.00  0.00    +0.000 C 
ATOM     16  O   UNL     1       1.338   8.139  19.317  0.00  0.00    +0.000 OA
ENDROOT
BRANCH   1  18
ATOM     17  C   UNL     1       6.792   5.755  17.411  0.00  0.00    +0.000 C 
ATOM     18  C   UNL     1       5.677   6.115  16.467  0.00  0.00    +0.000 C 
ATOM     19  O   UNL     1       5.755   5.904  15.263  0.00  0.00    +0.000 OA
ENDBRANCH   1  18
TORSDOF 1
ENDMDL
MODEL 7
REMARK VINA RESULT:      -5.3      7.981      9.532
REMARK  Name = 
REMARK  3 active torsions:
REMARK  status: ('A' for Active; 'I' for Inactive)
REMARK    1  A    between atoms: C_1  and  C_2
REMARK    2  A    between atoms: C_2  and  N_4
REMARK    3  A    between atoms: C_17  and  C_18
REMARK                            x       y       z     vdW  Elec       q    Type
REMARK                         _______ _______ _______ _____ _____    ______ ____
ROOT
ATOM      1  N   UNL     1      -1.310  10.629  23.189  0.00  0.00    +0.000 NA
ATOM      2  C   UNL     1      -1.184  11.662  22.445  0.00  0.00    +0.000 C 
ATOM      3  O   UNL     1      -0.110  11.934  21.661  0.00  0.00    +0.000 OA
ATOM      4  C   UNL     1      -0.364  13.111  20.867  0.00  0.00    +0.000 C 
ATOM      5  C   UNL     1      -1.866  13.353  21.048  0.00  0.00    +0.000 C 
ATOM      6  C   UNL     1      -2.641  12.802  19.838  0.00  0.00    +0.000 C 
ATOM      7  S   UNL     1      -1.473  11.900  18.852  0.00  0.00    +0.000 S 
ATOM      8  O   UNL     1      -1.425  10.552  19.389  0.00  0.00    +0.000 OA
ATOM      9  O   UNL     1      -1.769  12.138  17.457  0.00  0.00    +0.000 OA
ATOM     10  C   UNL     1      -0.051  12.852  19.393  0.00  0.00    +0.000 C 
ATOM     11 BR   UNL     1       1.647  11.908  19.160  0.00  0.00    +0.000 Br
ATOM     12 BR   UNL     1       0.051  14.606  18.477  0.00  0.00    +0.000 Br
ATOM     13  N   UNL     1      -2.162  12.628  22.267  0.00  0.00    +0.000 N 
ATOM     14  C   UNL     1      -3.363  12.827  22.935  0.00  0.00    +0.000 C 
ATOM     15  C   UNL     1      -3.633  12.081  24.220  0.00  0.00    +0.000 C 
ATOM     16  O   UNL     1      -4.209  13.606  22.484  0.00  0.00    +0.000 OA
ENDROOT
BRANCH   1  18
ATOM     17  C   UNL     1      -0.445   8.655  22.162  0.00  0.00    +0.000 C 
ATOM     18  C   UNL     1      -0.285   9.718  23.214  0.00  0.00    +0.000 C 
ATOM     19  O   UNL     1       0.629   9.689  24.030  0.00  0.00    +0.000 OA
ENDBRANCH   1  18
TORSDOF 1
ENDMDL
MODEL 8
REMARK VINA RESULT:      -5.2      9.267     11.423
REMARK  Name = 
REMARK  3 active torsions:
REMARK  status: ('A' for Active; 'I' for Inactive)
REMARK    1  A    between atoms: C_1  and  C_2
REMARK    2  A    between atoms: C_2  and  N_4
REMARK    3  A    between atoms: C_17  and  C_18
REMARK                            x       y       z     vdW  Elec       q    Type
REMARK                         _______ _______ _______ _____ _____    ______ ____
ROOT
ATOM      1  N   UNL     1      -1.279  11.308  19.689  0.00  0.00    +0.000 NA
ATOM      2  C   UNL     1      -1.280  12.035  20.741  0.00  0.00    +0.000 C 
ATOM      3  O   UNL     1      -1.743  13.310  20.810  0.00  0.00    +0.000 OA
ATOM      4  C   UNL     1      -1.706  13.775  22.174  0.00  0.00    +0.000 C 
ATOM      5  C   UNL     1      -1.440  12.503  22.985  0.00  0.00    +0.000 C 
ATOM      6  C   UNL     1      -2.754  11.966  23.576  0.00  0.00    +0.000 C 
ATOM      7  S   UNL     1      -4.064  12.927  22.862  0.00  0.00    +0.000 S 
ATOM      8  O   UNL     1      -4.413  12.290  21.605  0.00  0.00    +0.000 OA
ATOM      9  O   UNL     1      -5.064  13.168  23.879  0.00  0.00    +0.000 OA
ATOM     10  C   UNL     1      -3.051  14.380  22.580  0.00  0.00    +0.000 C 
ATOM     11 BR   UNL     1      -3.766  15.567  21.200  0.00  0.00    +0.000 Br
ATOM     12 BR   UNL     1      -2.771  15.415  24.246  0.00  0.00    +0.000 Br
ATOM     13  N   UNL     1      -0.875  11.607  21.995  0.00  0.00    +0.000 N 
ATOM     14  C   UNL     1      -0.233  10.437  22.384  0.00  0.00    +0.000 C 
ATOM     15  C   UNL     1       0.372   9.537  21.333  0.00  0.00    +0.000 C 
ATOM     16  O   UNL     1      -0.158  10.131  23.577  0.00  0.00    +0.000 OA
ENDROOT
BRANCH   1  18
ATOM     17  C   UNL     1      -3.174  11.376  18.239  0.00  0.00    +0.000 C 
ATOM     18  C   UNL     1      -1.775  11.845  18.528  0.00  0.00    +0.000 C 
ATOM     19  O   UNL     1      -1.158  12.560  17.748  0.00  0.00    +0.000 OA
ENDBRANCH   1  18
TORSDOF 1
ENDMDL
MODEL 9
REMARK VINA RESULT:      -5.2     10.457     12.360
REMARK  Name = 
REMARK  3 active torsions:
REMARK  status: ('A' for Active; 'I' for Inactive)
REMARK    1  A    between atoms: C_1  and  C_2
REMARK    2  A    between atoms: C_2  and  N_4
REMARK    3  A    between atoms: C_17  and  C_18
REMARK                            x       y       z     vdW  Elec       q    Type
REMARK                         _______ _______ _______ _____ _____    ______ ____
ROOT
ATOM      1  N   UNL     1      -5.786  12.413  22.464  0.00  0.00    +0.000 NA
ATOM      2  C   UNL     1      -4.795  13.018  21.928  0.00  0.00    +0.000 C 
ATOM      3  O   UNL     1      -3.950  13.861  22.574  0.00  0.00    +0.000 OA
ATOM      4  C   UNL     1      -2.880  14.258  21.694  0.00  0.00    +0.000 C 
ATOM      5  C   UNL     1      -3.014  13.302  20.505  0.00  0.00    +0.000 C 
ATOM      6  C   UNL     1      -2.004  12.149  20.636  0.00  0.00    +0.000 C 
ATOM      7  S   UNL     1      -1.271  12.293  22.246  0.00  0.00    +0.000 S 
ATOM      8  O   UNL     1      -2.142  11.585  23.166  0.00  0.00    +0.000 OA
ATOM      9  O   UNL     1       0.133  11.962  22.143  0.00  0.00    +0.000 OA
ATOM     10  C   UNL     1      -1.521  14.065  22.368  0.00  0.00    +0.000 C 
ATOM     11 BR   UNL     1      -1.517  14.722  24.211  0.00  0.00    +0.000 Br
ATOM     12 BR   UNL     1      -0.175  15.071  21.318  0.00  0.00    +0.000 Br
ATOM     13  N   UNL     1      -4.385  12.847  20.615  0.00  0.00    +0.000 N 
ATOM     14  C   UNL     1      -4.996  12.180  19.560  0.00  0.00    +0.000 C 
ATOM     15  C   UNL     1      -6.436  11.744  19.690  0.00  0.00    +0.000 C 
ATOM     16  O   UNL     1      -4.370  11.942  18.523  0.00  0.00    +0.000 OA
ENDROOT
BRANCH   1  18
ATOM     17  C   UNL     1      -7.085  13.680  24.016  0.00  0.00    +0.000 C 
ATOM     18  C   UNL     1      -6.033  12.627  23.796  0.00  0.00    +0.000 C 
ATOM     19  O   UNL     1      -5.436  12.104  24.729  0.00  0.00    +0.000 OA
ENDBRANCH   1  18
TORSDOF 1
ENDMDL
