MODEL 1
REMARK VINA RESULT:      -8.1      0.000      0.000
REMARK  Name = 
REMARK  12 active torsions:
REMARK  status: ('A' for Active; 'I' for Inactive)
REMARK    1  A    between atoms: C_2  and  C_3
REMARK    2  A    between atoms: C_3  and  O_4
REMARK    3  A    between atoms: O_4  and  C_5
REMARK    4  A    between atoms: C_5  and  C_7
REMARK    5  A    between atoms: C_8  and  C_9
REMARK    6  A    between atoms: C_11  and  S_12
REMARK    7  A    between atoms: S_12  and  C_13
REMARK    8  A    between atoms: C_13  and  C_14
REMARK    9  A    between atoms: N_16  and  C_17
REMARK   10  A    between atoms: C_20  and  C_21
REMARK   11  A    between atoms: C_25  and  C_26
REMARK   12  A    between atoms: C_28  and  C_29
REMARK                            x       y       z     vdW  Elec       q    Type
REMARK                         _______ _______ _______ _____ _____    ______ ____
ROOT
ATOM      1  C   UNL     1       6.350   5.768  18.020  0.00  0.00    +0.000 C 
ATOM      2  C   UNL     1       6.649   5.251  19.237  0.00  0.00    +0.000 C 
ATOM      3  C   UNL     1       7.847   5.620  20.080  0.00  0.00    +0.000 C 
ATOM      4  N   UNL     1       5.817   4.284  19.791  0.00  0.00    +0.000 N 
ATOM      5  C   UNL     1       4.700   3.734  19.188  0.00  0.00    +0.000 C 
ATOM      6  C   UNL     1       4.308   4.202  17.982  0.00  0.00    +0.000 C 
ATOM      7  C   UNL     1       5.111   5.299  17.257  0.00  0.00    +0.000 C 
ATOM      8  H   UNL     1       5.978   4.015  20.767  0.00  0.00    +0.000 HD
ENDROOT
BRANCH   7   9
ATOM      9  C   UNL     1       5.412   4.883  15.840  0.00  0.00    +0.000 A 
ATOM     10  C   UNL     1       5.083   5.415  14.611  0.00  0.00    +0.000 A 
ATOM     11  C   UNL     1       5.631   4.540  13.645  0.00  0.00    +0.000 A 
ATOM     12  C   UNL     1       6.283   3.553  14.344  0.00  0.00    +0.000 A 
ATOM     13  O   UNL     1       6.145   3.744  15.679  0.00  0.00    +0.000 OA
ENDBRANCH   7   9
BRANCH   1  14
ATOM     14  C   UNL     1       7.234   6.740  17.312  0.00  0.00    +0.000 C 
ATOM     15  O   UNL     1       7.807   6.520  16.251  0.00  0.00    +0.000 OA
BRANCH  14  16
ATOM     16  O   UNL     1       7.308   7.903  18.002  0.00  0.00    +0.000 OA
BRANCH  16  17
ATOM     17  C   UNL     1       8.200   8.885  17.448  0.00  0.00    +0.000 C 
BRANCH  17  19
ATOM     18  C   UNL     1       9.574  10.743  18.444  0.00  0.00    +0.000 C 
ATOM     19  C   UNL     1       8.650   9.780  18.559  0.00  0.00    +0.000 C 
ENDBRANCH  17  19
ENDBRANCH  16  17
ENDBRANCH  14  16
ENDBRANCH   1  14
BRANCH   6  20
ATOM     20  C   UNL     1       3.144   3.722  17.309  0.00  0.00    +0.000 C 
ATOM     21  N   UNL     1       2.218   3.304  16.750  0.00  0.00    +0.000 NA
ENDBRANCH   6  20
BRANCH   5  22
ATOM     22  S   UNL     1       3.725   2.488  19.981  0.00  0.00    +0.000 S 
BRANCH  22  23
ATOM     23  C   UNL     1       2.817   3.437  21.251  0.00  0.00    +0.000 C 
BRANCH  23  24
ATOM     24  C   UNL     1       2.042   4.581  20.617  0.00  0.00    +0.000 C 
ATOM     25  O   UNL     1       0.961   4.375  20.066  0.00  0.00    +0.000 OA
ATOM     26  N   UNL     1       2.675   5.815  20.673  0.00  0.00    +0.000 N 
ATOM     27  H   UNL     1       3.657   5.843  20.926  0.00  0.00    +0.000 HD
BRANCH  26  28
ATOM     28  C   UNL     1       2.123   7.003  20.124  0.00  0.00    +0.000 A 
ATOM     29  C   UNL     1       2.386   7.410  18.813  0.00  0.00    +0.000 A 
ATOM     30  C   UNL     1       1.931   8.634  18.330  0.00  0.00    +0.000 A 
ATOM     31  C   UNL     1       1.174   9.479  19.141  0.00  0.00    +0.000 A 
ATOM     32  C   UNL     1       0.748  10.811  18.594  0.00  0.00    +0.000 C 
ATOM     33  C   UNL     1       0.857   9.048  20.439  0.00  0.00    +0.000 A 
ATOM     34 CL   UNL     1      -0.077  10.039  21.503  0.00  0.00    +0.000 Cl
ATOM     35  C   UNL     1       1.313   7.810  20.924  0.00  0.00    +0.000 A 
ENDBRANCH  26  28
ENDBRANCH  23  24
ENDBRANCH  22  23
ENDBRANCH   5  22
TORSDOF 10
ENDMDL
MODEL 2
REMARK VINA RESULT:      -7.1      2.778      4.668
REMARK  Name = 
REMARK  12 active torsions:
REMARK  status: ('A' for Active; 'I' for Inactive)
REMARK    1  A    between atoms: C_2  and  C_3
REMARK    2  A    between atoms: C_3  and  O_4
REMARK    3  A    between atoms: O_4  and  C_5
REMARK    4  A    between atoms: C_5  and  C_7
REMARK    5  A    between atoms: C_8  and  C_9
REMARK    6  A    between atoms: C_11  and  S_12
REMARK    7  A    between atoms: S_12  and  C_13
REMARK    8  A    between atoms: C_13  and  C_14
REMARK    9  A    between atoms: N_16  and  C_17
REMARK   10  A    between atoms: C_20  and  C_21
REMARK   11  A    between atoms: C_25  and  C_26
REMARK   12  A    between atoms: C_28  and  C_29
REMARK                            x       y       z     vdW  Elec       q    Type
REMARK                         _______ _______ _______ _____ _____    ______ ____
ROOT
ATOM      1  C   UNL     1       5.836   5.332  17.245  0.00  0.00    +0.000 C 
ATOM      2  C   UNL     1       5.963   6.666  17.445  0.00  0.00    +0.000 C 
ATOM      3  C   UNL     1       7.262   7.436  17.442  0.00  0.00    +0.000 C 
ATOM      4  N   UNL     1       4.828   7.431  17.691  0.00  0.00    +0.000 N 
ATOM      5  C   UNL     1       3.536   6.949  17.810  0.00  0.00    +0.000 C 
ATOM      6  C   UNL     1       3.305   5.633  17.604  0.00  0.00    +0.000 C 
ATOM      7  C   UNL     1       4.460   4.664  17.288  0.00  0.00    +0.000 C 
ATOM      8  H   UNL     1       4.927   8.451  17.694  0.00  0.00    +0.000 HD
ENDROOT
BRANCH   7   9
ATOM      9  C   UNL     1       4.411   3.469  18.203  0.00  0.00    +0.000 A 
ATOM     10  C   UNL     1       4.742   3.281  19.529  0.00  0.00    +0.000 A 
ATOM     11  C   UNL     1       4.508   1.914  19.802  0.00  0.00    +0.000 A 
ATOM     12  C   UNL     1       4.021   1.365  18.640  0.00  0.00    +0.000 A 
ATOM     13  O   UNL     1       3.972   2.298  17.658  0.00  0.00    +0.000 OA
ENDBRANCH   7   9
BRANCH   1  14
ATOM     14  C   UNL     1       7.006   4.422  17.065  0.00  0.00    +0.000 C 
ATOM     15  O   UNL     1       7.913   4.282  17.876  0.00  0.00    +0.000 OA
BRANCH  14  16
ATOM     16  O   UNL     1       6.920   3.768  15.883  0.00  0.00    +0.000 OA
BRANCH  16  17
ATOM     17  C   UNL     1       6.897   4.613  14.719  0.00  0.00    +0.000 C 
BRANCH  17  19
ATOM     18  C   UNL     1       6.225   3.553  12.538  0.00  0.00    +0.000 C 
ATOM     19  C   UNL     1       5.915   4.037  13.749  0.00  0.00    +0.000 C 
ENDBRANCH  17  19
ENDBRANCH  16  17
ENDBRANCH  14  16
ENDBRANCH   1  14
BRANCH   6  20
ATOM     20  C   UNL     1       1.998   5.061  17.663  0.00  0.00    +0.000 C 
ATOM     21  N   UNL     1       0.933   4.603  17.674  0.00  0.00    +0.000 NA
ENDBRANCH   6  20
BRANCH   5  22
ATOM     22  S   UNL     1       2.165   8.016  18.149  0.00  0.00    +0.000 S 
BRANCH  22  23
ATOM     23  C   UNL     1       1.913   7.788  19.944  0.00  0.00    +0.000 C 
BRANCH  23  24
ATOM     24  C   UNL     1       0.993   8.863  20.499  0.00  0.00    +0.000 C 
ATOM     25  O   UNL     1       0.339   8.660  21.522  0.00  0.00    +0.000 OA
ATOM     26  N   UNL     1       0.927  10.024  19.740  0.00  0.00    +0.000 N 
ATOM     27  H   UNL     1       1.308  10.008  18.800  0.00  0.00    +0.000 HD
BRANCH  26  28
ATOM     28  C   UNL     1       0.114  11.137  20.081  0.00  0.00    +0.000 A 
ATOM     29  C   UNL     1      -1.203  11.262  19.632  0.00  0.00    +0.000 A 
ATOM     30  C   UNL     1      -1.946  12.413  19.881  0.00  0.00    +0.000 A 
ATOM     31  C   UNL     1      -1.398  13.468  20.611  0.00  0.00    +0.000 A 
ATOM     32  C   UNL     1      -2.219  14.709  20.810  0.00  0.00    +0.000 C 
ATOM     33  C   UNL     1      -0.096  13.322  21.115  0.00  0.00    +0.000 A 
ATOM     34 CL   UNL     1       0.651  14.584  22.029  0.00  0.00    +0.000 Cl
ATOM     35  C   UNL     1       0.651  12.158  20.868  0.00  0.00    +0.000 A 
ENDBRANCH  26  28
ENDBRANCH  23  24
ENDBRANCH  22  23
ENDBRANCH   5  22
TORSDOF 10
ENDMDL
MODEL 3
REMARK VINA RESULT:      -7.0      2.918      4.980
REMARK  Name = 
REMARK  12 active torsions:
REMARK  status: ('A' for Active; 'I' for Inactive)
REMARK    1  A    between atoms: C_2  and  C_3
REMARK    2  A    between atoms: C_3  and  O_4
REMARK    3  A    between atoms: O_4  and  C_5
REMARK    4  A    between atoms: C_5  and  C_7
REMARK    5  A    between atoms: C_8  and  C_9
REMARK    6  A    between atoms: C_11  and  S_12
REMARK    7  A    between atoms: S_12  and  C_13
REMARK    8  A    between atoms: C_13  and  C_14
REMARK    9  A    between atoms: N_16  and  C_17
REMARK   10  A    between atoms: C_20  and  C_21
REMARK   11  A    between atoms: C_25  and  C_26
REMARK   12  A    between atoms: C_28  and  C_29
REMARK                            x       y       z     vdW  Elec       q    Type
REMARK                         _______ _______ _______ _____ _____    ______ ____
ROOT
ATOM      1  C   UNL     1       5.591   5.157  17.015  0.00  0.00    +0.000 C 
ATOM      2  C   UNL     1       5.768   6.459  17.347  0.00  0.00    +0.000 C 
ATOM      3  C   UNL     1       7.060   7.231  17.222  0.00  0.00    +0.000 C 
ATOM      4  N   UNL     1       4.699   7.183  17.864  0.00  0.00    +0.000 N 
ATOM      5  C   UNL     1       3.438   6.684  18.136  0.00  0.00    +0.000 C 
ATOM      6  C   UNL     1       3.157   5.400  17.817  0.00  0.00    +0.000 C 
ATOM      7  C   UNL     1       4.231   4.482  17.204  0.00  0.00    +0.000 C 
ATOM      8  H   UNL     1       4.812   8.196  17.971  0.00  0.00    +0.000 HD
ENDROOT
BRANCH   7   9
ATOM      9  C   UNL     1       4.315   3.186  17.967  0.00  0.00    +0.000 A 
ATOM     10  C   UNL     1       3.963   1.888  17.664  0.00  0.00    +0.000 A 
ATOM     11  C   UNL     1       4.256   1.122  18.817  0.00  0.00    +0.000 A 
ATOM     12  C   UNL     1       4.796   1.993  19.732  0.00  0.00    +0.000 A 
ATOM     13  O   UNL     1       4.824   3.253  19.232  0.00  0.00    +0.000 OA
ENDBRANCH   7   9
BRANCH   1  14
ATOM     14  C   UNL     1       6.703   4.281  16.540  0.00  0.00    +0.000 C 
ATOM     15  O   UNL     1       7.780   4.149  17.109  0.00  0.00    +0.000 OA
BRANCH  14  16
ATOM     16  O   UNL     1       6.350   3.647  15.397  0.00  0.00    +0.000 OA
BRANCH  16  17
ATOM     17  C   UNL     1       6.366   4.466  14.216  0.00  0.00    +0.000 C 
BRANCH  17  19
ATOM     18  C   UNL     1       5.272   3.418  12.207  0.00  0.00    +0.000 C 
ATOM     19  C   UNL     1       6.323   3.562  13.025  0.00  0.00    +0.000 C 
ENDBRANCH  17  19
ENDBRANCH  16  17
ENDBRANCH  14  16
ENDBRANCH   1  14
BRANCH   6  20
ATOM     20  C   UNL     1       1.869   4.818  18.021  0.00  0.00    +0.000 C 
ATOM     21  N   UNL     1       0.832   4.321  18.161  0.00  0.00    +0.000 NA
ENDBRANCH   6  20
BRANCH   5  22
ATOM     22  S   UNL     1       2.156   7.696  18.818  0.00  0.00    +0.000 S 
BRANCH  22  23
ATOM     23  C   UNL     1       2.267   9.217  17.812  0.00  0.00    +0.000 C 
BRANCH  23  24
ATOM     24  C   UNL     1       1.388  10.313  18.393  0.00  0.00    +0.000 C 
ATOM     25  O   UNL     1       1.778  11.480  18.421  0.00  0.00    +0.000 OA
ATOM     26  N   UNL     1       0.178   9.875  18.914  0.00  0.00    +0.000 N 
ATOM     27  H   UNL     1       0.049   8.880  19.064  0.00  0.00    +0.000 HD
BRANCH  26  28
ATOM     28  C   UNL     1      -0.774  10.740  19.515  0.00  0.00    +0.000 A 
ATOM     29  C   UNL     1      -1.818  11.318  18.788  0.00  0.00    +0.000 A 
ATOM     30  C   UNL     1      -2.672  12.253  19.367  0.00  0.00    +0.000 A 
ATOM     31  C   UNL     1      -2.521  12.620  20.704  0.00  0.00    +0.000 A 
ATOM     32  C   UNL     1      -3.433  13.669  21.270  0.00  0.00    +0.000 C 
ATOM     33  C   UNL     1      -1.511  11.997  21.454  0.00  0.00    +0.000 A 
ATOM     34 CL   UNL     1      -1.262  12.399  23.116  0.00  0.00    +0.000 Cl
ATOM     35  C   UNL     1      -0.653  11.051  20.870  0.00  0.00    +0.000 A 
ENDBRANCH  26  28
ENDBRANCH  23  24
ENDBRANCH  22  23
ENDBRANCH   5  22
TORSDOF 10
ENDMDL
MODEL 4
REMARK VINA RESULT:      -7.0      1.052      1.417
REMARK  Name = 
REMARK  12 active torsions:
REMARK  status: ('A' for Active; 'I' for Inactive)
REMARK    1  A    between atoms: C_2  and  C_3
REMARK    2  A    between atoms: C_3  and  O_4
REMARK    3  A    between atoms: O_4  and  C_5
REMARK    4  A    between atoms: C_5  and  C_7
REMARK    5  A    between atoms: C_8  and  C_9
REMARK    6  A    between atoms: C_11  and  S_12
REMARK    7  A    between atoms: S_12  and  C_13
REMARK    8  A    between atoms: C_13  and  C_14
REMARK    9  A    between atoms: N_16  and  C_17
REMARK   10  A    between atoms: C_20  and  C_21
REMARK   11  A    between atoms: C_25  and  C_26
REMARK   12  A    between atoms: C_28  and  C_29
REMARK                            x       y       z     vdW  Elec       q    Type
REMARK                         _______ _______ _______ _____ _____    ______ ____
ROOT
ATOM      1  C   UNL     1       6.275   5.713  17.972  0.00  0.00    +0.000 C 
ATOM      2  C   UNL     1       6.513   5.224  19.213  0.00  0.00    +0.000 C 
ATOM      3  C   UNL     1       7.694   5.577  20.087  0.00  0.00    +0.000 C 
ATOM      4  N   UNL     1       5.630   4.303  19.766  0.00  0.00    +0.000 N 
ATOM      5  C   UNL     1       4.515   3.773  19.140  0.00  0.00    +0.000 C 
ATOM      6  C   UNL     1       4.181   4.217  17.908  0.00  0.00    +0.000 C 
ATOM      7  C   UNL     1       5.047   5.263  17.180  0.00  0.00    +0.000 C 
ATOM      8  H   UNL     1       5.747   4.059  20.754  0.00  0.00    +0.000 HD
ENDROOT
BRANCH   7   9
ATOM      9  C   UNL     1       5.381   4.794  15.788  0.00  0.00    +0.000 A 
ATOM     10  C   UNL     1       5.939   3.635  15.291  0.00  0.00    +0.000 A 
ATOM     11  C   UNL     1       6.032   3.812  13.891  0.00  0.00    +0.000 A 
ATOM     12  C   UNL     1       5.498   5.049  13.622  0.00  0.00    +0.000 A 
ATOM     13  O   UNL     1       5.112   5.661  14.769  0.00  0.00    +0.000 OA
ENDBRANCH   7   9
BRANCH   1  14
ATOM     14  C   UNL     1       7.217   6.632  17.267  0.00  0.00    +0.000 C 
ATOM     15  O   UNL     1       7.856   6.342  16.263  0.00  0.00    +0.000 OA
BRANCH  14  16
ATOM     16  O   UNL     1       7.258   7.834  17.888  0.00  0.00    +0.000 OA
BRANCH  16  17
ATOM     17  C   UNL     1       8.546   8.211  18.403  0.00  0.00    +0.000 C 
BRANCH  17  19
ATOM     18  C   UNL     1       8.958  10.634  17.868  0.00  0.00    +0.000 C 
ATOM     19  C   UNL     1       8.518   9.677  18.695  0.00  0.00    +0.000 C 
ENDBRANCH  17  19
ENDBRANCH  16  17
ENDBRANCH  14  16
ENDBRANCH   1  14
BRANCH   6  20
ATOM     20  C   UNL     1       3.024   3.757  17.209  0.00  0.00    +0.000 C 
ATOM     21  N   UNL     1       2.103   3.351  16.635  0.00  0.00    +0.000 NA
ENDBRANCH   6  20
BRANCH   5  22
ATOM     22  S   UNL     1       3.470   2.586  19.935  0.00  0.00    +0.000 S 
BRANCH  22  23
ATOM     23  C   UNL     1       2.734   3.550  21.301  0.00  0.00    +0.000 C 
BRANCH  23  24
ATOM     24  C   UNL     1       1.931   4.723  20.761  0.00  0.00    +0.000 C 
ATOM     25  O   UNL     1       0.974   4.534  20.010  0.00  0.00    +0.000 OA
ATOM     26  N   UNL     1       2.399   5.974  21.140  0.00  0.00    +0.000 N 
ATOM     27  H   UNL     1       3.323   6.039  21.554  0.00  0.00    +0.000 HD
BRANCH  26  28
ATOM     28  C   UNL     1       1.797   7.193  20.727  0.00  0.00    +0.000 A 
ATOM     29  C   UNL     1       0.832   7.845  21.499  0.00  0.00    +0.000 A 
ATOM     30  C   UNL     1       0.171   8.976  21.025  0.00  0.00    +0.000 A 
ATOM     31  C   UNL     1       0.475   9.503  19.770  0.00  0.00    +0.000 A 
ATOM     32  C   UNL     1      -0.299  10.692  19.281  0.00  0.00    +0.000 C 
ATOM     33  C   UNL     1       1.486   8.885  19.017  0.00  0.00    +0.000 A 
ATOM     34 CL   UNL     1       1.920   9.480  17.453  0.00  0.00    +0.000 Cl
ATOM     35  C   UNL     1       2.156   7.747  19.497  0.00  0.00    +0.000 A 
ENDBRANCH  26  28
ENDBRANCH  23  24
ENDBRANCH  22  23
ENDBRANCH   5  22
TORSDOF 10
ENDMDL
MODEL 5
REMARK VINA RESULT:      -6.8      2.792      4.666
REMARK  Name = 
REMARK  12 active torsions:
REMARK  status: ('A' for Active; 'I' for Inactive)
REMARK    1  A    between atoms: C_2  and  C_3
REMARK    2  A    between atoms: C_3  and  O_4
REMARK    3  A    between atoms: O_4  and  C_5
REMARK    4  A    between atoms: C_5  and  C_7
REMARK    5  A    between atoms: C_8  and  C_9
REMARK    6  A    between atoms: C_11  and  S_12
REMARK    7  A    between atoms: S_12  and  C_13
REMARK    8  A    between atoms: C_13  and  C_14
REMARK    9  A    between atoms: N_16  and  C_17
REMARK   10  A    between atoms: C_20  and  C_21
REMARK   11  A    between atoms: C_25  and  C_26
REMARK   12  A    between atoms: C_28  and  C_29
REMARK                            x       y       z     vdW  Elec       q    Type
REMARK                         _______ _______ _______ _____ _____    ______ ____
ROOT
ATOM      1  C   UNL     1       5.824   5.214  17.181  0.00  0.00    +0.000 C 
ATOM      2  C   UNL     1       5.962   6.539  17.426  0.00  0.00    +0.000 C 
ATOM      3  C   UNL     1       7.268   7.299  17.445  0.00  0.00    +0.000 C 
ATOM      4  N   UNL     1       4.834   7.304  17.703  0.00  0.00    +0.000 N 
ATOM      5  C   UNL     1       3.539   6.829  17.809  0.00  0.00    +0.000 C 
ATOM      6  C   UNL     1       3.297   5.523  17.559  0.00  0.00    +0.000 C 
ATOM      7  C   UNL     1       4.444   4.556  17.206  0.00  0.00    +0.000 C 
ATOM      8  H   UNL     1       4.942   8.323  17.740  0.00  0.00    +0.000 HD
ENDROOT
BRANCH   7   9
ATOM      9  C   UNL     1       4.388   3.330  18.080  0.00  0.00    +0.000 A 
ATOM     10  C   UNL     1       4.051   2.015  17.840  0.00  0.00    +0.000 A 
ATOM     11  C   UNL     1       4.160   1.349  19.083  0.00  0.00    +0.000 A 
ATOM     12  C   UNL     1       4.585   2.289  19.990  0.00  0.00    +0.000 A 
ATOM     13  O   UNL     1       4.714   3.500  19.394  0.00  0.00    +0.000 OA
ENDBRANCH   7   9
BRANCH   1  14
ATOM     14  C   UNL     1       6.987   4.302  16.967  0.00  0.00    +0.000 C 
ATOM     15  O   UNL     1       7.890   4.120  17.774  0.00  0.00    +0.000 OA
BRANCH  14  16
ATOM     16  O   UNL     1       6.897   3.698  15.758  0.00  0.00    +0.000 OA
BRANCH  16  17
ATOM     17  C   UNL     1       6.748   4.590  14.641  0.00  0.00    +0.000 C 
BRANCH  17  19
ATOM     18  C   UNL     1       5.294   3.834  12.731  0.00  0.00    +0.000 C 
ATOM     19  C   UNL     1       6.435   3.768  13.431  0.00  0.00    +0.000 C 
ENDBRANCH  17  19
ENDBRANCH  16  17
ENDBRANCH  14  16
ENDBRANCH   1  14
BRANCH   6  20
ATOM     20  C   UNL     1       1.986   4.959  17.603  0.00  0.00    +0.000 C 
ATOM     21  N   UNL     1       0.927   4.492  17.675  0.00  0.00    +0.000 NA
ENDBRANCH   6  20
BRANCH   5  22
ATOM     22  S   UNL     1       2.178   7.895  18.189  0.00  0.00    +0.000 S 
BRANCH  22  23
ATOM     23  C   UNL     1       1.950   7.631  19.982  0.00  0.00    +0.000 C 
BRANCH  23  24
ATOM     24  C   UNL     1       1.232   8.814  20.613  0.00  0.00    +0.000 C 
ATOM     25  O   UNL     1       0.924   8.796  21.805  0.00  0.00    +0.000 OA
ATOM     26  N   UNL     1       0.925   9.845  19.736  0.00  0.00    +0.000 N 
ATOM     27  H   UNL     1       1.000   9.670  18.740  0.00  0.00    +0.000 HD
BRANCH  26  28
ATOM     28  C   UNL     1       0.242  11.028  20.127  0.00  0.00    +0.000 A 
ATOM     29  C   UNL     1       0.857  12.024  20.890  0.00  0.00    +0.000 A 
ATOM     30  C   UNL     1       0.139  13.121  21.361  0.00  0.00    +0.000 A 
ATOM     31  C   UNL     1      -1.215  13.265  21.059  0.00  0.00    +0.000 A 
ATOM     32  C   UNL     1      -1.959  14.437  21.630  0.00  0.00    +0.000 C 
ATOM     33  C   UNL     1      -1.821  12.297  20.243  0.00  0.00    +0.000 A 
ATOM     34 CL   UNL     1      -3.495  12.407  19.825  0.00  0.00    +0.000 Cl
ATOM     35  C   UNL     1      -1.095  11.193  19.765  0.00  0.00    +0.000 A 
ENDBRANCH  26  28
ENDBRANCH  23  24
ENDBRANCH  22  23
ENDBRANCH   5  22
TORSDOF 10
ENDMDL
MODEL 6
REMARK VINA RESULT:      -6.8      3.222      5.343
REMARK  Name = 
REMARK  12 active torsions:
REMARK  status: ('A' for Active; 'I' for Inactive)
REMARK    1  A    between atoms: C_2  and  C_3
REMARK    2  A    between atoms: C_3  and  O_4
REMARK    3  A    between atoms: O_4  and  C_5
REMARK    4  A    between atoms: C_5  and  C_7
REMARK    5  A    between atoms: C_8  and  C_9
REMARK    6  A    between atoms: C_11  and  S_12
REMARK    7  A    between atoms: S_12  and  C_13
REMARK    8  A    between atoms: C_13  and  C_14
REMARK    9  A    between atoms: N_16  and  C_17
REMARK   10  A    between atoms: C_20  and  C_21
REMARK   11  A    between atoms: C_25  and  C_26
REMARK   12  A    between atoms: C_28  and  C_29
REMARK                            x       y       z     vdW  Elec       q    Type
REMARK                         _______ _______ _______ _____ _____    ______ ____
ROOT
ATOM      1  C   UNL     1       4.625   5.135  17.154  0.00  0.00    +0.000 C 
ATOM      2  C   UNL     1       4.824   6.446  17.433  0.00  0.00    +0.000 C 
ATOM      3  C   UNL     1       5.959   7.295  16.909  0.00  0.00    +0.000 C 
ATOM      4  N   UNL     1       3.941   7.107  18.280  0.00  0.00    +0.000 N 
ATOM      5  C   UNL     1       2.866   6.533  18.936  0.00  0.00    +0.000 C 
ATOM      6  C   UNL     1       2.573   5.234  18.704  0.00  0.00    +0.000 C 
ATOM      7  C   UNL     1       3.442   4.380  17.761  0.00  0.00    +0.000 C 
ATOM      8  H   UNL     1       4.023   8.125  18.361  0.00  0.00    +0.000 HD
ENDROOT
BRANCH   7   9
ATOM      9  C   UNL     1       3.844   3.094  18.435  0.00  0.00    +0.000 A 
ATOM     10  C   UNL     1       3.638   1.765  18.131  0.00  0.00    +0.000 A 
ATOM     11  C   UNL     1       4.233   1.025  19.179  0.00  0.00    +0.000 A 
ATOM     12  C   UNL     1       4.789   1.946  20.034  0.00  0.00    +0.000 A 
ATOM     13  O   UNL     1       4.547   3.207  19.599  0.00  0.00    +0.000 OA
ENDBRANCH   7   9
BRANCH   1  14
ATOM     14  C   UNL     1       5.572   4.327  16.330  0.00  0.00    +0.000 C 
ATOM     15  O   UNL     1       6.652   3.903  16.722  0.00  0.00    +0.000 OA
BRANCH  14  16
ATOM     16  O   UNL     1       5.066   4.122  15.092  0.00  0.00    +0.000 OA
BRANCH  16  17
ATOM     17  C   UNL     1       6.045   3.948  14.054  0.00  0.00    +0.000 C 
BRANCH  17  19
ATOM     18  C   UNL     1       5.796   2.797  11.830  0.00  0.00    +0.000 C 
ATOM     19  C   UNL     1       5.323   3.604  12.790  0.00  0.00    +0.000 C 
ENDBRANCH  17  19
ENDBRANCH  16  17
ENDBRANCH  14  16
ENDBRANCH   1  14
BRANCH   6  20
ATOM     20  C   UNL     1       1.457   4.575  19.304  0.00  0.00    +0.000 C 
ATOM     21  N   UNL     1       0.574   4.028  19.819  0.00  0.00    +0.000 NA
ENDBRANCH   6  20
BRANCH   5  22
ATOM     22  S   UNL     1       1.818   7.468  20.013  0.00  0.00    +0.000 S 
BRANCH  22  23
ATOM     23  C   UNL     1       1.545   9.008  19.069  0.00  0.00    +0.000 C 
BRANCH  23  24
ATOM     24  C   UNL     1       0.487   9.870  19.740  0.00  0.00    +0.000 C 
ATOM     25  O   UNL     1      -0.590  10.086  19.183  0.00  0.00    +0.000 OA
ATOM     26  N   UNL     1       0.863  10.408  20.963  0.00  0.00    +0.000 N 
ATOM     27  H   UNL     1       1.843  10.375  21.224  0.00  0.00    +0.000 HD
BRANCH  26  28
ATOM     28  C   UNL     1       0.023  11.252  21.738  0.00  0.00    +0.000 A 
ATOM     29  C   UNL     1      -0.915  10.744  22.639  0.00  0.00    +0.000 A 
ATOM     30  C   UNL     1      -1.808  11.581  23.303  0.00  0.00    +0.000 A 
ATOM     31  C   UNL     1      -1.769  12.961  23.103  0.00  0.00    +0.000 A 
ATOM     32  C   UNL     1      -2.783  13.819  23.803  0.00  0.00    +0.000 C 
ATOM     33  C   UNL     1      -0.788  13.481  22.245  0.00  0.00    +0.000 A 
ATOM     34 CL   UNL     1      -0.676  15.180  21.947  0.00  0.00    +0.000 Cl
ATOM     35  C   UNL     1       0.115  12.636  21.578  0.00  0.00    +0.000 A 
ENDBRANCH  26  28
ENDBRANCH  23  24
ENDBRANCH  22  23
ENDBRANCH   5  22
TORSDOF 10
ENDMDL
MODEL 7
REMARK VINA RESULT:      -6.7      3.233      5.333
REMARK  Name = 
REMARK  12 active torsions:
REMARK  status: ('A' for Active; 'I' for Inactive)
REMARK    1  A    between atoms: C_2  and  C_3
REMARK    2  A    between atoms: C_3  and  O_4
REMARK    3  A    between atoms: O_4  and  C_5
REMARK    4  A    between atoms: C_5  and  C_7
REMARK    5  A    between atoms: C_8  and  C_9
REMARK    6  A    between atoms: C_11  and  S_12
REMARK    7  A    between atoms: S_12  and  C_13
REMARK    8  A    between atoms: C_13  and  C_14
REMARK    9  A    between atoms: N_16  and  C_17
REMARK   10  A    between atoms: C_20  and  C_21
REMARK   11  A    between atoms: C_25  and  C_26
REMARK   12  A    between atoms: C_28  and  C_29
REMARK                            x       y       z     vdW  Elec       q    Type
REMARK                         _______ _______ _______ _____ _____    ______ ____
ROOT
ATOM      1  C   UNL     1       4.758   5.203  17.086  0.00  0.00    +0.000 C 
ATOM      2  C   UNL     1       4.948   6.526  17.312  0.00  0.00    +0.000 C 
ATOM      3  C   UNL     1       6.099   7.351  16.787  0.00  0.00    +0.000 C 
ATOM      4  N   UNL     1       4.038   7.222  18.099  0.00  0.00    +0.000 N 
ATOM      5  C   UNL     1       2.943   6.677  18.746  0.00  0.00    +0.000 C 
ATOM      6  C   UNL     1       2.657   5.368  18.563  0.00  0.00    +0.000 C 
ATOM      7  C   UNL     1       3.556   4.474  17.688  0.00  0.00    +0.000 C 
ATOM      8  H   UNL     1       4.118   8.243  18.137  0.00  0.00    +0.000 HD
ENDROOT
BRANCH   7   9
ATOM      9  C   UNL     1       3.936   3.220  18.431  0.00  0.00    +0.000 A 
ATOM     10  C   UNL     1       4.631   2.990  19.600  0.00  0.00    +0.000 A 
ATOM     11  C   UNL     1       4.691   1.586  19.751  0.00  0.00    +0.000 A 
ATOM     12  C   UNL     1       4.005   1.053  18.687  0.00  0.00    +0.000 A 
ATOM     13  O   UNL     1       3.553   2.037  17.871  0.00  0.00    +0.000 OA
ENDBRANCH   7   9
BRANCH   1  14
ATOM     14  C   UNL     1       5.731   4.360  16.330  0.00  0.00    +0.000 C 
ATOM     15  O   UNL     1       6.765   3.898  16.797  0.00  0.00    +0.000 OA
BRANCH  14  16
ATOM     16  O   UNL     1       5.306   4.171  15.059  0.00  0.00    +0.000 OA
BRANCH  16  17
ATOM     17  C   UNL     1       6.284   4.446  14.041  0.00  0.00    +0.000 C 
BRANCH  17  19
ATOM     18  C   UNL     1       4.876   3.427  12.222  0.00  0.00    +0.000 C 
ATOM     19  C   UNL     1       6.031   3.520  12.894  0.00  0.00    +0.000 C 
ENDBRANCH  17  19
ENDBRANCH  16  17
ENDBRANCH  14  16
ENDBRANCH   1  14
BRANCH   6  20
ATOM     20  C   UNL     1       1.522   4.736  19.156  0.00  0.00    +0.000 C 
ATOM     21  N   UNL     1       0.611   4.237  19.671  0.00  0.00    +0.000 NA
ENDBRANCH   6  20
BRANCH   5  22
ATOM     22  S   UNL     1       1.861   7.658  19.746  0.00  0.00    +0.000 S 
BRANCH  22  23
ATOM     23  C   UNL     1       1.668   9.180  18.754  0.00  0.00    +0.000 C 
BRANCH  23  24
ATOM     24  C   UNL     1       0.252   9.722  18.869  0.00  0.00    +0.000 C 
ATOM     25  O   UNL     1      -0.253   9.923  19.973  0.00  0.00    +0.000 OA
ATOM     26  N   UNL     1      -0.401   9.907  17.658  0.00  0.00    +0.000 N 
ATOM     27  H   UNL     1       0.000   9.491  16.824  0.00  0.00    +0.000 HD
BRANCH  26  28
ATOM     28  C   UNL     1      -1.733  10.389  17.553  0.00  0.00    +0.000 A 
ATOM     29  C   UNL     1      -2.508  10.194  16.407  0.00  0.00    +0.000 A 
ATOM     30  C   UNL     1      -3.768  10.772  16.278  0.00  0.00    +0.000 A 
ATOM     31  C   UNL     1      -4.302  11.546  17.308  0.00  0.00    +0.000 A 
ATOM     32  C   UNL     1      -5.642  12.190  17.103  0.00  0.00    +0.000 C 
ATOM     33  C   UNL     1      -3.553  11.694  18.486  0.00  0.00    +0.000 A 
ATOM     34 CL   UNL     1      -4.148  12.638  19.806  0.00  0.00    +0.000 Cl
ATOM     35  C   UNL     1      -2.283  11.107  18.617  0.00  0.00    +0.000 A 
ENDBRANCH  26  28
ENDBRANCH  23  24
ENDBRANCH  22  23
ENDBRANCH   5  22
TORSDOF 10
ENDMDL
MODEL 8
REMARK VINA RESULT:      -6.7      3.155      4.860
REMARK  Name = 
REMARK  12 active torsions:
REMARK  status: ('A' for Active; 'I' for Inactive)
REMARK    1  A    between atoms: C_2  and  C_3
REMARK    2  A    between atoms: C_3  and  O_4
REMARK    3  A    between atoms: O_4  and  C_5
REMARK    4  A    between atoms: C_5  and  C_7
REMARK    5  A    between atoms: C_8  and  C_9
REMARK    6  A    between atoms: C_11  and  S_12
REMARK    7  A    between atoms: S_12  and  C_13
REMARK    8  A    between atoms: C_13  and  C_14
REMARK    9  A    between atoms: N_16  and  C_17
REMARK   10  A    between atoms: C_20  and  C_21
REMARK   11  A    between atoms: C_25  and  C_26
REMARK   12  A    between atoms: C_28  and  C_29
REMARK                            x       y       z     vdW  Elec       q    Type
REMARK                         _______ _______ _______ _____ _____    ______ ____
ROOT
ATOM      1  C   UNL     1       4.108   5.159  17.168  0.00  0.00    +0.000 C 
ATOM      2  C   UNL     1       4.246   6.475  17.457  0.00  0.00    +0.000 C 
ATOM      3  C   UNL     1       5.260   7.410  16.839  0.00  0.00    +0.000 C 
ATOM      4  N   UNL     1       3.415   7.058  18.408  0.00  0.00    +0.000 N 
ATOM      5  C   UNL     1       2.457   6.399  19.158  0.00  0.00    +0.000 C 
ATOM      6  C   UNL     1       2.229   5.087  18.926  0.00  0.00    +0.000 C 
ATOM      7  C   UNL     1       3.049   4.313  17.876  0.00  0.00    +0.000 C 
ATOM      8  H   UNL     1       3.437   8.077  18.505  0.00  0.00    +0.000 HD
ENDROOT
BRANCH   7   9
ATOM      9  C   UNL     1       3.606   3.046  18.472  0.00  0.00    +0.000 A 
ATOM     10  C   UNL     1       3.513   1.716  18.118  0.00  0.00    +0.000 A 
ATOM     11  C   UNL     1       4.229   0.997  19.103  0.00  0.00    +0.000 A 
ATOM     12  C   UNL     1       4.737   1.932  19.972  0.00  0.00    +0.000 A 
ATOM     13  O   UNL     1       4.353   3.180  19.606  0.00  0.00    +0.000 OA
ENDBRANCH   7   9
BRANCH   1  14
ATOM     14  C   UNL     1       5.015   4.433  16.230  0.00  0.00    +0.000 C 
ATOM     15  O   UNL     1       4.864   4.378  15.015  0.00  0.00    +0.000 OA
BRANCH  14  16
ATOM     16  O   UNL     1       6.031   3.852  16.909  0.00  0.00    +0.000 OA
BRANCH  16  17
ATOM     17  C   UNL     1       7.274   4.575  16.883  0.00  0.00    +0.000 C 
BRANCH  17  19
ATOM     18  C   UNL     1       7.847   6.054  18.835  0.00  0.00    +0.000 C 
ATOM     19  C   UNL     1       7.686   4.838  18.296  0.00  0.00    +0.000 C 
ENDBRANCH  17  19
ENDBRANCH  16  17
ENDBRANCH  14  16
ENDBRANCH   1  14
BRANCH   6  20
ATOM     20  C   UNL     1       1.230   4.342  19.623  0.00  0.00    +0.000 C 
ATOM     21  N   UNL     1       0.446   3.723  20.211  0.00  0.00    +0.000 NA
ENDBRANCH   6  20
BRANCH   5  22
ATOM     22  S   UNL     1       1.469   7.240  20.362  0.00  0.00    +0.000 S 
BRANCH  22  23
ATOM     23  C   UNL     1       1.894   8.993  20.076  0.00  0.00    +0.000 C 
BRANCH  23  24
ATOM     24  C   UNL     1       0.916   9.632  19.103  0.00  0.00    +0.000 C 
ATOM     25  O   UNL     1       1.295  10.022  17.998  0.00  0.00    +0.000 OA
ATOM     26  N   UNL     1      -0.378   9.775  19.586  0.00  0.00    +0.000 N 
ATOM     27  H   UNL     1      -0.539   9.650  20.580  0.00  0.00    +0.000 HD
BRANCH  26  28
ATOM     28  C   UNL     1      -1.433  10.362  18.837  0.00  0.00    +0.000 A 
ATOM     29  C   UNL     1      -2.235  11.382  19.355  0.00  0.00    +0.000 A 
ATOM     30  C   UNL     1      -3.335  11.865  18.652  0.00  0.00    +0.000 A 
ATOM     31  C   UNL     1      -3.651  11.356  17.392  0.00  0.00    +0.000 A 
ATOM     32  C   UNL     1      -4.876  11.872  16.693  0.00  0.00    +0.000 C 
ATOM     33  C   UNL     1      -2.812  10.374  16.842  0.00  0.00    +0.000 A 
ATOM     34 CL   UNL     1      -3.138   9.695  15.286  0.00  0.00    +0.000 Cl
ATOM     35  C   UNL     1      -1.700   9.890  17.551  0.00  0.00    +0.000 A 
ENDBRANCH  26  28
ENDBRANCH  23  24
ENDBRANCH  22  23
ENDBRANCH   5  22
TORSDOF 10
ENDMDL
MODEL 9
REMARK VINA RESULT:      -6.7      3.266      5.285
REMARK  Name = 
REMARK  12 active torsions:
REMARK  status: ('A' for Active; 'I' for Inactive)
REMARK    1  A    between atoms: C_2  and  C_3
REMARK    2  A    between atoms: C_3  and  O_4
REMARK    3  A    between atoms: O_4  and  C_5
REMARK    4  A    between atoms: C_5  and  C_7
REMARK    5  A    between atoms: C_8  and  C_9
REMARK    6  A    between atoms: C_11  and  S_12
REMARK    7  A    between atoms: S_12  and  C_13
REMARK    8  A    between atoms: C_13  and  C_14
REMARK    9  A    between atoms: N_16  and  C_17
REMARK   10  A    between atoms: C_20  and  C_21
REMARK   11  A    between atoms: C_25  and  C_26
REMARK   12  A    between atoms: C_28  and  C_29
REMARK                            x       y       z     vdW  Elec       q    Type
REMARK                         _______ _______ _______ _____ _____    ______ ____
ROOT
ATOM      1  C   UNL     1       5.625   5.241  17.035  0.00  0.00    +0.000 C 
ATOM      2  C   UNL     1       5.759   6.540  17.399  0.00  0.00    +0.000 C 
ATOM      3  C   UNL     1       7.044   7.334  17.369  0.00  0.00    +0.000 C 
ATOM      4  N   UNL     1       4.649   7.238  17.859  0.00  0.00    +0.000 N 
ATOM      5  C   UNL     1       3.381   6.715  18.041  0.00  0.00    +0.000 C 
ATOM      6  C   UNL     1       3.142   5.433  17.684  0.00  0.00    +0.000 C 
ATOM      7  C   UNL     1       4.268   4.542  17.125  0.00  0.00    +0.000 C 
ATOM      8  H   UNL     1       4.738   8.251  17.989  0.00  0.00    +0.000 HD
ENDROOT
BRANCH   7   9
ATOM      9  C   UNL     1       4.325   3.235  17.872  0.00  0.00    +0.000 A 
ATOM     10  C   UNL     1       4.077   1.928  17.506  0.00  0.00    +0.000 A 
ATOM     11  C   UNL     1       4.268   1.151  18.672  0.00  0.00    +0.000 A 
ATOM     12  C   UNL     1       4.649   2.026  19.661  0.00  0.00    +0.000 A 
ATOM     13  O   UNL     1       4.674   3.297  19.189  0.00  0.00    +0.000 OA
ENDBRANCH   7   9
BRANCH   1  14
ATOM     14  C   UNL     1       6.780   4.391  16.617  0.00  0.00    +0.000 C 
ATOM     15  O   UNL     1       7.787   4.203  17.288  0.00  0.00    +0.000 OA
BRANCH  14  16
ATOM     16  O   UNL     1       6.552   3.851  15.397  0.00  0.00    +0.000 OA
BRANCH  16  17
ATOM     17  C   UNL     1       6.898   4.692  14.284  0.00  0.00    +0.000 C 
BRANCH  17  19
ATOM     18  C   UNL     1       5.355   3.480  12.708  0.00  0.00    +0.000 C 
ATOM     19  C   UNL     1       6.567   3.953  13.026  0.00  0.00    +0.000 C 
ENDBRANCH  17  19
ENDBRANCH  16  17
ENDBRANCH  14  16
ENDBRANCH   1  14
BRANCH   6  20
ATOM     20  C   UNL     1       1.854   4.828  17.797  0.00  0.00    +0.000 C 
ATOM     21  N   UNL     1       0.816   4.316  17.858  0.00  0.00    +0.000 NA
ENDBRANCH   6  20
BRANCH   5  22
ATOM     22  S   UNL     1       2.042   7.696  18.657  0.00  0.00    +0.000 S 
BRANCH  22  23
ATOM     23  C   UNL     1       2.166   9.218  17.655  0.00  0.00    +0.000 C 
BRANCH  23  24
ATOM     24  C   UNL     1       1.651  10.418  18.434  0.00  0.00    +0.000 C 
ATOM     25  O   UNL     1       0.927  10.263  19.417  0.00  0.00    +0.000 OA
ATOM     26  N   UNL     1       2.018  11.652  17.914  0.00  0.00    +0.000 N 
ATOM     27  H   UNL     1       2.406  11.685  16.977  0.00  0.00    +0.000 HD
BRANCH  26  28
ATOM     28  C   UNL     1       1.625  12.891  18.486  0.00  0.00    +0.000 A 
ATOM     29  C   UNL     1       0.316  13.371  18.394  0.00  0.00    +0.000 A 
ATOM     30  C   UNL     1      -0.023  14.639  18.859  0.00  0.00    +0.000 A 
ATOM     31  C   UNL     1       0.936  15.457  19.456  0.00  0.00    +0.000 A 
ATOM     32  C   UNL     1       0.535  16.834  19.897  0.00  0.00    +0.000 C 
ATOM     33  C   UNL     1       2.238  14.954  19.605  0.00  0.00    +0.000 A 
ATOM     34 CL   UNL     1       3.482  15.907  20.334  0.00  0.00    +0.000 Cl
ATOM     35  C   UNL     1       2.579  13.673  19.139  0.00  0.00    +0.000 A 
ENDBRANCH  26  28
ENDBRANCH  23  24
ENDBRANCH  22  23
ENDBRANCH   5  22
TORSDOF 10
ENDMDL
