MODEL 1
REMARK VINA RESULT:      -8.4      0.000      0.000
REMARK  Name = 
REMARK  11 active torsions:
REMARK  status: ('A' for Active; 'I' for Inactive)
REMARK    1  A    between atoms: C_1  and  C_2
REMARK    2  A    between atoms: C_2  and  C_3
REMARK    3  A    between atoms: C_2  and  N_4
REMARK    4  A    between atoms: C_5  and  C_7
REMARK    5  A    between atoms: C_11  and  C_12
REMARK    6  A    between atoms: N_14  and  C_15
REMARK    7  A    between atoms: C_17  and  C_18
REMARK    8  A    between atoms: N_20  and  C_21
REMARK    9  A    between atoms: C_21  and  C_22
REMARK   10  A    between atoms: C_21  and  C_23
REMARK   11  A    between atoms: C_26  and  O_27
REMARK                            x       y       z     vdW  Elec       q    Type
REMARK                         _______ _______ _______ _____ _____    ______ ____
ROOT
ATOM      1  C   UNL     1       2.549   7.379  18.911  0.00  0.00    +0.000 A 
ATOM      2  C   UNL     1       3.571   7.266  18.023  0.00  0.00    +0.000 A 
ATOM      3  N   UNL     1       4.166   6.083  18.280  0.00  0.00    +0.000 N 
ATOM      4  N   UNL     1       3.509   5.508  19.270  0.00  0.00    +0.000 NA
ATOM      5  N   UNL     1       2.520   6.263  19.684  0.00  0.00    +0.000 NA
ENDROOT
BRANCH   1  10
ATOM      6  C   UNL     1       0.321   9.989  20.399  0.00  0.00    +0.000 A 
ATOM      7  C   UNL     1      -0.260  10.541  19.242  0.00  0.00    +0.000 A 
ATOM      8  C   UNL     1       0.129  10.094  17.984  0.00  0.00    +0.000 A 
ATOM      9  C   UNL     1       1.069   9.075  17.868  0.00  0.00    +0.000 A 
ATOM     10  C   UNL     1       1.621   8.491  19.023  0.00  0.00    +0.000 A 
ATOM     11  C   UNL     1       1.260   8.966  20.277  0.00  0.00    +0.000 A 
BRANCH   6  13
ATOM     12  N   UNL     1      -0.880  11.641  21.818  0.00  0.00    +0.000 N 
ATOM     13  C   UNL     1      -0.050  10.490  21.721  0.00  0.00    +0.000 C 
ATOM     14  N   UNL     1       0.413   9.870  22.761  0.00  0.00    +0.000 NA
ATOM     15  H   UNL     1      -1.253  12.040  20.934  0.00  0.00    +0.000 HD
ATOM     16  H   UNL     1       0.260  10.141  23.734  0.00  0.00    +0.000 HD
BRANCH  12  18
ATOM     17  C   UNL     1      -0.975  13.782  22.956  0.00  0.00    +0.000 C 
ATOM     18  C   UNL     1      -1.308  12.285  23.040  0.00  0.00    +0.000 C 
ATOM     19  C   UNL     1      -2.811  12.043  23.284  0.00  0.00    +0.000 C 
ENDBRANCH  12  18
ENDBRANCH   6  13
ENDBRANCH   1  10
BRANCH   3  20
ATOM     20  C   UNL     1       5.313   5.547  17.627  0.00  0.00    +0.000 A 
ATOM     21  C   UNL     1       5.349   5.469  16.235  0.00  0.00    +0.000 A 
ATOM     22  C   UNL     1       6.442   4.922  15.541  0.00  0.00    +0.000 A 
ATOM     23  C   UNL     1       7.533   4.468  16.317  0.00  0.00    +0.000 A 
ATOM     24  C   UNL     1       7.510   4.542  17.712  0.00  0.00    +0.000 A 
ATOM     25  C   UNL     1       6.402   5.070  18.376  0.00  0.00    +0.000 A 
BRANCH  22  26
ATOM     26  C   UNL     1       6.434   4.833  14.031  0.00  0.00    +0.000 C 
ATOM     27  N   UNL     1       7.370   5.365  13.316  0.00  0.00    +0.000 NA
ATOM     28  N   UNL     1       5.372   4.165  13.343  0.00  0.00    +0.000 N 
ATOM     29  H   UNL     1       8.172   5.899  13.667  0.00  0.00    +0.000 HD
ATOM     30  H   UNL     1       4.426   4.154  13.752  0.00  0.00    +0.000 HD
BRANCH  28  31
ATOM     31  C   UNL     1       5.563   3.508  12.056  0.00  0.00    +0.000 C 
ATOM     32  C   UNL     1       6.314   2.174  12.233  0.00  0.00    +0.000 C 
ATOM     33  C   UNL     1       4.214   3.246  11.390  0.00  0.00    +0.000 C 
ENDBRANCH  28  31
ENDBRANCH  22  26
BRANCH  25  34
ATOM     34  O   UNL     1       6.365   5.102  19.722  0.00  0.00    +0.000 OA
ATOM     35  H   UNL     1       6.251   4.305  20.260  0.00  0.00    +0.000 HD
ENDBRANCH  25  34
ENDBRANCH   3  20
TORSDOF 7
ENDMDL
MODEL 2
REMARK VINA RESULT:      -8.3      2.677      9.632
REMARK  Name = 
REMARK  11 active torsions:
REMARK  status: ('A' for Active; 'I' for Inactive)
REMARK    1  A    between atoms: C_1  and  C_2
REMARK    2  A    between atoms: C_2  and  C_3
REMARK    3  A    between atoms: C_2  and  N_4
REMARK    4  A    between atoms: C_5  and  C_7
REMARK    5  A    between atoms: C_11  and  C_12
REMARK    6  A    between atoms: N_14  and  C_15
REMARK    7  A    between atoms: C_17  and  C_18
REMARK    8  A    between atoms: N_20  and  C_21
REMARK    9  A    between atoms: C_21  and  C_22
REMARK   10  A    between atoms: C_21  and  C_23
REMARK   11  A    between atoms: C_26  and  O_27
REMARK                            x       y       z     vdW  Elec       q    Type
REMARK                         _______ _______ _______ _____ _____    ______ ____
ROOT
ATOM      1  C   UNL     1       2.369   6.411  19.687  0.00  0.00    +0.000 A 
ATOM      2  C   UNL     1       2.126   7.715  19.388  0.00  0.00    +0.000 A 
ATOM      3  N   UNL     1       1.269   8.164  20.328  0.00  0.00    +0.000 N 
ATOM      4  N   UNL     1       1.029   7.171  21.163  0.00  0.00    +0.000 NA
ATOM      5  N   UNL     1       1.676   6.087  20.809  0.00  0.00    +0.000 NA
ENDROOT
BRANCH   1  10
ATOM      6  C   UNL     1       4.541   5.003  16.987  0.00  0.00    +0.000 A 
ATOM      7  C   UNL     1       4.782   3.708  17.482  0.00  0.00    +0.000 A 
ATOM      8  C   UNL     1       4.281   3.330  18.723  0.00  0.00    +0.000 A 
ATOM      9  C   UNL     1       3.511   4.221  19.462  0.00  0.00    +0.000 A 
ATOM     10  C   UNL     1       3.232   5.503  18.952  0.00  0.00    +0.000 A 
ATOM     11  C   UNL     1       3.766   5.891  17.731  0.00  0.00    +0.000 A 
BRANCH   6  13
ATOM     12  N   UNL     1       5.533   4.427  14.781  0.00  0.00    +0.000 N 
ATOM     13  C   UNL     1       5.107   5.420  15.705  0.00  0.00    +0.000 C 
ATOM     14  N   UNL     1       5.215   6.690  15.470  0.00  0.00    +0.000 NA
ATOM     15  H   UNL     1       5.356   3.433  15.027  0.00  0.00    +0.000 HD
ATOM     16  H   UNL     1       5.626   7.109  14.633  0.00  0.00    +0.000 HD
BRANCH  12  18
ATOM     17  C   UNL     1       7.624   5.024  13.703  0.00  0.00    +0.000 C 
ATOM     18  C   UNL     1       6.144   4.666  13.492  0.00  0.00    +0.000 C 
ATOM     19  C   UNL     1       5.975   3.439  12.575  0.00  0.00    +0.000 C 
ENDBRANCH  12  18
ENDBRANCH   6  13
ENDBRANCH   1  10
BRANCH   3  20
ATOM     20  C   UNL     1       0.697   9.467  20.404  0.00  0.00    +0.000 A 
ATOM     21  C   UNL     1      -0.047   9.964  19.335  0.00  0.00    +0.000 A 
ATOM     22  C   UNL     1      -0.608  11.252  19.344  0.00  0.00    +0.000 A 
ATOM     23  C   UNL     1      -0.407  12.032  20.506  0.00  0.00    +0.000 A 
ATOM     24  C   UNL     1       0.336  11.545  21.585  0.00  0.00    +0.000 A 
ATOM     25  C   UNL     1       0.900  10.270  21.540  0.00  0.00    +0.000 A 
BRANCH  22  26
ATOM     26  C   UNL     1      -1.389  11.765  18.155  0.00  0.00    +0.000 C 
ATOM     27  N   UNL     1      -0.928  12.704  17.395  0.00  0.00    +0.000 NA
ATOM     28  N   UNL     1      -2.681  11.235  17.843  0.00  0.00    +0.000 N 
ATOM     29  H   UNL     1      -0.037  13.198  17.514  0.00  0.00    +0.000 HD
ATOM     30  H   UNL     1      -3.285  10.884  18.602  0.00  0.00    +0.000 HD
BRANCH  28  31
ATOM     31  C   UNL     1      -3.202  11.189  16.483  0.00  0.00    +0.000 C 
ATOM     32  C   UNL     1      -2.807   9.866  15.795  0.00  0.00    +0.000 C 
ATOM     33  C   UNL     1      -4.724  11.320  16.494  0.00  0.00    +0.000 C 
ENDBRANCH  28  31
ENDBRANCH  22  26
BRANCH  25  34
ATOM     34  O   UNL     1       1.650   9.818  22.563  0.00  0.00    +0.000 OA
ATOM     35  H   UNL     1       1.852   8.880  22.689  0.00  0.00    +0.000 HD
ENDBRANCH  25  34
ENDBRANCH   3  20
TORSDOF 7
ENDMDL
MODEL 3
REMARK VINA RESULT:      -8.2      4.302     11.607
REMARK  Name = 
REMARK  11 active torsions:
REMARK  status: ('A' for Active; 'I' for Inactive)
REMARK    1  A    between atoms: C_1  and  C_2
REMARK    2  A    between atoms: C_2  and  C_3
REMARK    3  A    between atoms: C_2  and  N_4
REMARK    4  A    between atoms: C_5  and  C_7
REMARK    5  A    between atoms: C_11  and  C_12
REMARK    6  A    between atoms: N_14  and  C_15
REMARK    7  A    between atoms: C_17  and  C_18
REMARK    8  A    between atoms: N_20  and  C_21
REMARK    9  A    between atoms: C_21  and  C_22
REMARK   10  A    between atoms: C_21  and  C_23
REMARK   11  A    between atoms: C_26  and  O_27
REMARK                            x       y       z     vdW  Elec       q    Type
REMARK                         _______ _______ _______ _____ _____    ______ ____
ROOT
ATOM      1  C   UNL     1       0.905   9.340  21.184  0.00  0.00    +0.000 A 
ATOM      2  C   UNL     1       0.170  10.477  21.060  0.00  0.00    +0.000 A 
ATOM      3  N   UNL     1      -0.135  10.869  22.314  0.00  0.00    +0.000 N 
ATOM      4  N   UNL     1       0.415  10.008  23.151  0.00  0.00    +0.000 NA
ATOM      5  N   UNL     1       1.054   9.063  22.505  0.00  0.00    +0.000 NA
ENDROOT
BRANCH   1  10
ATOM      6  C   UNL     1       2.416   6.475  19.314  0.00  0.00    +0.000 A 
ATOM      7  C   UNL     1       2.645   7.064  18.057  0.00  0.00    +0.000 A 
ATOM      8  C   UNL     1       2.248   8.375  17.816  0.00  0.00    +0.000 A 
ATOM      9  C   UNL     1       1.653   9.118  18.830  0.00  0.00    +0.000 A 
ATOM     10  C   UNL     1       1.460   8.547  20.102  0.00  0.00    +0.000 A 
ATOM     11  C   UNL     1       1.822   7.226  20.328  0.00  0.00    +0.000 A 
BRANCH   6  13
ATOM     12  N   UNL     1       1.765   4.123  19.794  0.00  0.00    +0.000 N 
ATOM     13  C   UNL     1       2.788   5.082  19.556  0.00  0.00    +0.000 C 
ATOM     14  N   UNL     1       4.048   4.779  19.561  0.00  0.00    +0.000 NA
ATOM     15  H   UNL     1       0.779   4.442  19.714  0.00  0.00    +0.000 HD
ATOM     16  H   UNL     1       4.439   3.855  19.755  0.00  0.00    +0.000 HD
BRANCH  12  18
ATOM     17  C   UNL     1       2.819   2.097  18.973  0.00  0.00    +0.000 C 
ATOM     18  C   UNL     1       1.961   2.720  20.085  0.00  0.00    +0.000 C 
ATOM     19  C   UNL     1       2.600   2.538  21.475  0.00  0.00    +0.000 C 
ENDBRANCH  12  18
ENDBRANCH   6  13
ENDBRANCH   1  10
BRANCH   3  20
ATOM     20  C   UNL     1      -0.929  11.992  22.685  0.00  0.00    +0.000 A 
ATOM     21  C   UNL     1      -2.178  11.798  23.272  0.00  0.00    +0.000 A 
ATOM     22  C   UNL     1      -3.015  12.869  23.629  0.00  0.00    +0.000 A 
ATOM     23  C   UNL     1      -2.525  14.174  23.390  0.00  0.00    +0.000 A 
ATOM     24  C   UNL     1      -1.274  14.381  22.803  0.00  0.00    +0.000 A 
ATOM     25  C   UNL     1      -0.474  13.299  22.439  0.00  0.00    +0.000 A 
BRANCH  22  26
ATOM     26  C   UNL     1      -4.375  12.619  24.242  0.00  0.00    +0.000 C 
ATOM     27  N   UNL     1      -4.536  12.537  25.521  0.00  0.00    +0.000 NA
ATOM     28  N   UNL     1      -5.530  12.446  23.415  0.00  0.00    +0.000 N 
ATOM     29  H   UNL     1      -3.800  12.607  26.232  0.00  0.00    +0.000 HD
ATOM     30  H   UNL     1      -5.428  12.033  22.476  0.00  0.00    +0.000 HD
BRANCH  28  31
ATOM     31  C   UNL     1      -6.871  12.812  23.855  0.00  0.00    +0.000 C 
ATOM     32  C   UNL     1      -7.131  14.312  23.611  0.00  0.00    +0.000 C 
ATOM     33  C   UNL     1      -7.917  11.988  23.108  0.00  0.00    +0.000 C 
ENDBRANCH  28  31
ENDBRANCH  22  26
BRANCH  25  34
ATOM     34  O   UNL     1       0.714  13.501  21.836  0.00  0.00    +0.000 OA
ATOM     35  H   UNL     1       1.550  13.520  22.323  0.00  0.00    +0.000 HD
ENDBRANCH  25  34
ENDBRANCH   3  20
TORSDOF 7
ENDMDL
MODEL 4
REMARK VINA RESULT:      -8.2      3.402      9.762
REMARK  Name = 
REMARK  11 active torsions:
REMARK  status: ('A' for Active; 'I' for Inactive)
REMARK    1  A    between atoms: C_1  and  C_2
REMARK    2  A    between atoms: C_2  and  C_3
REMARK    3  A    between atoms: C_2  and  N_4
REMARK    4  A    between atoms: C_5  and  C_7
REMARK    5  A    between atoms: C_11  and  C_12
REMARK    6  A    between atoms: N_14  and  C_15
REMARK    7  A    between atoms: C_17  and  C_18
REMARK    8  A    between atoms: N_20  and  C_21
REMARK    9  A    between atoms: C_21  and  C_22
REMARK   10  A    between atoms: C_21  and  C_23
REMARK   11  A    between atoms: C_26  and  O_27
REMARK                            x       y       z     vdW  Elec       q    Type
REMARK                         _______ _______ _______ _____ _____    ______ ____
ROOT
ATOM      1  C   UNL     1       1.656   7.511  20.498  0.00  0.00    +0.000 A 
ATOM      2  C   UNL     1       1.217   8.416  19.584  0.00  0.00    +0.000 A 
ATOM      3  N   UNL     1       0.898   9.529  20.276  0.00  0.00    +0.000 N 
ATOM      4  N   UNL     1       1.157   9.299  21.550  0.00  0.00    +0.000 NA
ATOM      5  N   UNL     1       1.617   8.085  21.728  0.00  0.00    +0.000 NA
ENDROOT
BRANCH   1  10
ATOM      6  C   UNL     1       3.679   4.657  19.174  0.00  0.00    +0.000 A 
ATOM      7  C   UNL     1       2.905   3.559  19.595  0.00  0.00    +0.000 A 
ATOM      8  C   UNL     1       1.761   3.763  20.358  0.00  0.00    +0.000 A 
ATOM      9  C   UNL     1       1.361   5.055  20.681  0.00  0.00    +0.000 A 
ATOM     10  C   UNL     1       2.108   6.158  20.227  0.00  0.00    +0.000 A 
ATOM     11  C   UNL     1       3.271   5.951  19.497  0.00  0.00    +0.000 A 
BRANCH   6  13
ATOM     12  N   UNL     1       4.915   4.724  17.018  0.00  0.00    +0.000 N 
ATOM     13  C   UNL     1       4.908   4.445  18.412  0.00  0.00    +0.000 C 
ATOM     14  N   UNL     1       5.945   3.989  19.041  0.00  0.00    +0.000 NA
ATOM     15  H   UNL     1       4.056   5.142  16.607  0.00  0.00    +0.000 HD
ATOM     16  H   UNL     1       6.848   3.762  18.618  0.00  0.00    +0.000 HD
BRANCH  12  18
ATOM     17  C   UNL     1       5.489   4.394  14.683  0.00  0.00    +0.000 C 
ATOM     18  C   UNL     1       6.029   4.536  16.115  0.00  0.00    +0.000 C 
ATOM     19  C   UNL     1       7.031   5.700  16.238  0.00  0.00    +0.000 C 
ENDBRANCH  12  18
ENDBRANCH   6  13
ENDBRANCH   1  10
BRANCH   3  20
ATOM     20  C   UNL     1       0.354  10.734  19.746  0.00  0.00    +0.000 A 
ATOM     21  C   UNL     1      -0.748  10.684  18.894  0.00  0.00    +0.000 A 
ATOM     22  C   UNL     1      -1.305  11.839  18.318  0.00  0.00    +0.000 A 
ATOM     23  C   UNL     1      -0.713  13.077  18.659  0.00  0.00    +0.000 A 
ATOM     24  C   UNL     1       0.392  13.139  19.513  0.00  0.00    +0.000 A 
ATOM     25  C   UNL     1       0.938  11.975  20.053  0.00  0.00    +0.000 A 
BRANCH  22  26
ATOM     26  C   UNL     1      -2.487  11.743  17.379  0.00  0.00    +0.000 C 
ATOM     27  N   UNL     1      -2.362  11.283  16.178  0.00  0.00    +0.000 NA
ATOM     28  N   UNL     1      -3.787  12.180  17.790  0.00  0.00    +0.000 N 
ATOM     29  H   UNL     1      -1.492  10.965  15.737  0.00  0.00    +0.000 HD
ATOM     30  H   UNL     1      -3.874  12.948  18.473  0.00  0.00    +0.000 HD
BRANCH  28  31
ATOM     31  C   UNL     1      -5.013  11.595  17.263  0.00  0.00    +0.000 C 
ATOM     32  C   UNL     1      -5.614  10.594  18.270  0.00  0.00    +0.000 C 
ATOM     33  C   UNL     1      -6.035  12.690  16.964  0.00  0.00    +0.000 C 
ENDBRANCH  28  31
ENDBRANCH  22  26
BRANCH  25  34
ATOM     34  O   UNL     1       2.028  12.035  20.842  0.00  0.00    +0.000 OA
ATOM     35  H   UNL     1       2.549  11.252  21.073  0.00  0.00    +0.000 HD
ENDBRANCH  25  34
ENDBRANCH   3  20
TORSDOF 7
ENDMDL
MODEL 5
REMARK VINA RESULT:      -8.2      2.949     10.630
REMARK  Name = 
REMARK  11 active torsions:
REMARK  status: ('A' for Active; 'I' for Inactive)
REMARK    1  A    between atoms: C_1  and  C_2
REMARK    2  A    between atoms: C_2  and  C_3
REMARK    3  A    between atoms: C_2  and  N_4
REMARK    4  A    between atoms: C_5  and  C_7
REMARK    5  A    between atoms: C_11  and  C_12
REMARK    6  A    between atoms: N_14  and  C_15
REMARK    7  A    between atoms: C_17  and  C_18
REMARK    8  A    between atoms: N_20  and  C_21
REMARK    9  A    between atoms: C_21  and  C_22
REMARK   10  A    between atoms: C_21  and  C_23
REMARK   11  A    between atoms: C_26  and  O_27
REMARK                            x       y       z     vdW  Elec       q    Type
REMARK                         _______ _______ _______ _____ _____    ______ ____
ROOT
ATOM      1  C   UNL     1       1.986   8.333  18.779  0.00  0.00    +0.000 A 
ATOM      2  C   UNL     1       1.291   9.306  19.426  0.00  0.00    +0.000 A 
ATOM      3  N   UNL     1       1.210  10.345  18.570  0.00  0.00    +0.000 N 
ATOM      4  N   UNL     1       1.817   9.995  17.452  0.00  0.00    +0.000 NA
ATOM      5  N   UNL     1       2.304   8.781  17.538  0.00  0.00    +0.000 NA
ENDROOT
BRANCH   1  10
ATOM      6  C   UNL     1       3.636   4.998  19.159  0.00  0.00    +0.000 A 
ATOM      7  C   UNL     1       2.901   4.453  20.228  0.00  0.00    +0.000 A 
ATOM      8  C   UNL     1       1.913   5.206  20.852  0.00  0.00    +0.000 A 
ATOM      9  C   UNL     1       1.627   6.490  20.399  0.00  0.00    +0.000 A 
ATOM     10  C   UNL     1       2.330   7.023  19.303  0.00  0.00    +0.000 A 
ATOM     11  C   UNL     1       3.342   6.284  18.706  0.00  0.00    +0.000 A 
BRANCH   6  13
ATOM     12  N   UNL     1       5.174   4.611  17.243  0.00  0.00    +0.000 N 
ATOM     13  C   UNL     1       4.708   4.228  18.531  0.00  0.00    +0.000 C 
ATOM     14  N   UNL     1       5.181   3.206  19.173  0.00  0.00    +0.000 NA
ATOM     15  H   UNL     1       4.778   5.477  16.827  0.00  0.00    +0.000 HD
ATOM     16  H   UNL     1       5.901   2.567  18.829  0.00  0.00    +0.000 HD
BRANCH  12  18
ATOM     17  C   UNL     1       5.870   4.097  14.976  0.00  0.00    +0.000 C 
ATOM     18  C   UNL     1       6.195   3.940  16.470  0.00  0.00    +0.000 C 
ATOM     19  C   UNL     1       7.591   4.494  16.816  0.00  0.00    +0.000 C 
ENDBRANCH  12  18
ENDBRANCH   6  13
ENDBRANCH   1  10
BRANCH   3  20
ATOM     20  C   UNL     1       0.605  11.610  18.823  0.00  0.00    +0.000 A 
ATOM     21  C   UNL     1      -0.654  11.673  19.419  0.00  0.00    +0.000 A 
ATOM     22  C   UNL     1      -1.310  12.891  19.663  0.00  0.00    +0.000 A 
ATOM     23  C   UNL     1      -0.626  14.073  19.298  0.00  0.00    +0.000 A 
ATOM     24  C   UNL     1       0.636  14.024  18.700  0.00  0.00    +0.000 A 
ATOM     25  C   UNL     1       1.255  12.799  18.450  0.00  0.00    +0.000 A 
BRANCH  22  26
ATOM     26  C   UNL     1      -2.686  12.918  20.291  0.00  0.00    +0.000 C 
ATOM     27  N   UNL     1      -3.744  12.609  19.616  0.00  0.00    +0.000 NA
ATOM     28  N   UNL     1      -2.860  13.307  21.657  0.00  0.00    +0.000 N 
ATOM     29  H   UNL     1      -3.777  12.344  18.626  0.00  0.00    +0.000 HD
ATOM     30  H   UNL     1      -2.210  13.985  22.082  0.00  0.00    +0.000 HD
BRANCH  28  31
ATOM     31  C   UNL     1      -3.947  12.798  22.484  0.00  0.00    +0.000 C 
ATOM     32  C   UNL     1      -3.407  12.283  23.834  0.00  0.00    +0.000 C 
ATOM     33  C   UNL     1      -4.979  13.895  22.736  0.00  0.00    +0.000 C 
ENDBRANCH  28  31
ENDBRANCH  22  26
BRANCH  25  34
ATOM     34  O   UNL     1       2.453  12.752  17.836  0.00  0.00    +0.000 OA
ATOM     35  H   UNL     1       2.881  13.538  17.466  0.00  0.00    +0.000 HD
ENDBRANCH  25  34
ENDBRANCH   3  20
TORSDOF 7
ENDMDL
MODEL 6
REMARK VINA RESULT:      -8.1      3.903     11.728
REMARK  Name = 
REMARK  11 active torsions:
REMARK  status: ('A' for Active; 'I' for Inactive)
REMARK    1  A    between atoms: C_1  and  C_2
REMARK    2  A    between atoms: C_2  and  C_3
REMARK    3  A    between atoms: C_2  and  N_4
REMARK    4  A    between atoms: C_5  and  C_7
REMARK    5  A    between atoms: C_11  and  C_12
REMARK    6  A    between atoms: N_14  and  C_15
REMARK    7  A    between atoms: C_17  and  C_18
REMARK    8  A    between atoms: N_20  and  C_21
REMARK    9  A    between atoms: C_21  and  C_22
REMARK   10  A    between atoms: C_21  and  C_23
REMARK   11  A    between atoms: C_26  and  O_27
REMARK                            x       y       z     vdW  Elec       q    Type
REMARK                         _______ _______ _______ _____ _____    ______ ____
ROOT
ATOM      1  C   UNL     1       0.295  10.099  21.308  0.00  0.00    +0.000 A 
ATOM      2  C   UNL     1      -0.513  11.190  21.237  0.00  0.00    +0.000 A 
ATOM      3  N   UNL     1      -0.866  11.482  22.505  0.00  0.00    +0.000 N 
ATOM      4  N   UNL     1      -0.275  10.610  23.300  0.00  0.00    +0.000 NA
ATOM      5  N   UNL     1       0.439   9.751  22.612  0.00  0.00    +0.000 NA
ENDROOT
BRANCH   1  10
ATOM      6  C   UNL     1       1.982   7.443  19.286  0.00  0.00    +0.000 A 
ATOM      7  C   UNL     1       2.241   8.137  18.090  0.00  0.00    +0.000 A 
ATOM      8  C   UNL     1       1.807   9.449  17.936  0.00  0.00    +0.000 A 
ATOM      9  C   UNL     1       1.144  10.089  18.978  0.00  0.00    +0.000 A 
ATOM     10  C   UNL     1       0.921   9.413  20.191  0.00  0.00    +0.000 A 
ATOM     11  C   UNL     1       1.321   8.091  20.329  0.00  0.00    +0.000 A 
BRANCH   6  13
ATOM     12  N   UNL     1       2.129   5.132  18.379  0.00  0.00    +0.000 N 
ATOM     13  C   UNL     1       2.394   6.048  19.434  0.00  0.00    +0.000 C 
ATOM     14  N   UNL     1       2.974   5.697  20.539  0.00  0.00    +0.000 NA
ATOM     15  H   UNL     1       1.712   5.512  17.506  0.00  0.00    +0.000 HD
ATOM     16  H   UNL     1       3.274   4.750  20.780  0.00  0.00    +0.000 HD
BRANCH  12  18
ATOM     17  C   UNL     1       1.137   2.929  18.608  0.00  0.00    +0.000 C 
ATOM     18  C   UNL     1       2.435   3.719  18.378  0.00  0.00    +0.000 C 
ATOM     19  C   UNL     1       3.128   3.315  17.062  0.00  0.00    +0.000 C 
ENDBRANCH  12  18
ENDBRANCH   6  13
ENDBRANCH   1  10
BRANCH   3  20
ATOM     20  C   UNL     1      -1.740  12.525  22.927  0.00  0.00    +0.000 A 
ATOM     21  C   UNL     1      -3.111  12.289  23.022  0.00  0.00    +0.000 A 
ATOM     22  C   UNL     1      -4.021  13.289  23.402  0.00  0.00    +0.000 A 
ATOM     23  C   UNL     1      -3.486  14.560  23.713  0.00  0.00    +0.000 A 
ATOM     24  C   UNL     1      -2.114  14.810  23.622  0.00  0.00    +0.000 A 
ATOM     25  C   UNL     1      -1.236  13.803  23.221  0.00  0.00    +0.000 A 
BRANCH  22  26
ATOM     26  C   UNL     1      -5.505  13.001  23.471  0.00  0.00    +0.000 C 
ATOM     27  N   UNL     1      -6.250  13.506  24.399  0.00  0.00    +0.000 NA
ATOM     28  N   UNL     1      -6.129  12.139  22.514  0.00  0.00    +0.000 N 
ATOM     29  H   UNL     1      -5.939  14.111  25.166  0.00  0.00    +0.000 HD
ATOM     30  H   UNL     1      -5.587  11.370  22.091  0.00  0.00    +0.000 HD
BRANCH  28  31
ATOM     31  C   UNL     1      -7.524  12.285  22.121  0.00  0.00    +0.000 C 
ATOM     32  C   UNL     1      -7.765  13.664  21.474  0.00  0.00    +0.000 C 
ATOM     33  C   UNL     1      -7.914  11.187  21.133  0.00  0.00    +0.000 C 
ENDBRANCH  28  31
ENDBRANCH  22  26
BRANCH  25  34
ATOM     34  O   UNL     1       0.081  14.058  23.094  0.00  0.00    +0.000 OA
ATOM     35  H   UNL     1       0.746  13.356  23.038  0.00  0.00    +0.000 HD
ENDBRANCH  25  34
ENDBRANCH   3  20
TORSDOF 7
ENDMDL
MODEL 7
REMARK VINA RESULT:      -8.1      3.427     10.321
REMARK  Name = 
REMARK  11 active torsions:
REMARK  status: ('A' for Active; 'I' for Inactive)
REMARK    1  A    between atoms: C_1  and  C_2
REMARK    2  A    between atoms: C_2  and  C_3
REMARK    3  A    between atoms: C_2  and  N_4
REMARK    4  A    between atoms: C_5  and  C_7
REMARK    5  A    between atoms: C_11  and  C_12
REMARK    6  A    between atoms: N_14  and  C_15
REMARK    7  A    between atoms: C_17  and  C_18
REMARK    8  A    between atoms: N_20  and  C_21
REMARK    9  A    between atoms: C_21  and  C_22
REMARK   10  A    between atoms: C_21  and  C_23
REMARK   11  A    between atoms: C_26  and  O_27
REMARK                            x       y       z     vdW  Elec       q    Type
REMARK                         _______ _______ _______ _____ _____    ______ ____
ROOT
ATOM      1  C   UNL     1       1.961   8.264  18.810  0.00  0.00    +0.000 A 
ATOM      2  C   UNL     1       1.152   9.128  19.479  0.00  0.00    +0.000 A 
ATOM      3  N   UNL     1       1.044  10.225  18.702  0.00  0.00    +0.000 N 
ATOM      4  N   UNL     1       1.746  10.012  17.604  0.00  0.00    +0.000 NA
ATOM      5  N   UNL     1       2.320   8.834  17.631  0.00  0.00    +0.000 NA
ENDROOT
BRANCH   1  10
ATOM      6  C   UNL     1       3.732   4.973  18.950  0.00  0.00    +0.000 A 
ATOM      7  C   UNL     1       3.072   4.357  20.030  0.00  0.00    +0.000 A 
ATOM      8  C   UNL     1       2.096   5.049  20.739  0.00  0.00    +0.000 A 
ATOM      9  C   UNL     1       1.746   6.340  20.360  0.00  0.00    +0.000 A 
ATOM     10  C   UNL     1       2.373   6.945  19.254  0.00  0.00    +0.000 A 
ATOM     11  C   UNL     1       3.374   6.266  18.572  0.00  0.00    +0.000 A 
BRANCH   6  13
ATOM     12  N   UNL     1       5.052   4.602  16.875  0.00  0.00    +0.000 N 
ATOM     13  C   UNL     1       4.792   4.267  18.233  0.00  0.00    +0.000 C 
ATOM     14  N   UNL     1       5.445   3.343  18.865  0.00  0.00    +0.000 NA
ATOM     15  H   UNL     1       4.519   5.395  16.466  0.00  0.00    +0.000 HD
ATOM     16  H   UNL     1       6.179   2.753  18.467  0.00  0.00    +0.000 HD
BRANCH  12  18
ATOM     17  C   UNL     1       5.627   4.209  14.551  0.00  0.00    +0.000 C 
ATOM     18  C   UNL     1       6.033   3.980  16.015  0.00  0.00    +0.000 C 
ATOM     19  C   UNL     1       7.442   4.528  16.314  0.00  0.00    +0.000 C 
ENDBRANCH  12  18
ENDBRANCH   6  13
ENDBRANCH   1  10
BRANCH   3  20
ATOM     20  C   UNL     1       0.327  11.417  19.008  0.00  0.00    +0.000 A 
ATOM     21  C   UNL     1      -1.047  11.362  19.241  0.00  0.00    +0.000 A 
ATOM     22  C   UNL     1      -1.808  12.511  19.516  0.00  0.00    +0.000 A 
ATOM     23  C   UNL     1      -1.116  13.742  19.573  0.00  0.00    +0.000 A 
ATOM     24  C   UNL     1       0.261  13.810  19.342  0.00  0.00    +0.000 A 
ATOM     25  C   UNL     1       0.988  12.656  19.049  0.00  0.00    +0.000 A 
BRANCH  22  26
ATOM     26  C   UNL     1      -3.301  12.415  19.741  0.00  0.00    +0.000 C 
ATOM     27  N   UNL     1      -3.868  12.958  20.767  0.00  0.00    +0.000 NA
ATOM     28  N   UNL     1      -4.135  11.699  18.824  0.00  0.00    +0.000 N 
ATOM     29  H   UNL     1      -3.397  13.472  21.520  0.00  0.00    +0.000 HD
ATOM     30  H   UNL     1      -3.751  10.892  18.309  0.00  0.00    +0.000 HD
BRANCH  28  31
ATOM     31  C   UNL     1      -5.531  12.048  18.598  0.00  0.00    +0.000 C 
ATOM     32  C   UNL     1      -5.754  12.477  17.133  0.00  0.00    +0.000 C 
ATOM     33  C   UNL     1      -6.434  10.859  18.920  0.00  0.00    +0.000 C 
ENDBRANCH  28  31
ENDBRANCH  22  26
BRANCH  25  34
ATOM     34  O   UNL     1       2.307  12.730  18.786  0.00  0.00    +0.000 OA
ATOM     35  H   UNL     1       2.754  13.564  18.584  0.00  0.00    +0.000 HD
ENDBRANCH  25  34
ENDBRANCH   3  20
TORSDOF 7
ENDMDL
MODEL 8
REMARK VINA RESULT:      -8.1      3.583     10.343
REMARK  Name = 
REMARK  11 active torsions:
REMARK  status: ('A' for Active; 'I' for Inactive)
REMARK    1  A    between atoms: C_1  and  C_2
REMARK    2  A    between atoms: C_2  and  C_3
REMARK    3  A    between atoms: C_2  and  N_4
REMARK    4  A    between atoms: C_5  and  C_7
REMARK    5  A    between atoms: C_11  and  C_12
REMARK    6  A    between atoms: N_14  and  C_15
REMARK    7  A    between atoms: C_17  and  C_18
REMARK    8  A    between atoms: N_20  and  C_21
REMARK    9  A    between atoms: C_21  and  C_22
REMARK   10  A    between atoms: C_21  and  C_23
REMARK   11  A    between atoms: C_26  and  O_27
REMARK                            x       y       z     vdW  Elec       q    Type
REMARK                         _______ _______ _______ _____ _____    ______ ____
ROOT
ATOM      1  C   UNL     1       1.945   8.031  19.102  0.00  0.00    +0.000 A 
ATOM      2  C   UNL     1       0.855   8.605  19.676  0.00  0.00    +0.000 A 
ATOM      3  N   UNL     1       0.722   9.819  19.105  0.00  0.00    +0.000 N 
ATOM      4  N   UNL     1       1.685   9.953  18.212  0.00  0.00    +0.000 NA
ATOM      5  N   UNL     1       2.451   8.890  18.180  0.00  0.00    +0.000 NA
ENDROOT
BRANCH   1  10
ATOM      6  C   UNL     1       4.016   4.925  18.869  0.00  0.00    +0.000 A 
ATOM      7  C   UNL     1       3.441   4.140  19.886  0.00  0.00    +0.000 A 
ATOM      8  C   UNL     1       2.421   4.658  20.676  0.00  0.00    +0.000 A 
ATOM      9  C   UNL     1       1.945   5.944  20.442  0.00  0.00    +0.000 A 
ATOM     10  C   UNL     1       2.488   6.717  19.398  0.00  0.00    +0.000 A 
ATOM     11  C   UNL     1       3.531   6.211  18.635  0.00  0.00    +0.000 A 
BRANCH   6  13
ATOM     12  N   UNL     1       5.143   4.657  16.668  0.00  0.00    +0.000 N 
ATOM     13  C   UNL     1       5.120   4.401  18.067  0.00  0.00    +0.000 C 
ATOM     14  N   UNL     1       6.031   3.701  18.667  0.00  0.00    +0.000 NA
ATOM     15  H   UNL     1       4.402   5.276  16.281  0.00  0.00    +0.000 HD
ATOM     16  H   UNL     1       6.830   3.250  18.216  0.00  0.00    +0.000 HD
BRANCH  12  18
ATOM     17  C   UNL     1       5.497   4.094  14.335  0.00  0.00    +0.000 C 
ATOM     18  C   UNL     1       6.136   4.185  15.730  0.00  0.00    +0.000 C 
ATOM     19  C   UNL     1       7.372   5.105  15.737  0.00  0.00    +0.000 C 
ENDBRANCH  12  18
ENDBRANCH   6  13
ENDBRANCH   1  10
BRANCH   3  20
ATOM     20  C   UNL     1      -0.261  10.803  19.417  0.00  0.00    +0.000 A 
ATOM     21  C   UNL     1      -1.462  10.834  18.711  0.00  0.00    +0.000 A 
ATOM     22  C   UNL     1      -2.452  11.801  18.956  0.00  0.00    +0.000 A 
ATOM     23  C   UNL     1      -2.192  12.742  19.979  0.00  0.00    +0.000 A 
ATOM     24  C   UNL     1      -0.992  12.720  20.694  0.00  0.00    +0.000 A 
ATOM     25  C   UNL     1      -0.017  11.762  20.414  0.00  0.00    +0.000 A 
BRANCH  22  26
ATOM     26  C   UNL     1      -3.734  11.818  18.152  0.00  0.00    +0.000 C 
ATOM     27  N   UNL     1      -3.724  11.790  16.860  0.00  0.00    +0.000 NA
ATOM     28  N   UNL     1      -5.006  11.886  18.805  0.00  0.00    +0.000 N 
ATOM     29  H   UNL     1      -2.893  11.774  16.260  0.00  0.00    +0.000 HD
ATOM     30  H   UNL     1      -5.091  12.372  19.709  0.00  0.00    +0.000 HD
BRANCH  28  31
ATOM     31  C   UNL     1      -6.214  11.308  18.228  0.00  0.00    +0.000 C 
ATOM     32  C   UNL     1      -6.762  10.184  19.130  0.00  0.00    +0.000 C 
ATOM     33  C   UNL     1      -7.283  12.384  18.052  0.00  0.00    +0.000 C 
ENDBRANCH  28  31
ENDBRANCH  22  26
BRANCH  25  34
ATOM     34  O   UNL     1       1.156  11.769  21.077  0.00  0.00    +0.000 OA
ATOM     35  H   UNL     1       1.323  12.343  21.838  0.00  0.00    +0.000 HD
ENDBRANCH  25  34
ENDBRANCH   3  20
TORSDOF 7
ENDMDL
MODEL 9
REMARK VINA RESULT:      -8.0      1.781      2.556
REMARK  Name = 
REMARK  11 active torsions:
REMARK  status: ('A' for Active; 'I' for Inactive)
REMARK    1  A    between atoms: C_1  and  C_2
REMARK    2  A    between atoms: C_2  and  C_3
REMARK    3  A    between atoms: C_2  and  N_4
REMARK    4  A    between atoms: C_5  and  C_7
REMARK    5  A    between atoms: C_11  and  C_12
REMARK    6  A    between atoms: N_14  and  C_15
REMARK    7  A    between atoms: C_17  and  C_18
REMARK    8  A    between atoms: N_20  and  C_21
REMARK    9  A    between atoms: C_21  and  C_22
REMARK   10  A    between atoms: C_21  and  C_23
REMARK   11  A    between atoms: C_26  and  O_27
REMARK                            x       y       z     vdW  Elec       q    Type
REMARK                         _______ _______ _______ _____ _____    ______ ____
ROOT
ATOM      1  C   UNL     1       2.537   6.733  19.265  0.00  0.00    +0.000 A 
ATOM      2  C   UNL     1       3.709   6.855  18.588  0.00  0.00    +0.000 A 
ATOM      3  N   UNL     1       4.093   5.602  18.269  0.00  0.00    +0.000 N 
ATOM      4  N   UNL     1       3.174   4.770  18.722  0.00  0.00    +0.000 NA
ATOM      5  N   UNL     1       2.212   5.416  19.335  0.00  0.00    +0.000 NA
ENDROOT
BRANCH   1  10
ATOM      6  C   UNL     1       0.856  10.053  19.638  0.00  0.00    +0.000 A 
ATOM      7  C   UNL     1       0.321   9.941  20.935  0.00  0.00    +0.000 A 
ATOM      8  C   UNL     1       0.465   8.758  21.650  0.00  0.00    +0.000 A 
ATOM      9  C   UNL     1       1.168   7.692  21.097  0.00  0.00    +0.000 A 
ATOM     10  C   UNL     1       1.741   7.815  19.818  0.00  0.00    +0.000 A 
ATOM     11  C   UNL     1       1.563   8.984  19.090  0.00  0.00    +0.000 A 
BRANCH   6  13
ATOM     12  N   UNL     1       1.501  12.400  19.126  0.00  0.00    +0.000 N 
ATOM     13  C   UNL     1       0.665  11.279  18.864  0.00  0.00    +0.000 C 
ATOM     14  N   UNL     1      -0.278  11.300  17.977  0.00  0.00    +0.000 NA
ATOM     15  H   UNL     1       2.269  12.276  19.815  0.00  0.00    +0.000 HD
ATOM     16  H   UNL     1      -0.537  12.103  17.400  0.00  0.00    +0.000 HD
BRANCH  12  18
ATOM     17  C   UNL     1       0.684  14.667  19.412  0.00  0.00    +0.000 C 
ATOM     18  C   UNL     1       1.422  13.692  18.482  0.00  0.00    +0.000 C 
ATOM     19  C   UNL     1       2.830  14.202  18.115  0.00  0.00    +0.000 C 
ENDBRANCH  12  18
ENDBRANCH   6  13
ENDBRANCH   1  10
BRANCH   3  20
ATOM     20  C   UNL     1       5.287   5.226  17.588  0.00  0.00    +0.000 A 
ATOM     21  C   UNL     1       5.307   5.176  16.195  0.00  0.00    +0.000 A 
ATOM     22  C   UNL     1       6.447   4.783  15.473  0.00  0.00    +0.000 A 
ATOM     23  C   UNL     1       7.601   4.457  16.223  0.00  0.00    +0.000 A 
ATOM     24  C   UNL     1       7.593   4.503  17.620  0.00  0.00    +0.000 A 
ATOM     25  C   UNL     1       6.441   4.877  18.310  0.00  0.00    +0.000 A 
BRANCH  22  26
ATOM     26  C   UNL     1       6.424   4.718  13.962  0.00  0.00    +0.000 C 
ATOM     27  N   UNL     1       7.361   5.248  13.247  0.00  0.00    +0.000 NA
ATOM     28  N   UNL     1       5.344   4.078  13.273  0.00  0.00    +0.000 N 
ATOM     29  H   UNL     1       8.175   5.763  13.598  0.00  0.00    +0.000 HD
ATOM     30  H   UNL     1       4.402   4.075  13.692  0.00  0.00    +0.000 HD
BRANCH  28  31
ATOM     31  C   UNL     1       5.513   3.440  11.974  0.00  0.00    +0.000 C 
ATOM     32  C   UNL     1       6.212   2.074  12.127  0.00  0.00    +0.000 C 
ATOM     33  C   UNL     1       4.156   3.243  11.301  0.00  0.00    +0.000 C 
ENDBRANCH  28  31
ENDBRANCH  22  26
BRANCH  25  34
ATOM     34  O   UNL     1       6.423   4.881  19.658  0.00  0.00    +0.000 OA
ATOM     35  H   UNL     1       7.215   5.046  20.189  0.00  0.00    +0.000 HD
ENDBRANCH  25  34
ENDBRANCH   3  20
TORSDOF 7
ENDMDL
