MODEL 1
REMARK VINA RESULT:      -7.6      0.000      0.000
REMARK  Name = 
REMARK  5 active torsions:
REMARK  status: ('A' for Active; 'I' for Inactive)
REMARK    1  A    between atoms: C_1  and  O_2
REMARK    2  A    between atoms: O_2  and  C_3
REMARK    3  A    between atoms: C_6  and  N_7
REMARK    4  A    between atoms: C_13  and  C_14
REMARK    5  A    between atoms: N_16  and  C_17
REMARK                            x       y       z     vdW  Elec       q    Type
REMARK                         _______ _______ _______ _____ _____    ______ ____
ROOT
ATOM      1  N   UNL     1       4.694   5.347  17.888  0.00  0.00    +0.000 N 
ATOM      2  C   UNL     1       4.941   4.511  19.037  0.00  0.00    +0.000 C 
ATOM      3  C   UNL     1       3.655   4.614  19.762  0.00  0.00    +0.000 A 
ATOM      4  C   UNL     1       2.987   3.557  20.360  0.00  0.00    +0.000 A 
ATOM      5  C   UNL     1       1.671   3.755  20.733  0.00  0.00    +0.000 A 
ATOM      6  C   UNL     1       1.115   5.037  20.631  0.00  0.00    +0.000 A 
ATOM      7  C   UNL     1       1.839   6.152  20.121  0.00  0.00    +0.000 A 
ATOM      8  C   UNL     1       3.064   5.857  19.529  0.00  0.00    +0.000 A 
ATOM      9  C   UNL     1       3.611   6.226  18.160  0.00  0.00    +0.000 C 
ATOM     10  O   UNL     1       3.099   7.069  17.448  0.00  0.00    +0.000 OA
ENDROOT
BRANCH   1  14
ATOM     11  C   UNL     1       6.685   4.542  14.180  0.00  0.00    +0.000 A 
ATOM     12  C   UNL     1       7.369   5.190  15.216  0.00  0.00    +0.000 A 
ATOM     13  C   UNL     1       6.754   5.448  16.468  0.00  0.00    +0.000 A 
ATOM     14  C   UNL     1       5.428   5.078  16.688  0.00  0.00    +0.000 A 
ATOM     15  C   UNL     1       4.756   4.452  15.612  0.00  0.00    +0.000 A 
ATOM     16  C   UNL     1       5.362   4.196  14.379  0.00  0.00    +0.000 A 
BRANCH  11  18
ATOM     17  C   UNL     1       6.689   3.544  12.031  0.00  0.00    +0.000 C 
ATOM     18  O   UNL     1       7.376   4.315  13.018  0.00  0.00    +0.000 OA
ENDBRANCH  11  18
ENDBRANCH   1  14
BRANCH   7  19
ATOM     19  C   UNL     1       1.464   7.425  20.846  0.00  0.00    +0.000 C 
ATOM     20  O   UNL     1       2.393   8.192  21.113  0.00  0.00    +0.000 OA
ATOM     21  N   UNL     1       0.142   7.751  21.125  0.00  0.00    +0.000 N 
ATOM     22  H   UNL     1      -0.523   6.992  21.222  0.00  0.00    +0.000 HD
BRANCH  21  23
ATOM     23  C   UNL     1      -0.262   9.063  21.544  0.00  0.00    +0.000 A 
ATOM     24  C   UNL     1      -0.554   9.387  22.882  0.00  0.00    +0.000 A 
ATOM     25  C   UNL     1      -0.979  10.667  23.259  0.00  0.00    +0.000 A 
ATOM     26  C   UNL     1      -1.108  11.657  22.294  0.00  0.00    +0.000 A 
ATOM     27 CL   UNL     1      -1.643  13.228  22.747  0.00  0.00    +0.000 Cl
ATOM     28  C   UNL     1      -0.805  11.369  20.966  0.00  0.00    +0.000 A 
ATOM     29  C   UNL     1      -0.371  10.081  20.594  0.00  0.00    +0.000 A 
ENDBRANCH  21  23
ENDBRANCH   7  19
TORSDOF 4
ENDMDL
MODEL 2
REMARK VINA RESULT:      -7.5      4.457      9.958
REMARK  Name = 
REMARK  5 active torsions:
REMARK  status: ('A' for Active; 'I' for Inactive)
REMARK    1  A    between atoms: C_1  and  O_2
REMARK    2  A    between atoms: O_2  and  C_3
REMARK    3  A    between atoms: C_6  and  N_7
REMARK    4  A    between atoms: C_13  and  C_14
REMARK    5  A    between atoms: N_16  and  C_17
REMARK                            x       y       z     vdW  Elec       q    Type
REMARK                         _______ _______ _______ _____ _____    ______ ____
ROOT
ATOM      1  N   UNL     1      -0.236  12.134  19.263  0.00  0.00    +0.000 N 
ATOM      2  C   UNL     1      -1.234  11.208  19.740  0.00  0.00    +0.000 C 
ATOM      3  C   UNL     1      -0.403  10.041  20.109  0.00  0.00    +0.000 A 
ATOM      4  C   UNL     1      -0.558   9.280  21.258  0.00  0.00    +0.000 A 
ATOM      5  C   UNL     1       0.468   8.421  21.604  0.00  0.00    +0.000 A 
ATOM      6  C   UNL     1       1.541   8.242  20.721  0.00  0.00    +0.000 A 
ATOM      7  C   UNL     1       1.644   8.941  19.484  0.00  0.00    +0.000 A 
ATOM      8  C   UNL     1       0.728   9.971  19.294  0.00  0.00    +0.000 A 
ATOM      9  C   UNL     1       0.947  11.426  18.916  0.00  0.00    +0.000 C 
ATOM     10  O   UNL     1       2.005  11.847  18.488  0.00  0.00    +0.000 OA
ENDROOT
BRANCH   1  14
ATOM     11  C   UNL     1      -1.133  16.296  19.744  0.00  0.00    +0.000 A 
ATOM     12  C   UNL     1      -0.278  15.878  18.716  0.00  0.00    +0.000 A 
ATOM     13  C   UNL     1       0.019  14.507  18.506  0.00  0.00    +0.000 A 
ATOM     14  C   UNL     1      -0.520  13.535  19.347  0.00  0.00    +0.000 A 
ATOM     15  C   UNL     1      -1.355  13.992  20.393  0.00  0.00    +0.000 A 
ATOM     16  C   UNL     1      -1.652  15.343  20.600  0.00  0.00    +0.000 A 
BRANCH  11  18
ATOM     17  C   UNL     1      -1.481  18.347  18.609  0.00  0.00    +0.000 C 
ATOM     18  O   UNL     1      -1.379  17.641  19.847  0.00  0.00    +0.000 OA
ENDBRANCH  11  18
ENDBRANCH   1  14
BRANCH   7  19
ATOM     19  C   UNL     1       2.265   8.069  18.416  0.00  0.00    +0.000 C 
ATOM     20  O   UNL     1       2.274   8.533  17.273  0.00  0.00    +0.000 OA
ATOM     21  N   UNL     1       2.866   6.852  18.716  0.00  0.00    +0.000 N 
ATOM     22  H   UNL     1       2.545   6.356  19.539  0.00  0.00    +0.000 HD
BRANCH  21  23
ATOM     23  C   UNL     1       3.706   6.152  17.788  0.00  0.00    +0.000 A 
ATOM     24  C   UNL     1       4.768   6.764  17.097  0.00  0.00    +0.000 A 
ATOM     25  C   UNL     1       5.552   6.065  16.170  0.00  0.00    +0.000 A 
ATOM     26  C   UNL     1       5.290   4.724  15.926  0.00  0.00    +0.000 A 
ATOM     27 CL   UNL     1       6.238   3.862  14.779  0.00  0.00    +0.000 Cl
ATOM     28  C   UNL     1       4.259   4.087  16.612  0.00  0.00    +0.000 A 
ATOM     29  C   UNL     1       3.478   4.794  17.549  0.00  0.00    +0.000 A 
ENDBRANCH  21  23
ENDBRANCH   7  19
TORSDOF 4
ENDMDL
MODEL 3
REMARK VINA RESULT:      -7.4      3.249      5.869
REMARK  Name = 
REMARK  5 active torsions:
REMARK  status: ('A' for Active; 'I' for Inactive)
REMARK    1  A    between atoms: C_1  and  O_2
REMARK    2  A    between atoms: O_2  and  C_3
REMARK    3  A    between atoms: C_6  and  N_7
REMARK    4  A    between atoms: C_13  and  C_14
REMARK    5  A    between atoms: N_16  and  C_17
REMARK                            x       y       z     vdW  Elec       q    Type
REMARK                         _______ _______ _______ _____ _____    ______ ____
ROOT
ATOM      1  N   UNL     1       1.474   8.765  19.510  0.00  0.00    +0.000 N 
ATOM      2  C   UNL     1       1.276   9.615  18.363  0.00  0.00    +0.000 C 
ATOM      3  C   UNL     1       1.256  10.956  18.987  0.00  0.00    +0.000 A 
ATOM      4  C   UNL     1       1.893  12.081  18.484  0.00  0.00    +0.000 A 
ATOM      5  C   UNL     1       2.029  13.172  19.322  0.00  0.00    +0.000 A 
ATOM      6  C   UNL     1       1.401  13.157  20.575  0.00  0.00    +0.000 A 
ATOM      7  C   UNL     1       0.650  12.043  21.046  0.00  0.00    +0.000 A 
ATOM      8  C   UNL     1       0.747  10.882  20.284  0.00  0.00    +0.000 A 
ATOM      9  C   UNL     1       1.104   9.463  20.693  0.00  0.00    +0.000 C 
ATOM     10  O   UNL     1       1.135   9.096  21.851  0.00  0.00    +0.000 OA
ENDROOT
BRANCH   1  14
ATOM     11  C   UNL     1       3.531   5.077  18.782  0.00  0.00    +0.000 A 
ATOM     12  C   UNL     1       2.721   5.215  19.917  0.00  0.00    +0.000 A 
ATOM     13  C   UNL     1       2.001   6.409  20.177  0.00  0.00    +0.000 A 
ATOM     14  C   UNL     1       2.106   7.495  19.309  0.00  0.00    +0.000 A 
ATOM     15  C   UNL     1       2.955   7.334  18.190  0.00  0.00    +0.000 A 
ATOM     16  C   UNL     1       3.663   6.157  17.931  0.00  0.00    +0.000 A 
BRANCH  11  18
ATOM     17  C   UNL     1       3.378   2.844  18.004  0.00  0.00    +0.000 C 
ATOM     18  O   UNL     1       4.164   3.874  18.607  0.00  0.00    +0.000 OA
ENDBRANCH  11  18
ENDBRANCH   1  14
BRANCH   7  19
ATOM     19  C   UNL     1      -0.539  12.493  21.865  0.00  0.00    +0.000 C 
ATOM     20  O   UNL     1      -0.448  13.607  22.388  0.00  0.00    +0.000 OA
ATOM     21  N   UNL     1      -1.699  11.734  21.958  0.00  0.00    +0.000 N 
ATOM     22  H   UNL     1      -1.620  10.730  21.837  0.00  0.00    +0.000 HD
BRANCH  21  23
ATOM     23  C   UNL     1      -2.930  12.257  22.479  0.00  0.00    +0.000 A 
ATOM     24  C   UNL     1      -3.261  12.227  23.846  0.00  0.00    +0.000 A 
ATOM     25  C   UNL     1      -4.484  12.714  24.324  0.00  0.00    +0.000 A 
ATOM     26  C   UNL     1      -5.400  13.256  23.432  0.00  0.00    +0.000 A 
ATOM     27 CL   UNL     1      -6.910  13.843  24.009  0.00  0.00    +0.000 Cl
ATOM     28  C   UNL     1      -5.089  13.317  22.077  0.00  0.00    +0.000 A 
ATOM     29  C   UNL     1      -3.853  12.832  21.603  0.00  0.00    +0.000 A 
ENDBRANCH  21  23
ENDBRANCH   7  19
TORSDOF 4
ENDMDL
MODEL 4
REMARK VINA RESULT:      -7.4      3.199      5.562
REMARK  Name = 
REMARK  5 active torsions:
REMARK  status: ('A' for Active; 'I' for Inactive)
REMARK    1  A    between atoms: C_1  and  O_2
REMARK    2  A    between atoms: O_2  and  C_3
REMARK    3  A    between atoms: C_6  and  N_7
REMARK    4  A    between atoms: C_13  and  C_14
REMARK    5  A    between atoms: N_16  and  C_17
REMARK                            x       y       z     vdW  Elec       q    Type
REMARK                         _______ _______ _______ _____ _____    ______ ____
ROOT
ATOM      1  N   UNL     1       1.886   8.146  19.046  0.00  0.00    +0.000 N 
ATOM      2  C   UNL     1       1.941   8.883  17.808  0.00  0.00    +0.000 C 
ATOM      3  C   UNL     1       1.693  10.265  18.274  0.00  0.00    +0.000 A 
ATOM      4  C   UNL     1       2.375  11.391  17.838  0.00  0.00    +0.000 A 
ATOM      5  C   UNL     1       2.236  12.553  18.573  0.00  0.00    +0.000 A 
ATOM      6  C   UNL     1       1.311  12.592  19.626  0.00  0.00    +0.000 A 
ATOM      7  C   UNL     1       0.526  11.466  20.002  0.00  0.00    +0.000 A 
ATOM      8  C   UNL     1       0.875  10.258  19.405  0.00  0.00    +0.000 A 
ATOM      9  C   UNL     1       1.191   8.907  20.026  0.00  0.00    +0.000 C 
ATOM     10  O   UNL     1       0.946   8.639  21.186  0.00  0.00    +0.000 OA
ENDROOT
BRANCH   1  14
ATOM     11  C   UNL     1       4.251   4.577  19.209  0.00  0.00    +0.000 A 
ATOM     12  C   UNL     1       3.192   4.757  20.109  0.00  0.00    +0.000 A 
ATOM     13  C   UNL     1       2.368   5.911  20.067  0.00  0.00    +0.000 A 
ATOM     14  C   UNL     1       2.615   6.916  19.133  0.00  0.00    +0.000 A 
ATOM     15  C   UNL     1       3.709   6.717  18.260  0.00  0.00    +0.000 A 
ATOM     16  C   UNL     1       4.520   5.580  18.298  0.00  0.00    +0.000 A 
BRANCH  11  18
ATOM     17  C   UNL     1       4.246   2.280  19.793  0.00  0.00    +0.000 C 
ATOM     18  O   UNL     1       4.971   3.415  19.314  0.00  0.00    +0.000 OA
ENDBRANCH  11  18
ENDBRANCH   1  14
BRANCH   7  19
ATOM     19  C   UNL     1      -0.854  11.889  20.453  0.00  0.00    +0.000 C 
ATOM     20  O   UNL     1      -1.802  11.414  19.822  0.00  0.00    +0.000 OA
ATOM     21  N   UNL     1      -1.048  12.702  21.564  0.00  0.00    +0.000 N 
ATOM     22  H   UNL     1      -0.301  13.334  21.825  0.00  0.00    +0.000 HD
BRANCH  21  23
ATOM     23  C   UNL     1      -2.332  12.881  22.180  0.00  0.00    +0.000 A 
ATOM     24  C   UNL     1      -2.711  12.235  23.371  0.00  0.00    +0.000 A 
ATOM     25  C   UNL     1      -3.983  12.401  23.933  0.00  0.00    +0.000 A 
ATOM     26  C   UNL     1      -4.902  13.235  23.312  0.00  0.00    +0.000 A 
ATOM     27 CL   UNL     1      -6.471  13.433  23.988  0.00  0.00    +0.000 Cl
ATOM     28  C   UNL     1      -4.546  13.903  22.143  0.00  0.00    +0.000 A 
ATOM     29  C   UNL     1      -3.262  13.738  21.587  0.00  0.00    +0.000 A 
ENDBRANCH  21  23
ENDBRANCH   7  19
TORSDOF 4
ENDMDL
MODEL 5
REMARK VINA RESULT:      -7.4      3.244      5.735
REMARK  Name = 
REMARK  5 active torsions:
REMARK  status: ('A' for Active; 'I' for Inactive)
REMARK    1  A    between atoms: C_1  and  O_2
REMARK    2  A    between atoms: O_2  and  C_3
REMARK    3  A    between atoms: C_6  and  N_7
REMARK    4  A    between atoms: C_13  and  C_14
REMARK    5  A    between atoms: N_16  and  C_17
REMARK                            x       y       z     vdW  Elec       q    Type
REMARK                         _______ _______ _______ _____ _____    ______ ____
ROOT
ATOM      1  N   UNL     1       1.661   8.486  19.397  0.00  0.00    +0.000 N 
ATOM      2  C   UNL     1       1.414   9.297  18.231  0.00  0.00    +0.000 C 
ATOM      3  C   UNL     1       1.408  10.659  18.811  0.00  0.00    +0.000 A 
ATOM      4  C   UNL     1       2.017  11.771  18.249  0.00  0.00    +0.000 A 
ATOM      5  C   UNL     1       2.176  12.888  19.046  0.00  0.00    +0.000 A 
ATOM      6  C   UNL     1       1.595  12.911  20.321  0.00  0.00    +0.000 A 
ATOM      7  C   UNL     1       0.871  11.808  20.856  0.00  0.00    +0.000 A 
ATOM      8  C   UNL     1       0.949  10.624  20.129  0.00  0.00    +0.000 A 
ATOM      9  C   UNL     1       1.331   9.220  20.569  0.00  0.00    +0.000 C 
ATOM     10  O   UNL     1       1.408   8.892  21.737  0.00  0.00    +0.000 OA
ENDROOT
BRANCH   1  14
ATOM     11  C   UNL     1       3.383   4.585  18.976  0.00  0.00    +0.000 A 
ATOM     12  C   UNL     1       3.638   5.571  18.014  0.00  0.00    +0.000 A 
ATOM     13  C   UNL     1       3.110   6.883  18.133  0.00  0.00    +0.000 A 
ATOM     14  C   UNL     1       2.294   7.215  19.214  0.00  0.00    +0.000 A 
ATOM     15  C   UNL     1       2.032   6.189  20.151  0.00  0.00    +0.000 A 
ATOM     16  C   UNL     1       2.553   4.897  20.036  0.00  0.00    +0.000 A 
BRANCH  11  18
ATOM     17  C   UNL     1       4.106   2.552  19.954  0.00  0.00    +0.000 C 
ATOM     18  O   UNL     1       3.960   3.357  18.783  0.00  0.00    +0.000 OA
ENDBRANCH  11  18
ENDBRANCH   1  14
BRANCH   7  19
ATOM     19  C   UNL     1      -0.289  12.277  21.705  0.00  0.00    +0.000 C 
ATOM     20  O   UNL     1      -0.097  13.297  22.371  0.00  0.00    +0.000 OA
ATOM     21  N   UNL     1      -1.527  11.645  21.675  0.00  0.00    +0.000 N 
ATOM     22  H   UNL     1      -1.551  10.664  21.423  0.00  0.00    +0.000 HD
BRANCH  21  23
ATOM     23  C   UNL     1      -2.710  12.230  22.236  0.00  0.00    +0.000 A 
ATOM     24  C   UNL     1      -3.029  12.159  23.605  0.00  0.00    +0.000 A 
ATOM     25  C   UNL     1      -4.209  12.709  24.122  0.00  0.00    +0.000 A 
ATOM     26  C   UNL     1      -5.092  13.357  23.269  0.00  0.00    +0.000 A 
ATOM     27 CL   UNL     1      -6.550  14.023  23.894  0.00  0.00    +0.000 Cl
ATOM     28  C   UNL     1      -4.792  13.460  21.914  0.00  0.00    +0.000 A 
ATOM     29  C   UNL     1      -3.599  12.911  21.401  0.00  0.00    +0.000 A 
ENDBRANCH  21  23
ENDBRANCH   7  19
TORSDOF 4
ENDMDL
MODEL 6
REMARK VINA RESULT:      -7.4      3.165      5.774
REMARK  Name = 
REMARK  5 active torsions:
REMARK  status: ('A' for Active; 'I' for Inactive)
REMARK    1  A    between atoms: C_1  and  O_2
REMARK    2  A    between atoms: O_2  and  C_3
REMARK    3  A    between atoms: C_6  and  N_7
REMARK    4  A    between atoms: C_13  and  C_14
REMARK    5  A    between atoms: N_16  and  C_17
REMARK                            x       y       z     vdW  Elec       q    Type
REMARK                         _______ _______ _______ _____ _____    ______ ____
ROOT
ATOM      1  N   UNL     1       1.657   8.528  19.363  0.00  0.00    +0.000 N 
ATOM      2  C   UNL     1       1.442   9.342  18.193  0.00  0.00    +0.000 C 
ATOM      3  C   UNL     1       1.446  10.704  18.773  0.00  0.00    +0.000 A 
ATOM      4  C   UNL     1       2.081  11.807  18.221  0.00  0.00    +0.000 A 
ATOM      5  C   UNL     1       2.243  12.922  19.021  0.00  0.00    +0.000 A 
ATOM      6  C   UNL     1       1.640  12.953  20.286  0.00  0.00    +0.000 A 
ATOM      7  C   UNL     1       0.890  11.861  20.808  0.00  0.00    +0.000 A 
ATOM      8  C   UNL     1       0.963  10.676  20.082  0.00  0.00    +0.000 A 
ATOM      9  C   UNL     1       1.317   9.267  20.529  0.00  0.00    +0.000 C 
ATOM     10  O   UNL     1       1.369   8.938  21.698  0.00  0.00    +0.000 OA
ENDROOT
BRANCH   1  14
ATOM     11  C   UNL     1       3.670   4.802  18.714  0.00  0.00    +0.000 A 
ATOM     12  C   UNL     1       2.881   4.982  19.858  0.00  0.00    +0.000 A 
ATOM     13  C   UNL     1       2.176   6.190  20.094  0.00  0.00    +0.000 A 
ATOM     14  C   UNL     1       2.275   7.248  19.191  0.00  0.00    +0.000 A 
ATOM     15  C   UNL     1       3.102   7.044  18.062  0.00  0.00    +0.000 A 
ATOM     16  C   UNL     1       3.796   5.854  17.827  0.00  0.00    +0.000 A 
BRANCH  11  18
ATOM     17  C   UNL     1       4.262   2.735  19.712  0.00  0.00    +0.000 C 
ATOM     18  O   UNL     1       4.290   3.588  18.566  0.00  0.00    +0.000 OA
ENDBRANCH  11  18
ENDBRANCH   1  14
BRANCH   7  19
ATOM     19  C   UNL     1      -0.278  12.348  21.636  0.00  0.00    +0.000 C 
ATOM     20  O   UNL     1      -0.074  13.350  22.326  0.00  0.00    +0.000 OA
ATOM     21  N   UNL     1      -1.531  11.752  21.563  0.00  0.00    +0.000 N 
ATOM     22  H   UNL     1      -1.576  10.776  21.293  0.00  0.00    +0.000 HD
BRANCH  21  23
ATOM     23  C   UNL     1      -2.712  12.359  22.106  0.00  0.00    +0.000 A 
ATOM     24  C   UNL     1      -3.594  13.146  21.341  0.00  0.00    +0.000 A 
ATOM     25  C   UNL     1      -4.722  13.756  21.903  0.00  0.00    +0.000 A 
ATOM     26  C   UNL     1      -4.996  13.576  23.252  0.00  0.00    +0.000 A 
ATOM     27 CL   UNL     1      -6.372  14.333  23.953  0.00  0.00    +0.000 Cl
ATOM     28  C   UNL     1      -4.153  12.785  24.027  0.00  0.00    +0.000 A 
ATOM     29  C   UNL     1      -3.023  12.168  23.454  0.00  0.00    +0.000 A 
ENDBRANCH  21  23
ENDBRANCH   7  19
TORSDOF 4
ENDMDL
MODEL 7
REMARK VINA RESULT:      -7.3      4.453      9.932
REMARK  Name = 
REMARK  5 active torsions:
REMARK  status: ('A' for Active; 'I' for Inactive)
REMARK    1  A    between atoms: C_1  and  O_2
REMARK    2  A    between atoms: O_2  and  C_3
REMARK    3  A    between atoms: C_6  and  N_7
REMARK    4  A    between atoms: C_13  and  C_14
REMARK    5  A    between atoms: N_16  and  C_17
REMARK                            x       y       z     vdW  Elec       q    Type
REMARK                         _______ _______ _______ _____ _____    ______ ____
ROOT
ATOM      1  N   UNL     1      -0.209  12.159  19.428  0.00  0.00    +0.000 N 
ATOM      2  C   UNL     1      -1.220  11.240  19.890  0.00  0.00    +0.000 C 
ATOM      3  C   UNL     1      -0.407  10.051  20.230  0.00  0.00    +0.000 A 
ATOM      4  C   UNL     1      -0.570   9.269  21.364  0.00  0.00    +0.000 A 
ATOM      5  C   UNL     1       0.442   8.385  21.686  0.00  0.00    +0.000 A 
ATOM      6  C   UNL     1       1.508   8.206  20.793  0.00  0.00    +0.000 A 
ATOM      7  C   UNL     1       1.616   8.929  19.571  0.00  0.00    +0.000 A 
ATOM      8  C   UNL     1       0.717   9.979  19.407  0.00  0.00    +0.000 A 
ATOM      9  C   UNL     1       0.960  11.438  19.059  0.00  0.00    +0.000 C 
ATOM     10  O   UNL     1       2.023  11.849  18.635  0.00  0.00    +0.000 OA
ENDROOT
BRANCH   1  14
ATOM     11  C   UNL     1      -0.928  16.381  19.545  0.00  0.00    +0.000 A 
ATOM     12  C   UNL     1      -1.576  15.534  20.455  0.00  0.00    +0.000 A 
ATOM     13  C   UNL     1      -1.342  14.135  20.466  0.00  0.00    +0.000 A 
ATOM     14  C   UNL     1      -0.468  13.562  19.544  0.00  0.00    +0.000 A 
ATOM     15  C   UNL     1       0.147  14.440  18.621  0.00  0.00    +0.000 A 
ATOM     16  C   UNL     1      -0.082  15.819  18.609  0.00  0.00    +0.000 A 
BRANCH  11  18
ATOM     17  C   UNL     1      -2.000  18.259  18.576  0.00  0.00    +0.000 C 
ATOM     18  O   UNL     1      -1.203  17.721  19.633  0.00  0.00    +0.000 OA
ENDBRANCH  11  18
ENDBRANCH   1  14
BRANCH   7  19
ATOM     19  C   UNL     1       2.217   8.070  18.481  0.00  0.00    +0.000 C 
ATOM     20  O   UNL     1       2.212   8.551  17.345  0.00  0.00    +0.000 OA
ATOM     21  N   UNL     1       2.813   6.845  18.754  0.00  0.00    +0.000 N 
ATOM     22  H   UNL     1       2.500   6.337  19.573  0.00  0.00    +0.000 HD
BRANCH  21  23
ATOM     23  C   UNL     1       3.635   6.153  17.803  0.00  0.00    +0.000 A 
ATOM     24  C   UNL     1       3.462   4.793  17.481  0.00  0.00    +0.000 A 
ATOM     25  C   UNL     1       4.301   4.133  16.575  0.00  0.00    +0.000 A 
ATOM     26  C   UNL     1       5.329   4.833  15.959  0.00  0.00    +0.000 A 
ATOM     27 CL   UNL     1       6.372   4.026  14.854  0.00  0.00    +0.000 Cl
ATOM     28  C   UNL     1       5.509   6.184  16.242  0.00  0.00    +0.000 A 
ATOM     29  C   UNL     1       4.658   6.845  17.150  0.00  0.00    +0.000 A 
ENDBRANCH  21  23
ENDBRANCH   7  19
TORSDOF 4
ENDMDL
MODEL 8
REMARK VINA RESULT:      -7.3      2.954      5.337
REMARK  Name = 
REMARK  5 active torsions:
REMARK  status: ('A' for Active; 'I' for Inactive)
REMARK    1  A    between atoms: C_1  and  O_2
REMARK    2  A    between atoms: O_2  and  C_3
REMARK    3  A    between atoms: C_6  and  N_7
REMARK    4  A    between atoms: C_13  and  C_14
REMARK    5  A    between atoms: N_16  and  C_17
REMARK                            x       y       z     vdW  Elec       q    Type
REMARK                         _______ _______ _______ _____ _____    ______ ____
ROOT
ATOM      1  N   UNL     1       1.777   8.453  18.943  0.00  0.00    +0.000 N 
ATOM      2  C   UNL     1       1.611   9.489  17.954  0.00  0.00    +0.000 C 
ATOM      3  C   UNL     1       1.316  10.665  18.802  0.00  0.00    +0.000 A 
ATOM      4  C   UNL     1       1.844  11.935  18.621  0.00  0.00    +0.000 A 
ATOM      5  C   UNL     1       1.710  12.840  19.656  0.00  0.00    +0.000 A 
ATOM      6  C   UNL     1       0.931  12.500  20.770  0.00  0.00    +0.000 A 
ATOM      7  C   UNL     1       0.293  11.233  20.905  0.00  0.00    +0.000 A 
ATOM      8  C   UNL     1       0.657  10.271  19.967  0.00  0.00    +0.000 A 
ATOM      9  C   UNL     1       1.158   8.849  20.160  0.00  0.00    +0.000 C 
ATOM     10  O   UNL     1       1.089   8.261  21.222  0.00  0.00    +0.000 OA
ENDROOT
BRANCH   1  14
ATOM     11  C   UNL     1       4.418   5.253  17.873  0.00  0.00    +0.000 A 
ATOM     12  C   UNL     1       3.493   5.080  18.910  0.00  0.00    +0.000 A 
ATOM     13  C   UNL     1       2.582   6.105  19.274  0.00  0.00    +0.000 A 
ATOM     14  C   UNL     1       2.607   7.333  18.614  0.00  0.00    +0.000 A 
ATOM     15  C   UNL     1       3.572   7.485  17.591  0.00  0.00    +0.000 A 
ATOM     16  C   UNL     1       4.468   6.475  17.230  0.00  0.00    +0.000 A 
BRANCH  11  18
ATOM     17  C   UNL     1       5.539   4.008  16.196  0.00  0.00    +0.000 C 
ATOM     18  O   UNL     1       5.236   4.192  17.580  0.00  0.00    +0.000 OA
ENDBRANCH  11  18
ENDBRANCH   1  14
BRANCH   7  19
ATOM     19  C   UNL     1      -1.045  11.368  21.596  0.00  0.00    +0.000 C 
ATOM     20  O   UNL     1      -1.185  10.724  22.639  0.00  0.00    +0.000 OA
ATOM     21  N   UNL     1      -2.031  12.228  21.129  0.00  0.00    +0.000 N 
ATOM     22  H   UNL     1      -2.037  12.450  20.140  0.00  0.00    +0.000 HD
BRANCH  21  23
ATOM     23  C   UNL     1      -3.179  12.590  21.910  0.00  0.00    +0.000 A 
ATOM     24  C   UNL     1      -3.110  12.898  23.282  0.00  0.00    +0.000 A 
ATOM     25  C   UNL     1      -4.251  13.215  24.029  0.00  0.00    +0.000 A 
ATOM     26  C   UNL     1      -5.491  13.242  23.406  0.00  0.00    +0.000 A 
ATOM     27 CL   UNL     1      -6.900  13.617  24.320  0.00  0.00    +0.000 Cl
ATOM     28  C   UNL     1      -5.585  12.963  22.046  0.00  0.00    +0.000 A 
ATOM     29  C   UNL     1      -4.432  12.652  21.297  0.00  0.00    +0.000 A 
ENDBRANCH  21  23
ENDBRANCH   7  19
TORSDOF 4
ENDMDL
MODEL 9
REMARK VINA RESULT:      -7.3      3.109      6.063
REMARK  Name = 
REMARK  5 active torsions:
REMARK  status: ('A' for Active; 'I' for Inactive)
REMARK    1  A    between atoms: C_1  and  O_2
REMARK    2  A    between atoms: O_2  and  C_3
REMARK    3  A    between atoms: C_6  and  N_7
REMARK    4  A    between atoms: C_13  and  C_14
REMARK    5  A    between atoms: N_16  and  C_17
REMARK                            x       y       z     vdW  Elec       q    Type
REMARK                         _______ _______ _______ _____ _____    ______ ____
ROOT
ATOM      1  N   UNL     1       1.451   9.000  19.429  0.00  0.00    +0.000 N 
ATOM      2  C   UNL     1       1.354   9.883  18.293  0.00  0.00    +0.000 C 
ATOM      3  C   UNL     1       1.318  11.209  18.950  0.00  0.00    +0.000 A 
ATOM      4  C   UNL     1       2.013  12.331  18.525  0.00  0.00    +0.000 A 
ATOM      5  C   UNL     1       2.112  13.396  19.400  0.00  0.00    +0.000 A 
ATOM      6  C   UNL     1       1.394  13.364  20.604  0.00  0.00    +0.000 A 
ATOM      7  C   UNL     1       0.588  12.256  20.989  0.00  0.00    +0.000 A 
ATOM      8  C   UNL     1       0.716  11.114  20.205  0.00  0.00    +0.000 A 
ATOM      9  C   UNL     1       1.011   9.676  20.600  0.00  0.00    +0.000 C 
ATOM     10  O   UNL     1       0.951   9.279  21.747  0.00  0.00    +0.000 OA
ENDROOT
BRANCH   1  14
ATOM     11  C   UNL     1       3.136   5.083  19.007  0.00  0.00    +0.000 A 
ATOM     12  C   UNL     1       3.313   6.035  17.994  0.00  0.00    +0.000 A 
ATOM     13  C   UNL     1       2.795   7.350  18.110  0.00  0.00    +0.000 A 
ATOM     14  C   UNL     1       2.068   7.722  19.239  0.00  0.00    +0.000 A 
ATOM     15  C   UNL     1       1.883   6.729  20.230  0.00  0.00    +0.000 A 
ATOM     16  C   UNL     1       2.393   5.433  20.118  0.00  0.00    +0.000 A 
BRANCH  11  18
ATOM     17  C   UNL     1       4.286   3.633  17.527  0.00  0.00    +0.000 C 
ATOM     18  O   UNL     1       3.698   3.848  18.811  0.00  0.00    +0.000 OA
ENDBRANCH  11  18
ENDBRANCH   1  14
BRANCH   7  19
ATOM     19  C   UNL     1      -0.647  12.713  21.733  0.00  0.00    +0.000 C 
ATOM     20  O   UNL     1      -0.716  13.919  21.982  0.00  0.00    +0.000 OA
ATOM     21  N   UNL     1      -1.682  11.840  22.048  0.00  0.00    +0.000 N 
ATOM     22  H   UNL     1      -1.457  10.858  22.157  0.00  0.00    +0.000 HD
BRANCH  21  23
ATOM     23  C   UNL     1      -2.971  12.292  22.487  0.00  0.00    +0.000 A 
ATOM     24  C   UNL     1      -3.951  12.791  21.609  0.00  0.00    +0.000 A 
ATOM     25  C   UNL     1      -5.190  13.257  22.067  0.00  0.00    +0.000 A 
ATOM     26  C   UNL     1      -5.475  13.218  23.425  0.00  0.00    +0.000 A 
ATOM     27 CL   UNL     1      -6.989  13.802  23.998  0.00  0.00    +0.000 Cl
ATOM     28  C   UNL     1      -4.532  12.709  24.314  0.00  0.00    +0.000 A 
ATOM     29  C   UNL     1      -3.290  12.235  23.845  0.00  0.00    +0.000 A 
ENDBRANCH  21  23
ENDBRANCH   7  19
TORSDOF 4
ENDMDL
