MODEL 1
REMARK VINA RESULT:      -7.3      0.000      0.000
REMARK  Name = 
REMARK  12 active torsions:
REMARK  status: ('A' for Active; 'I' for Inactive)
REMARK    1  A    between atoms: C_1  and  N_2
REMARK    2  A    between atoms: C_3  and  C_5
REMARK    3  A    between atoms: C_5  and  S_6
REMARK    4  A    between atoms: S_6  and  C_7
REMARK    5  A    between atoms: N_9  and  C_10
REMARK    6  A    between atoms: C_10  and  C_11
REMARK    7  A    between atoms: N_13  and  C_14
REMARK    8  A    between atoms: N_13  and  C_17
REMARK    9  A    between atoms: C_14  and  C_15
REMARK   10  A    between atoms: C_14  and  C_16
REMARK   11  A    between atoms: C_17  and  C_18
REMARK   12  A    between atoms: C_17  and  C_19
REMARK                            x       y       z     vdW  Elec       q    Type
REMARK                         _______ _______ _______ _____ _____    ______ ____
ROOT
ATOM      1  C   UNL     1       4.218   5.434  17.289  0.00  0.00    +0.000 A 
ATOM      2  C   UNL     1       3.930   6.600  17.958  0.00  0.00    +0.000 A 
ATOM      3  N   UNL     1       2.916   6.337  18.847  0.00  0.00    +0.000 N 
ATOM      4  C   UNL     1       2.475   5.035  18.683  0.00  0.00    +0.000 A 
ATOM      5  C   UNL     1       1.445   4.321  19.318  0.00  0.00    +0.000 A 
ATOM      6  C   UNL     1       1.260   2.979  18.978  0.00  0.00    +0.000 A 
ATOM      7  C   UNL     1       2.062   2.365  18.022  0.00  0.00    +0.000 A 
ATOM      8  C   UNL     1       3.076   3.085  17.381  0.00  0.00    +0.000 A 
ATOM      9  C   UNL     1       3.295   4.439  17.714  0.00  0.00    +0.000 A 
ENDROOT
BRANCH   1  10
ATOM     10  S   UNL     1       5.472   5.200  16.086  0.00  0.00    +0.000 S 
BRANCH  10  11
ATOM     11  C   UNL     1       6.886   4.789  17.145  0.00  0.00    +0.000 C 
BRANCH  11  14
ATOM     12  C   UNL     1       7.881   8.412  17.669  0.00  0.00    +0.000 C 
ATOM     13  N   UNL     1       7.460   7.162  17.092  0.00  0.00    +0.000 N 
ATOM     14  C   UNL     1       7.392   6.020  17.869  0.00  0.00    +0.000 C 
ATOM     15  O   UNL     1       7.768   5.985  19.035  0.00  0.00    +0.000 OA
ATOM     16  H   UNL     1       6.984   7.164  16.198  0.00  0.00    +0.000 HD
ENDBRANCH  11  14
ENDBRANCH  10  11
ENDBRANCH   1  10
BRANCH   3  17
ATOM     17  C   UNL     1       2.321   7.340  19.739  0.00  0.00    +0.000 C 
BRANCH  17  18
ATOM     18  C   UNL     1       1.618   8.478  19.017  0.00  0.00    +0.000 C 
ATOM     19  O   UNL     1       1.674   8.562  17.786  0.00  0.00    +0.000 OA
ATOM     20  N   UNL     1       0.947   9.469  19.771  0.00  0.00    +0.000 N 
BRANCH  20  21
ATOM     21  C   UNL     1       0.458   9.335  21.179  0.00  0.00    +0.000 C 
ATOM     22  C   UNL     1      -0.522   8.178  21.380  0.00  0.00    +0.000 C 
ATOM     23  C   UNL     1       1.540   9.306  22.260  0.00  0.00    +0.000 C 
ENDBRANCH  20  21
BRANCH  20  24
ATOM     24  C   UNL     1       0.472  10.628  18.956  0.00  0.00    +0.000 C 
ATOM     25  C   UNL     1      -1.054  10.783  18.965  0.00  0.00    +0.000 C 
ATOM     26  C   UNL     1       1.137  11.971  19.269  0.00  0.00    +0.000 C 
ENDBRANCH  20  24
ENDBRANCH  17  18
ENDBRANCH   3  17
TORSDOF 7
ENDMDL
MODEL 2
REMARK VINA RESULT:      -7.2      1.355      2.302
REMARK  Name = 
REMARK  12 active torsions:
REMARK  status: ('A' for Active; 'I' for Inactive)
REMARK    1  A    between atoms: C_1  and  N_2
REMARK    2  A    between atoms: C_3  and  C_5
REMARK    3  A    between atoms: C_5  and  S_6
REMARK    4  A    between atoms: S_6  and  C_7
REMARK    5  A    between atoms: N_9  and  C_10
REMARK    6  A    between atoms: C_10  and  C_11
REMARK    7  A    between atoms: N_13  and  C_14
REMARK    8  A    between atoms: N_13  and  C_17
REMARK    9  A    between atoms: C_14  and  C_15
REMARK   10  A    between atoms: C_14  and  C_16
REMARK   11  A    between atoms: C_17  and  C_18
REMARK   12  A    between atoms: C_17  and  C_19
REMARK                            x       y       z     vdW  Elec       q    Type
REMARK                         _______ _______ _______ _____ _____    ______ ____
ROOT
ATOM      1  C   UNL     1       4.953   5.181  17.387  0.00  0.00    +0.000 A 
ATOM      2  C   UNL     1       4.399   6.436  17.461  0.00  0.00    +0.000 A 
ATOM      3  N   UNL     1       3.083   6.295  17.830  0.00  0.00    +0.000 N 
ATOM      4  C   UNL     1       2.756   4.950  17.893  0.00  0.00    +0.000 A 
ATOM      5  C   UNL     1       1.539   4.308  18.181  0.00  0.00    +0.000 A 
ATOM      6  C   UNL     1       1.521   2.911  18.223  0.00  0.00    +0.000 A 
ATOM      7  C   UNL     1       2.671   2.171  17.970  0.00  0.00    +0.000 A 
ATOM      8  C   UNL     1       3.875   2.817  17.669  0.00  0.00    +0.000 A 
ATOM      9  C   UNL     1       3.928   4.227  17.632  0.00  0.00    +0.000 A 
ENDROOT
BRANCH   1  10
ATOM     10  S   UNL     1       6.622   4.795  17.014  0.00  0.00    +0.000 S 
BRANCH  10  11
ATOM     11  C   UNL     1       7.484   5.715  18.318  0.00  0.00    +0.000 C 
BRANCH  11  14
ATOM     12  C   UNL     1       8.770   9.279  18.509  0.00  0.00    +0.000 C 
ATOM     13  N   UNL     1       8.376   7.931  18.826  0.00  0.00    +0.000 N 
ATOM     14  C   UNL     1       7.802   7.124  17.861  0.00  0.00    +0.000 C 
ATOM     15  O   UNL     1       7.513   7.529  16.741  0.00  0.00    +0.000 OA
ATOM     16  H   UNL     1       8.737   7.494  19.666  0.00  0.00    +0.000 HD
ENDBRANCH  11  14
ENDBRANCH  10  11
ENDBRANCH   1  10
BRANCH   3  17
ATOM     17  C   UNL     1       2.150   7.415  18.004  0.00  0.00    +0.000 C 
BRANCH  17  18
ATOM     18  C   UNL     1       1.943   7.835  19.451  0.00  0.00    +0.000 C 
ATOM     19  O   UNL     1       2.411   7.154  20.368  0.00  0.00    +0.000 OA
ATOM     20  N   UNL     1       1.164   8.980  19.737  0.00  0.00    +0.000 N 
BRANCH  20  21
ATOM     21  C   UNL     1       0.858  10.104  18.797  0.00  0.00    +0.000 C 
ATOM     22  C   UNL     1       2.061  10.556  17.968  0.00  0.00    +0.000 C 
ATOM     23  C   UNL     1      -0.361   9.902  17.893  0.00  0.00    +0.000 C 
ENDBRANCH  20  21
BRANCH  20  24
ATOM     24  C   UNL     1       0.877   9.167  21.192  0.00  0.00    +0.000 C 
ATOM     25  C   UNL     1       0.825  10.641  21.609  0.00  0.00    +0.000 C 
ATOM     26  C   UNL     1      -0.356   8.429  21.719  0.00  0.00    +0.000 C 
ENDBRANCH  20  24
ENDBRANCH  17  18
ENDBRANCH   3  17
TORSDOF 7
ENDMDL
MODEL 3
REMARK VINA RESULT:      -7.1      1.932      2.250
REMARK  Name = 
REMARK  12 active torsions:
REMARK  status: ('A' for Active; 'I' for Inactive)
REMARK    1  A    between atoms: C_1  and  N_2
REMARK    2  A    between atoms: C_3  and  C_5
REMARK    3  A    between atoms: C_5  and  S_6
REMARK    4  A    between atoms: S_6  and  C_7
REMARK    5  A    between atoms: N_9  and  C_10
REMARK    6  A    between atoms: C_10  and  C_11
REMARK    7  A    between atoms: N_13  and  C_14
REMARK    8  A    between atoms: N_13  and  C_17
REMARK    9  A    between atoms: C_14  and  C_15
REMARK   10  A    between atoms: C_14  and  C_16
REMARK   11  A    between atoms: C_17  and  C_18
REMARK   12  A    between atoms: C_17  and  C_19
REMARK                            x       y       z     vdW  Elec       q    Type
REMARK                         _______ _______ _______ _____ _____    ______ ____
ROOT
ATOM      1  C   UNL     1       4.660   4.891  18.081  0.00  0.00    +0.000 A 
ATOM      2  C   UNL     1       4.319   6.079  18.680  0.00  0.00    +0.000 A 
ATOM      3  N   UNL     1       3.084   5.920  19.262  0.00  0.00    +0.000 N 
ATOM      4  C   UNL     1       2.580   4.667  18.954  0.00  0.00    +0.000 A 
ATOM      5  C   UNL     1       1.354   4.060  19.276  0.00  0.00    +0.000 A 
ATOM      6  C   UNL     1       1.139   2.742  18.863  0.00  0.00    +0.000 A 
ATOM      7  C   UNL     1       2.103   2.051  18.138  0.00  0.00    +0.000 A 
ATOM      8  C   UNL     1       3.315   2.667  17.807  0.00  0.00    +0.000 A 
ATOM      9  C   UNL     1       3.567   3.993  18.221  0.00  0.00    +0.000 A 
ENDROOT
BRANCH   1  10
ATOM     10  S   UNL     1       6.160   4.532  17.247  0.00  0.00    +0.000 S 
BRANCH  10  11
ATOM     11  C   UNL     1       5.529   3.952  15.648  0.00  0.00    +0.000 C 
BRANCH  11  14
ATOM     12  C   UNL     1       7.101   3.902  12.196  0.00  0.00    +0.000 C 
ATOM     13  N   UNL     1       6.293   3.617  13.353  0.00  0.00    +0.000 N 
ATOM     14  C   UNL     1       6.481   4.321  14.528  0.00  0.00    +0.000 C 
ATOM     15  O   UNL     1       7.384   5.135  14.680  0.00  0.00    +0.000 OA
ATOM     16  H   UNL     1       5.437   3.088  13.241  0.00  0.00    +0.000 HD
ENDBRANCH  11  14
ENDBRANCH  10  11
ENDBRANCH   1  10
BRANCH   3  17
ATOM     17  C   UNL     1       2.373   6.978  19.991  0.00  0.00    +0.000 C 
BRANCH  17  18
ATOM     18  C   UNL     1       1.815   8.079  19.104  0.00  0.00    +0.000 C 
ATOM     19  O   UNL     1       1.972   8.031  17.880  0.00  0.00    +0.000 OA
ATOM     20  N   UNL     1       1.166   9.186  19.698  0.00  0.00    +0.000 N 
BRANCH  20  21
ATOM     21  C   UNL     1       0.560   9.232  21.066  0.00  0.00    +0.000 C 
ATOM     22  C   UNL     1      -0.499   8.155  21.304  0.00  0.00    +0.000 C 
ATOM     23  C   UNL     1       1.550   9.267  22.232  0.00  0.00    +0.000 C 
ENDBRANCH  20  21
BRANCH  20  24
ATOM     24  C   UNL     1       0.843  10.283  18.736  0.00  0.00    +0.000 C 
ATOM     25  C   UNL     1      -0.649  10.360  18.390  0.00  0.00    +0.000 C 
ATOM     26  C   UNL     1       1.364  11.671  19.121  0.00  0.00    +0.000 C 
ENDBRANCH  20  24
ENDBRANCH  17  18
ENDBRANCH   3  17
TORSDOF 7
ENDMDL
MODEL 4
REMARK VINA RESULT:      -7.1      1.029      1.055
REMARK  Name = 
REMARK  12 active torsions:
REMARK  status: ('A' for Active; 'I' for Inactive)
REMARK    1  A    between atoms: C_1  and  N_2
REMARK    2  A    between atoms: C_3  and  C_5
REMARK    3  A    between atoms: C_5  and  S_6
REMARK    4  A    between atoms: S_6  and  C_7
REMARK    5  A    between atoms: N_9  and  C_10
REMARK    6  A    between atoms: C_10  and  C_11
REMARK    7  A    between atoms: N_13  and  C_14
REMARK    8  A    between atoms: N_13  and  C_17
REMARK    9  A    between atoms: C_14  and  C_15
REMARK   10  A    between atoms: C_14  and  C_16
REMARK   11  A    between atoms: C_17  and  C_18
REMARK   12  A    between atoms: C_17  and  C_19
REMARK                            x       y       z     vdW  Elec       q    Type
REMARK                         _______ _______ _______ _____ _____    ______ ____
ROOT
ATOM      1  C   UNL     1       4.878   5.048  18.099  0.00  0.00    +0.000 A 
ATOM      2  C   UNL     1       4.451   6.190  18.734  0.00  0.00    +0.000 A 
ATOM      3  N   UNL     1       3.183   5.960  19.209  0.00  0.00    +0.000 N 
ATOM      4  C   UNL     1       2.746   4.713  18.795  0.00  0.00    +0.000 A 
ATOM      5  C   UNL     1       1.521   4.051  18.987  0.00  0.00    +0.000 A 
ATOM      6  C   UNL     1       1.383   2.754  18.489  0.00  0.00    +0.000 A 
ATOM      7  C   UNL     1       2.423   2.134  17.804  0.00  0.00    +0.000 A 
ATOM      8  C   UNL     1       3.634   2.804  17.601  0.00  0.00    +0.000 A 
ATOM      9  C   UNL     1       3.808   4.111  18.105  0.00  0.00    +0.000 A 
ENDROOT
BRANCH   1  10
ATOM     10  S   UNL     1       6.447   4.783  17.365  0.00  0.00    +0.000 S 
BRANCH  10  11
ATOM     11  C   UNL     1       7.506   5.771  18.459  0.00  0.00    +0.000 C 
BRANCH  11  14
ATOM     12  C   UNL     1       8.670   9.378  18.314  0.00  0.00    +0.000 C 
ATOM     13  N   UNL     1       8.387   8.031  18.736  0.00  0.00    +0.000 N 
ATOM     14  C   UNL     1       7.688   7.171  17.910  0.00  0.00    +0.000 C 
ATOM     15  O   UNL     1       7.196   7.524  16.843  0.00  0.00    +0.000 OA
ATOM     16  H   UNL     1       8.902   7.638  19.514  0.00  0.00    +0.000 HD
ENDBRANCH  11  14
ENDBRANCH  10  11
ENDBRANCH   1  10
BRANCH   3  17
ATOM     17  C   UNL     1       2.382   6.953  19.937  0.00  0.00    +0.000 C 
BRANCH  17  18
ATOM     18  C   UNL     1       1.824   8.065  19.065  0.00  0.00    +0.000 C 
ATOM     19  O   UNL     1       1.970   8.026  17.839  0.00  0.00    +0.000 OA
ATOM     20  N   UNL     1       1.186   9.171  19.674  0.00  0.00    +0.000 N 
BRANCH  20  21
ATOM     21  C   UNL     1       0.592   9.209  21.047  0.00  0.00    +0.000 C 
ATOM     22  C   UNL     1      -0.468   8.132  21.287  0.00  0.00    +0.000 C 
ATOM     23  C   UNL     1       1.592   9.233  22.204  0.00  0.00    +0.000 C 
ENDBRANCH  20  21
BRANCH  20  24
ATOM     24  C   UNL     1       0.862  10.278  18.723  0.00  0.00    +0.000 C 
ATOM     25  C   UNL     1      -0.624  10.332  18.349  0.00  0.00    +0.000 C 
ATOM     26  C   UNL     1       1.347  11.668  19.142  0.00  0.00    +0.000 C 
ENDBRANCH  20  24
ENDBRANCH  17  18
ENDBRANCH   3  17
TORSDOF 7
ENDMDL
MODEL 5
REMARK VINA RESULT:      -7.0      0.953      1.180
REMARK  Name = 
REMARK  12 active torsions:
REMARK  status: ('A' for Active; 'I' for Inactive)
REMARK    1  A    between atoms: C_1  and  N_2
REMARK    2  A    between atoms: C_3  and  C_5
REMARK    3  A    between atoms: C_5  and  S_6
REMARK    4  A    between atoms: S_6  and  C_7
REMARK    5  A    between atoms: N_9  and  C_10
REMARK    6  A    between atoms: C_10  and  C_11
REMARK    7  A    between atoms: N_13  and  C_14
REMARK    8  A    between atoms: N_13  and  C_17
REMARK    9  A    between atoms: C_14  and  C_15
REMARK   10  A    between atoms: C_14  and  C_16
REMARK   11  A    between atoms: C_17  and  C_18
REMARK   12  A    between atoms: C_17  and  C_19
REMARK                            x       y       z     vdW  Elec       q    Type
REMARK                         _______ _______ _______ _____ _____    ______ ____
ROOT
ATOM      1  C   UNL     1       3.929   4.720  17.594  0.00  0.00    +0.000 A 
ATOM      2  C   UNL     1       3.848   5.998  18.091  0.00  0.00    +0.000 A 
ATOM      3  N   UNL     1       2.859   6.019  19.044  0.00  0.00    +0.000 N 
ATOM      4  C   UNL     1       2.230   4.786  19.092  0.00  0.00    +0.000 A 
ATOM      5  C   UNL     1       1.146   4.331  19.864  0.00  0.00    +0.000 A 
ATOM      6  C   UNL     1       0.754   2.996  19.734  0.00  0.00    +0.000 A 
ATOM      7  C   UNL     1       1.405   2.140  18.852  0.00  0.00    +0.000 A 
ATOM      8  C   UNL     1       2.473   2.604  18.076  0.00  0.00    +0.000 A 
ATOM      9  C   UNL     1       2.900   3.944  18.195  0.00  0.00    +0.000 A 
ENDROOT
BRANCH   1  10
ATOM     10  S   UNL     1       5.066   4.133  16.395  0.00  0.00    +0.000 S 
BRANCH  10  11
ATOM     11  C   UNL     1       6.641   4.448  17.238  0.00  0.00    +0.000 C 
BRANCH  11  14
ATOM     12  C   UNL     1       7.847   8.024  17.622  0.00  0.00    +0.000 C 
ATOM     13  N   UNL     1       7.285   6.720  17.859  0.00  0.00    +0.000 N 
ATOM     14  C   UNL     1       7.206   5.795  16.835  0.00  0.00    +0.000 C 
ATOM     15  O   UNL     1       7.509   6.057  15.676  0.00  0.00    +0.000 OA
ATOM     16  H   UNL     1       7.179   6.393  18.812  0.00  0.00    +0.000 HD
ENDBRANCH  11  14
ENDBRANCH  10  11
ENDBRANCH   1  10
BRANCH   3  17
ATOM     17  C   UNL     1       2.465   7.215  19.798  0.00  0.00    +0.000 C 
BRANCH  17  18
ATOM     18  C   UNL     1       1.724   8.255  18.973  0.00  0.00    +0.000 C 
ATOM     19  O   UNL     1       1.697   8.168  17.742  0.00  0.00    +0.000 OA
ATOM     20  N   UNL     1       1.114   9.353  19.625  0.00  0.00    +0.000 N 
BRANCH  20  21
ATOM     21  C   UNL     1       0.720   9.423  21.067  0.00  0.00    +0.000 C 
ATOM     22  C   UNL     1       0.462  10.846  21.564  0.00  0.00    +0.000 C 
ATOM     23  C   UNL     1      -0.426   8.500  21.489  0.00  0.00    +0.000 C 
ENDBRANCH  20  21
BRANCH  20  24
ATOM     24  C   UNL     1       0.595  10.397  18.689  0.00  0.00    +0.000 C 
ATOM     25  C   UNL     1      -0.933  10.524  18.722  0.00  0.00    +0.000 C 
ATOM     26  C   UNL     1       1.239  11.779  18.822  0.00  0.00    +0.000 C 
ENDBRANCH  20  24
ENDBRANCH  17  18
ENDBRANCH   3  17
TORSDOF 7
ENDMDL
MODEL 6
REMARK VINA RESULT:      -7.0      2.047      3.037
REMARK  Name = 
REMARK  12 active torsions:
REMARK  status: ('A' for Active; 'I' for Inactive)
REMARK    1  A    between atoms: C_1  and  N_2
REMARK    2  A    between atoms: C_3  and  C_5
REMARK    3  A    between atoms: C_5  and  S_6
REMARK    4  A    between atoms: S_6  and  C_7
REMARK    5  A    between atoms: N_9  and  C_10
REMARK    6  A    between atoms: C_10  and  C_11
REMARK    7  A    between atoms: N_13  and  C_14
REMARK    8  A    between atoms: N_13  and  C_17
REMARK    9  A    between atoms: C_14  and  C_15
REMARK   10  A    between atoms: C_14  and  C_16
REMARK   11  A    between atoms: C_17  and  C_18
REMARK   12  A    between atoms: C_17  and  C_19
REMARK                            x       y       z     vdW  Elec       q    Type
REMARK                         _______ _______ _______ _____ _____    ______ ____
ROOT
ATOM      1  C   UNL     1       5.181   6.055  17.478  0.00  0.00    +0.000 A 
ATOM      2  C   UNL     1       4.486   7.232  17.612  0.00  0.00    +0.000 A 
ATOM      3  N   UNL     1       3.172   6.920  17.866  0.00  0.00    +0.000 N 
ATOM      4  C   UNL     1       2.994   5.548  17.794  0.00  0.00    +0.000 A 
ATOM      5  C   UNL     1       1.841   4.758  17.934  0.00  0.00    +0.000 A 
ATOM      6  C   UNL     1       1.977   3.369  17.861  0.00  0.00    +0.000 A 
ATOM      7  C   UNL     1       3.217   2.781  17.637  0.00  0.00    +0.000 A 
ATOM      8  C   UNL     1       4.358   3.574  17.482  0.00  0.00    +0.000 A 
ATOM      9  C   UNL     1       4.255   4.980  17.565  0.00  0.00    +0.000 A 
ENDROOT
BRANCH   1  10
ATOM     10  S   UNL     1       6.904   5.882  17.203  0.00  0.00    +0.000 S 
BRANCH  10  11
ATOM     11  C   UNL     1       6.948   4.314  16.292  0.00  0.00    +0.000 C 
BRANCH  11  14
ATOM     12  C   UNL     1       6.235   3.693  12.618  0.00  0.00    +0.000 C 
ATOM     13  N   UNL     1       6.348   3.562  14.047  0.00  0.00    +0.000 N 
ATOM     14  C   UNL     1       6.941   4.561  14.797  0.00  0.00    +0.000 C 
ATOM     15  O   UNL     1       7.478   5.541  14.293  0.00  0.00    +0.000 OA
ATOM     16  H   UNL     1       5.784   2.871  14.527  0.00  0.00    +0.000 HD
ENDBRANCH  11  14
ENDBRANCH  10  11
ENDBRANCH   1  10
BRANCH   3  17
ATOM     17  C   UNL     1       2.110   7.916  18.059  0.00  0.00    +0.000 C 
BRANCH  17  18
ATOM     18  C   UNL     1       1.802   8.223  19.516  0.00  0.00    +0.000 C 
ATOM     19  O   UNL     1       2.284   7.526  20.414  0.00  0.00    +0.000 OA
ATOM     20  N   UNL     1       0.913   9.278  19.830  0.00  0.00    +0.000 N 
BRANCH  20  21
ATOM     21  C   UNL     1       0.553  10.429  18.944  0.00  0.00    +0.000 C 
ATOM     22  C   UNL     1       1.760  11.089  18.274  0.00  0.00    +0.000 C 
ATOM     23  C   UNL     1      -0.542  10.158  17.911  0.00  0.00    +0.000 C 
ENDBRANCH  20  21
BRANCH  20  24
ATOM     24  C   UNL     1       0.545   9.346  21.277  0.00  0.00    +0.000 C 
ATOM     25  C   UNL     1       0.201  10.765  21.743  0.00  0.00    +0.000 C 
ATOM     26  C   UNL     1      -0.545   8.368  21.725  0.00  0.00    +0.000 C 
ENDBRANCH  20  24
ENDBRANCH  17  18
ENDBRANCH   3  17
TORSDOF 7
ENDMDL
MODEL 7
REMARK VINA RESULT:      -6.9      1.931      2.388
REMARK  Name = 
REMARK  12 active torsions:
REMARK  status: ('A' for Active; 'I' for Inactive)
REMARK    1  A    between atoms: C_1  and  N_2
REMARK    2  A    between atoms: C_3  and  C_5
REMARK    3  A    between atoms: C_5  and  S_6
REMARK    4  A    between atoms: S_6  and  C_7
REMARK    5  A    between atoms: N_9  and  C_10
REMARK    6  A    between atoms: C_10  and  C_11
REMARK    7  A    between atoms: N_13  and  C_14
REMARK    8  A    between atoms: N_13  and  C_17
REMARK    9  A    between atoms: C_14  and  C_15
REMARK   10  A    between atoms: C_14  and  C_16
REMARK   11  A    between atoms: C_17  and  C_18
REMARK   12  A    between atoms: C_17  and  C_19
REMARK                            x       y       z     vdW  Elec       q    Type
REMARK                         _______ _______ _______ _____ _____    ______ ____
ROOT
ATOM      1  C   UNL     1       3.912   4.382  17.431  0.00  0.00    +0.000 A 
ATOM      2  C   UNL     1       4.001   5.681  17.869  0.00  0.00    +0.000 A 
ATOM      3  N   UNL     1       3.073   5.856  18.867  0.00  0.00    +0.000 N 
ATOM      4  C   UNL     1       2.312   4.707  19.005  0.00  0.00    +0.000 A 
ATOM      5  C   UNL     1       1.227   4.412  19.849  0.00  0.00    +0.000 A 
ATOM      6  C   UNL     1       0.682   3.127  19.803  0.00  0.00    +0.000 A 
ATOM      7  C   UNL     1       1.185   2.165  18.934  0.00  0.00    +0.000 A 
ATOM      8  C   UNL     1       2.255   2.469  18.085  0.00  0.00    +0.000 A 
ATOM      9  C   UNL     1       2.836   3.755  18.118  0.00  0.00    +0.000 A 
ENDROOT
BRANCH   1  10
ATOM     10  S   UNL     1       4.910   3.618  16.210  0.00  0.00    +0.000 S 
BRANCH  10  11
ATOM     11  C   UNL     1       6.135   4.922  15.907  0.00  0.00    +0.000 C 
BRANCH  11  14
ATOM     12  C   UNL     1       6.629   3.574  12.396  0.00  0.00    +0.000 C 
ATOM     13  N   UNL     1       6.185   3.778  13.750  0.00  0.00    +0.000 N 
ATOM     14  C   UNL     1       6.730   4.789  14.520  0.00  0.00    +0.000 C 
ATOM     15  O   UNL     1       7.665   5.485  14.141  0.00  0.00    +0.000 OA
ATOM     16  H   UNL     1       5.317   3.355  14.056  0.00  0.00    +0.000 HD
ENDBRANCH  11  14
ENDBRANCH  10  11
ENDBRANCH   1  10
BRANCH   3  17
ATOM     17  C   UNL     1       2.856   7.121  19.579  0.00  0.00    +0.000 C 
BRANCH  17  18
ATOM     18  C   UNL     1       1.965   8.107  18.841  0.00  0.00    +0.000 C 
ATOM     19  O   UNL     1       1.892   8.077  17.609  0.00  0.00    +0.000 OA
ATOM     20  N   UNL     1       1.265   9.094  19.574  0.00  0.00    +0.000 N 
BRANCH  20  21
ATOM     21  C   UNL     1       0.931   9.048  21.032  0.00  0.00    +0.000 C 
ATOM     22  C   UNL     1       0.897  10.424  21.698  0.00  0.00    +0.000 C 
ATOM     23  C   UNL     1      -0.321   8.250  21.404  0.00  0.00    +0.000 C 
ENDBRANCH  20  21
BRANCH  20  24
ATOM     24  C   UNL     1       0.588  10.114  18.717  0.00  0.00    +0.000 C 
ATOM     25  C   UNL     1      -0.908  10.257  19.022  0.00  0.00    +0.000 C 
ATOM     26  C   UNL     1       1.251  11.494  18.688  0.00  0.00    +0.000 C 
ENDBRANCH  20  24
ENDBRANCH  17  18
ENDBRANCH   3  17
TORSDOF 7
ENDMDL
MODEL 8
REMARK VINA RESULT:      -6.8      1.157      1.288
REMARK  Name = 
REMARK  12 active torsions:
REMARK  status: ('A' for Active; 'I' for Inactive)
REMARK    1  A    between atoms: C_1  and  N_2
REMARK    2  A    between atoms: C_3  and  C_5
REMARK    3  A    between atoms: C_5  and  S_6
REMARK    4  A    between atoms: S_6  and  C_7
REMARK    5  A    between atoms: N_9  and  C_10
REMARK    6  A    between atoms: C_10  and  C_11
REMARK    7  A    between atoms: N_13  and  C_14
REMARK    8  A    between atoms: N_13  and  C_17
REMARK    9  A    between atoms: C_14  and  C_15
REMARK   10  A    between atoms: C_14  and  C_16
REMARK   11  A    between atoms: C_17  and  C_18
REMARK   12  A    between atoms: C_17  and  C_19
REMARK                            x       y       z     vdW  Elec       q    Type
REMARK                         _______ _______ _______ _____ _____    ______ ____
ROOT
ATOM      1  C   UNL     1       3.536   5.151  17.727  0.00  0.00    +0.000 A 
ATOM      2  C   UNL     1       3.403   6.472  18.079  0.00  0.00    +0.000 A 
ATOM      3  N   UNL     1       2.606   6.534  19.196  0.00  0.00    +0.000 N 
ATOM      4  C   UNL     1       2.137   5.268  19.507  0.00  0.00    +0.000 A 
ATOM      5  C   UNL     1       1.268   4.828  20.521  0.00  0.00    +0.000 A 
ATOM      6  C   UNL     1       1.011   3.459  20.624  0.00  0.00    +0.000 A 
ATOM      7  C   UNL     1       1.584   2.552  19.739  0.00  0.00    +0.000 A 
ATOM      8  C   UNL     1       2.436   2.999  18.722  0.00  0.00    +0.000 A 
ATOM      9  C   UNL     1       2.725   4.375  18.601  0.00  0.00    +0.000 A 
ENDROOT
BRANCH   1  10
ATOM     10  S   UNL     1       4.496   4.510  16.408  0.00  0.00    +0.000 S 
BRANCH  10  11
ATOM     11  C   UNL     1       5.807   5.760  16.304  0.00  0.00    +0.000 C 
BRANCH  11  14
ATOM     12  C   UNL     1       8.092   5.859  19.330  0.00  0.00    +0.000 C 
ATOM     13  N   UNL     1       7.058   6.135  18.367  0.00  0.00    +0.000 N 
ATOM     14  C   UNL     1       6.971   5.395  17.202  0.00  0.00    +0.000 C 
ATOM     15  O   UNL     1       7.802   4.552  16.885  0.00  0.00    +0.000 OA
ATOM     16  H   UNL     1       6.259   6.692  18.644  0.00  0.00    +0.000 HD
ENDBRANCH  11  14
ENDBRANCH  10  11
ENDBRANCH   1  10
BRANCH   3  17
ATOM     17  C   UNL     1       2.222   7.782  19.868  0.00  0.00    +0.000 C 
BRANCH  17  18
ATOM     18  C   UNL     1       1.421   8.737  18.999  0.00  0.00    +0.000 C 
ATOM     19  O   UNL     1       1.582   8.746  17.774  0.00  0.00    +0.000 OA
ATOM     20  N   UNL     1       0.531   9.651  19.609  0.00  0.00    +0.000 N 
BRANCH  20  21
ATOM     21  C   UNL     1      -0.065   9.532  20.977  0.00  0.00    +0.000 C 
ATOM     22  C   UNL     1      -0.509   8.112  21.331  0.00  0.00    +0.000 C 
ATOM     23  C   UNL     1       0.762  10.127  22.118  0.00  0.00    +0.000 C 
ENDBRANCH  20  21
BRANCH  20  24
ATOM     24  C   UNL     1      -0.041  10.658  18.665  0.00  0.00    +0.000 C 
ATOM     25  C   UNL     1      -1.566  10.560  18.534  0.00  0.00    +0.000 C 
ATOM     26  C   UNL     1       0.371  12.110  18.921  0.00  0.00    +0.000 C 
ENDBRANCH  20  24
ENDBRANCH  17  18
ENDBRANCH   3  17
TORSDOF 7
ENDMDL
MODEL 9
REMARK VINA RESULT:      -6.8      1.082      2.007
REMARK  Name = 
REMARK  12 active torsions:
REMARK  status: ('A' for Active; 'I' for Inactive)
REMARK    1  A    between atoms: C_1  and  N_2
REMARK    2  A    between atoms: C_3  and  C_5
REMARK    3  A    between atoms: C_5  and  S_6
REMARK    4  A    between atoms: S_6  and  C_7
REMARK    5  A    between atoms: N_9  and  C_10
REMARK    6  A    between atoms: C_10  and  C_11
REMARK    7  A    between atoms: N_13  and  C_14
REMARK    8  A    between atoms: N_13  and  C_17
REMARK    9  A    between atoms: C_14  and  C_15
REMARK   10  A    between atoms: C_14  and  C_16
REMARK   11  A    between atoms: C_17  and  C_18
REMARK   12  A    between atoms: C_17  and  C_19
REMARK                            x       y       z     vdW  Elec       q    Type
REMARK                         _______ _______ _______ _____ _____    ______ ____
ROOT
ATOM      1  C   UNL     1       4.861   5.125  17.795  0.00  0.00    +0.000 A 
ATOM      2  C   UNL     1       4.365   6.406  17.818  0.00  0.00    +0.000 A 
ATOM      3  N   UNL     1       3.014   6.332  18.059  0.00  0.00    +0.000 N 
ATOM      4  C   UNL     1       2.616   5.006  18.089  0.00  0.00    +0.000 A 
ATOM      5  C   UNL     1       1.347   4.426  18.258  0.00  0.00    +0.000 A 
ATOM      6  C   UNL     1       1.255   3.032  18.296  0.00  0.00    +0.000 A 
ATOM      7  C   UNL     1       2.385   2.235  18.154  0.00  0.00    +0.000 A 
ATOM      8  C   UNL     1       3.644   2.819  17.970  0.00  0.00    +0.000 A 
ATOM      9  C   UNL     1       3.770   4.224  17.940  0.00  0.00    +0.000 A 
ENDROOT
BRANCH   1  10
ATOM     10  S   UNL     1       6.536   4.655  17.583  0.00  0.00    +0.000 S 
BRANCH  10  11
ATOM     11  C   UNL     1       7.201   6.129  16.761  0.00  0.00    +0.000 C 
BRANCH  11  14
ATOM     12  C   UNL     1       8.393   9.427  18.207  0.00  0.00    +0.000 C 
ATOM     13  N   UNL     1       7.902   8.398  17.328  0.00  0.00    +0.000 N 
ATOM     14  C   UNL     1       7.778   7.096  17.775  0.00  0.00    +0.000 C 
ATOM     15  O   UNL     1       8.161   6.732  18.881  0.00  0.00    +0.000 OA
ATOM     16  H   UNL     1       7.420   8.663  16.477  0.00  0.00    +0.000 HD
ENDBRANCH  11  14
ENDBRANCH  10  11
ENDBRANCH   1  10
BRANCH   3  17
ATOM     17  C   UNL     1       2.126   7.499  18.145  0.00  0.00    +0.000 C 
BRANCH  17  18
ATOM     18  C   UNL     1       1.784   7.919  19.565  0.00  0.00    +0.000 C 
ATOM     19  O   UNL     1       2.140   7.223  20.522  0.00  0.00    +0.000 OA
ATOM     20  N   UNL     1       1.007   9.081  19.777  0.00  0.00    +0.000 N 
BRANCH  20  21
ATOM     21  C   UNL     1       0.824  10.215  18.818  0.00  0.00    +0.000 C 
ATOM     22  C   UNL     1      -0.546  10.229  18.138  0.00  0.00    +0.000 C 
ATOM     23  C   UNL     1       1.160  11.606  19.359  0.00  0.00    +0.000 C 
ENDBRANCH  20  21
BRANCH  20  24
ATOM     24  C   UNL     1       0.579   9.269  21.197  0.00  0.00    +0.000 C 
ATOM     25  C   UNL     1      -0.555   8.323  21.612  0.00  0.00    +0.000 C 
ATOM     26  C   UNL     1       1.703   9.228  22.235  0.00  0.00    +0.000 C 
ENDBRANCH  20  24
ENDBRANCH  17  18
ENDBRANCH   3  17
TORSDOF 7
ENDMDL
