MODEL 1
REMARK VINA RESULT:      -7.5      0.000      0.000
REMARK  Name = 
REMARK  8 active torsions:
REMARK  status: ('A' for Active; 'I' for Inactive)
REMARK    1  A    between atoms: C_1  and  O_2
REMARK    2  A    between atoms: O_2  and  C_3
REMARK    3  A    between atoms: C_6  and  N_7
REMARK    4  A    between atoms: C_8  and  C_10
REMARK    5  A    between atoms: C_10  and  C_11
REMARK    6  A    between atoms: C_11  and  N_12
REMARK    7  A    between atoms: N_15  and  S_16
REMARK    8  A    between atoms: S_16  and  C_19
REMARK                            x       y       z     vdW  Elec       q    Type
REMARK                         _______ _______ _______ _____ _____    ______ ____
ROOT
ATOM      1  N   UNL     1       7.300   7.039  17.105  0.00  0.00    +0.000 NA
ATOM      2  C   UNL     1       7.488   5.987  18.126  0.00  0.00    +0.000 C 
ATOM      3  C   UNL     1       6.388   5.959  19.196  0.00  0.00    +0.000 C 
ATOM      4  N   UNL     1       5.028   5.802  18.598  0.00  0.00    +0.000 NA
ATOM      5  C   UNL     1       4.795   6.885  17.586  0.00  0.00    +0.000 C 
ATOM      6  C   UNL     1       5.933   6.951  16.540  0.00  0.00    +0.000 C 
ENDROOT
BRANCH   4   7
ATOM      7  S   UNL     1       4.578   4.242  18.043  0.00  0.00    +0.000 S 
ATOM      8  O   UNL     1       3.932   4.403  16.761  0.00  0.00    +0.000 OA
ATOM      9  O   UNL     1       5.699   3.345  18.202  0.00  0.00    +0.000 OA
BRANCH   7  10
ATOM     10  C   UNL     1       3.332   3.762  19.221  0.00  0.00    +0.000 A 
ATOM     11  C   UNL     1       3.009   4.633  20.263  0.00  0.00    +0.000 A 
ATOM     12  C   UNL     1       2.110   4.217  21.244  0.00  0.00    +0.000 A 
ATOM     13  C   UNL     1       1.543   2.947  21.162  0.00  0.00    +0.000 A 
ATOM     14  F   UNL     1       0.698   2.543  22.119  0.00  0.00    +0.000 F 
ATOM     15  C   UNL     1       1.846   2.085  20.112  0.00  0.00    +0.000 A 
ATOM     16  C   UNL     1       2.744   2.493  19.128  0.00  0.00    +0.000 A 
ENDBRANCH   7  10
ENDBRANCH   4   7
BRANCH   1  17
ATOM     17  C   UNL     1       7.618   8.395  17.566  0.00  0.00    +0.000 C 
BRANCH  17  18
ATOM     18  C   UNL     1       8.589   8.475  18.749  0.00  0.00    +0.000 C 
BRANCH  18  20
ATOM     19  N   UNL     1       8.904  10.722  17.908  0.00  0.00    +0.000 N 
ATOM     20  C   UNL     1       9.052   9.892  19.007  0.00  0.00    +0.000 C 
ATOM     21  O   UNL     1       9.475  10.222  20.111  0.00  0.00    +0.000 OA
ATOM     22  H   UNL     1       8.281  10.412  17.174  0.00  0.00    +0.000 HD
BRANCH  19  26
ATOM     23  C   UNL     1      10.363  14.666  17.609  0.00  0.00    +0.000 A 
ATOM     24  C   UNL     1       9.031  14.447  17.956  0.00  0.00    +0.000 A 
ATOM     25  C   UNL     1       8.533  13.148  18.073  0.00  0.00    +0.000 A 
ATOM     26  C   UNL     1       9.359  12.053  17.827  0.00  0.00    +0.000 A 
ATOM     27  C   UNL     1      10.703  12.271  17.504  0.00  0.00    +0.000 A 
ATOM     28  C   UNL     1      11.199  13.575  17.378  0.00  0.00    +0.000 A 
BRANCH  23  30
ATOM     29  C   UNL     1      10.912  16.681  18.717  0.00  0.00    +0.000 C 
ATOM     30  O   UNL     1      10.719  15.981  17.495  0.00  0.00    +0.000 OA
ENDBRANCH  23  30
ENDBRANCH  19  26
ENDBRANCH  18  20
ENDBRANCH  17  18
ENDBRANCH   1  17
TORSDOF 7
ENDMDL
MODEL 2
REMARK VINA RESULT:      -7.3      6.292      8.239
REMARK  Name = 
REMARK  8 active torsions:
REMARK  status: ('A' for Active; 'I' for Inactive)
REMARK    1  A    between atoms: C_1  and  O_2
REMARK    2  A    between atoms: O_2  and  C_3
REMARK    3  A    between atoms: C_6  and  N_7
REMARK    4  A    between atoms: C_8  and  C_10
REMARK    5  A    between atoms: C_10  and  C_11
REMARK    6  A    between atoms: C_11  and  N_12
REMARK    7  A    between atoms: N_15  and  S_16
REMARK    8  A    between atoms: S_16  and  C_19
REMARK                            x       y       z     vdW  Elec       q    Type
REMARK                         _______ _______ _______ _____ _____    ______ ____
ROOT
ATOM      1  N   UNL     1       4.542   4.780  18.254  0.00  0.00    +0.000 NA
ATOM      2  C   UNL     1       5.820   5.512  18.130  0.00  0.00    +0.000 C 
ATOM      3  C   UNL     1       6.951   4.683  17.507  0.00  0.00    +0.000 C 
ATOM      4  N   UNL     1       6.578   4.147  16.163  0.00  0.00    +0.000 NA
ATOM      5  C   UNL     1       5.303   3.363  16.269  0.00  0.00    +0.000 C 
ATOM      6  C   UNL     1       4.179   4.180  16.949  0.00  0.00    +0.000 C 
ENDROOT
BRANCH   4   7
ATOM      7  S   UNL     1       6.599   5.238  14.839  0.00  0.00    +0.000 S 
ATOM      8  O   UNL     1       5.498   6.157  15.011  0.00  0.00    +0.000 OA
ATOM      9  O   UNL     1       7.947   5.722  14.649  0.00  0.00    +0.000 OA
BRANCH   7  10
ATOM     10  C   UNL     1       6.209   4.178  13.463  0.00  0.00    +0.000 A 
ATOM     11  C   UNL     1       4.870   3.959  13.131  0.00  0.00    +0.000 A 
ATOM     12  C   UNL     1       4.559   3.050  12.121  0.00  0.00    +0.000 A 
ATOM     13  C   UNL     1       5.586   2.384  11.455  0.00  0.00    +0.000 A 
ATOM     14  F   UNL     1       5.282   1.496  10.502  0.00  0.00    +0.000 F 
ATOM     15  C   UNL     1       6.923   2.618  11.768  0.00  0.00    +0.000 A 
ATOM     16  C   UNL     1       7.242   3.525  12.776  0.00  0.00    +0.000 A 
ENDBRANCH   7  10
ENDBRANCH   4   7
BRANCH   1  17
ATOM     17  C   UNL     1       4.511   3.794  19.341  0.00  0.00    +0.000 C 
BRANCH  17  18
ATOM     18  C   UNL     1       3.328   3.920  20.307  0.00  0.00    +0.000 C 
BRANCH  18  20
ATOM     19  N   UNL     1       2.829   6.274  20.056  0.00  0.00    +0.000 N 
ATOM     20  C   UNL     1       2.350   4.988  19.869  0.00  0.00    +0.000 C 
ATOM     21  O   UNL     1       1.270   4.682  19.373  0.00  0.00    +0.000 OA
ATOM     22  H   UNL     1       3.825   6.383  20.188  0.00  0.00    +0.000 HD
BRANCH  19  26
ATOM     23  C   UNL     1       0.605   9.820  19.551  0.00  0.00    +0.000 A 
ATOM     24  C   UNL     1       1.317   9.292  18.475  0.00  0.00    +0.000 A 
ATOM     25  C   UNL     1       2.048   8.112  18.619  0.00  0.00    +0.000 A 
ATOM     26  C   UNL     1       2.089   7.455  19.847  0.00  0.00    +0.000 A 
ATOM     27  C   UNL     1       1.354   7.970  20.921  0.00  0.00    +0.000 A 
ATOM     28  C   UNL     1       0.629   9.160  20.778  0.00  0.00    +0.000 A 
BRANCH  23  30
ATOM     29  C   UNL     1      -1.093  10.928  18.335  0.00  0.00    +0.000 C 
ATOM     30  O   UNL     1      -0.043  10.995  19.290  0.00  0.00    +0.000 OA
ENDBRANCH  23  30
ENDBRANCH  19  26
ENDBRANCH  18  20
ENDBRANCH  17  18
ENDBRANCH   1  17
TORSDOF 7
ENDMDL
MODEL 3
REMARK VINA RESULT:      -7.2      6.606      9.067
REMARK  Name = 
REMARK  8 active torsions:
REMARK  status: ('A' for Active; 'I' for Inactive)
REMARK    1  A    between atoms: C_1  and  O_2
REMARK    2  A    between atoms: O_2  and  C_3
REMARK    3  A    between atoms: C_6  and  N_7
REMARK    4  A    between atoms: C_8  and  C_10
REMARK    5  A    between atoms: C_10  and  C_11
REMARK    6  A    between atoms: C_11  and  N_12
REMARK    7  A    between atoms: N_15  and  S_16
REMARK    8  A    between atoms: S_16  and  C_19
REMARK                            x       y       z     vdW  Elec       q    Type
REMARK                         _______ _______ _______ _____ _____    ______ ____
ROOT
ATOM      1  N   UNL     1       2.424   5.831  20.673  0.00  0.00    +0.000 NA
ATOM      2  C   UNL     1       2.087   4.391  20.660  0.00  0.00    +0.000 C 
ATOM      3  C   UNL     1       1.681   3.863  19.277  0.00  0.00    +0.000 C 
ATOM      4  N   UNL     1       2.736   4.114  18.249  0.00  0.00    +0.000 NA
ATOM      5  C   UNL     1       3.067   5.578  18.214  0.00  0.00    +0.000 C 
ATOM      6  C   UNL     1       3.421   6.123  19.618  0.00  0.00    +0.000 C 
ENDROOT
BRANCH   4   7
ATOM      7  S   UNL     1       4.121   3.102  18.269  0.00  0.00    +0.000 S 
ATOM      8  O   UNL     1       4.767   3.268  19.551  0.00  0.00    +0.000 OA
ATOM      9  O   UNL     1       3.753   1.790  17.788  0.00  0.00    +0.000 OA
BRANCH   7  10
ATOM     10  C   UNL     1       5.163   3.855  17.037  0.00  0.00    +0.000 A 
ATOM     11  C   UNL     1       4.779   3.800  15.695  0.00  0.00    +0.000 A 
ATOM     12  C   UNL     1       5.641   4.296  14.719  0.00  0.00    +0.000 A 
ATOM     13  C   UNL     1       6.864   4.847  15.098  0.00  0.00    +0.000 A 
ATOM     14  F   UNL     1       7.698   5.302  14.156  0.00  0.00    +0.000 F 
ATOM     15  C   UNL     1       7.239   4.924  16.437  0.00  0.00    +0.000 A 
ATOM     16  C   UNL     1       6.383   4.429  17.418  0.00  0.00    +0.000 A 
ENDBRANCH   7  10
ENDBRANCH   4   7
BRANCH   1  17
ATOM     17  C   UNL     1       1.263   6.725  20.596  0.00  0.00    +0.000 C 
BRANCH  17  18
ATOM     18  C   UNL     1       1.474   8.126  21.180  0.00  0.00    +0.000 C 
BRANCH  18  20
ATOM     19  N   UNL     1       0.224  10.193  21.325  0.00  0.00    +0.000 N 
ATOM     20  C   UNL     1       0.162   8.818  21.481  0.00  0.00    +0.000 C 
ATOM     21  O   UNL     1      -0.830   8.168  21.795  0.00  0.00    +0.000 OA
ATOM     22  H   UNL     1       0.994  10.564  20.786  0.00  0.00    +0.000 HD
BRANCH  19  26
ATOM     23  C   UNL     1      -2.898  12.895  22.181  0.00  0.00    +0.000 A 
ATOM     24  C   UNL     1      -2.304  12.174  23.217  0.00  0.00    +0.000 A 
ATOM     25  C   UNL     1      -1.260  11.285  22.954  0.00  0.00    +0.000 A 
ATOM     26  C   UNL     1      -0.809  11.094  21.649  0.00  0.00    +0.000 A 
ATOM     27  C   UNL     1      -1.388  11.835  20.613  0.00  0.00    +0.000 A 
ATOM     28  C   UNL     1      -2.441  12.720  20.876  0.00  0.00    +0.000 A 
BRANCH  23  30
ATOM     29  C   UNL     1      -5.037  13.058  23.174  0.00  0.00    +0.000 C 
ATOM     30  O   UNL     1      -3.929  13.706  22.563  0.00  0.00    +0.000 OA
ENDBRANCH  23  30
ENDBRANCH  19  26
ENDBRANCH  18  20
ENDBRANCH  17  18
ENDBRANCH   1  17
TORSDOF 7
ENDMDL
MODEL 4
REMARK VINA RESULT:      -7.2      0.894      1.362
REMARK  Name = 
REMARK  8 active torsions:
REMARK  status: ('A' for Active; 'I' for Inactive)
REMARK    1  A    between atoms: C_1  and  O_2
REMARK    2  A    between atoms: O_2  and  C_3
REMARK    3  A    between atoms: C_6  and  N_7
REMARK    4  A    between atoms: C_8  and  C_10
REMARK    5  A    between atoms: C_10  and  C_11
REMARK    6  A    between atoms: C_11  and  N_12
REMARK    7  A    between atoms: N_15  and  S_16
REMARK    8  A    between atoms: S_16  and  C_19
REMARK                            x       y       z     vdW  Elec       q    Type
REMARK                         _______ _______ _______ _____ _____    ______ ____
ROOT
ATOM      1  N   UNL     1       7.649   6.092  17.770  0.00  0.00    +0.000 NA
ATOM      2  C   UNL     1       7.257   5.102  18.795  0.00  0.00    +0.000 C 
ATOM      3  C   UNL     1       5.995   5.488  19.578  0.00  0.00    +0.000 C 
ATOM      4  N   UNL     1       4.827   5.726  18.677  0.00  0.00    +0.000 NA
ATOM      5  C   UNL     1       5.186   6.759  17.650  0.00  0.00    +0.000 C 
ATOM      6  C   UNL     1       6.490   6.398  16.900  0.00  0.00    +0.000 C 
ENDROOT
BRANCH   4   7
ATOM      7  S   UNL     1       4.041   4.352  18.016  0.00  0.00    +0.000 S 
ATOM      8  O   UNL     1       3.155   4.814  16.972  0.00  0.00    +0.000 OA
ATOM      9  O   UNL     1       5.024   3.326  17.756  0.00  0.00    +0.000 OA
BRANCH   7  10
ATOM     10  C   UNL     1       3.032   3.798  19.375  0.00  0.00    +0.000 A 
ATOM     11  C   UNL     1       3.607   3.008  20.372  0.00  0.00    +0.000 A 
ATOM     12  C   UNL     1       2.798   2.487  21.380  0.00  0.00    +0.000 A 
ATOM     13  C   UNL     1       1.434   2.773  21.382  0.00  0.00    +0.000 A 
ATOM     14  F   UNL     1       0.657   2.252  22.340  0.00  0.00    +0.000 F 
ATOM     15  C   UNL     1       0.861   3.579  20.402  0.00  0.00    +0.000 A 
ATOM     16  C   UNL     1       1.664   4.103  19.391  0.00  0.00    +0.000 A 
ENDBRANCH   7  10
ENDBRANCH   4   7
BRANCH   1  17
ATOM     17  C   UNL     1       8.271   7.308  18.307  0.00  0.00    +0.000 C 
BRANCH  17  18
ATOM     18  C   UNL     1       7.822   8.618  17.652  0.00  0.00    +0.000 C 
BRANCH  18  20
ATOM     19  N   UNL     1       8.299  10.987  17.523  0.00  0.00    +0.000 N 
ATOM     20  C   UNL     1       8.573   9.812  18.202  0.00  0.00    +0.000 C 
ATOM     21  O   UNL     1       9.310   9.693  19.176  0.00  0.00    +0.000 OA
ATOM     22  H   UNL     1       7.468  11.007  16.948  0.00  0.00    +0.000 HD
BRANCH  19  26
ATOM     23  C   UNL     1      10.123  14.724  18.224  0.00  0.00    +0.000 A 
ATOM     24  C   UNL     1      10.915  13.603  17.978  0.00  0.00    +0.000 A 
ATOM     25  C   UNL     1      10.329  12.360  17.730  0.00  0.00    +0.000 A 
ATOM     26  C   UNL     1       8.943  12.221  17.743  0.00  0.00    +0.000 A 
ATOM     27  C   UNL     1       8.146  13.350  17.964  0.00  0.00    +0.000 A 
ATOM     28  C   UNL     1       8.735  14.595  18.221  0.00  0.00    +0.000 A 
BRANCH  23  30
ATOM     29  C   UNL     1      10.775  16.867  17.469  0.00  0.00    +0.000 C 
ATOM     30  O   UNL     1      10.816  15.872  18.483  0.00  0.00    +0.000 OA
ENDBRANCH  23  30
ENDBRANCH  19  26
ENDBRANCH  18  20
ENDBRANCH  17  18
ENDBRANCH   1  17
TORSDOF 7
ENDMDL
MODEL 5
REMARK VINA RESULT:      -7.2      5.097      7.976
REMARK  Name = 
REMARK  8 active torsions:
REMARK  status: ('A' for Active; 'I' for Inactive)
REMARK    1  A    between atoms: C_1  and  O_2
REMARK    2  A    between atoms: O_2  and  C_3
REMARK    3  A    between atoms: C_6  and  N_7
REMARK    4  A    between atoms: C_8  and  C_10
REMARK    5  A    between atoms: C_10  and  C_11
REMARK    6  A    between atoms: C_11  and  N_12
REMARK    7  A    between atoms: N_15  and  S_16
REMARK    8  A    between atoms: S_16  and  C_19
REMARK                            x       y       z     vdW  Elec       q    Type
REMARK                         _______ _______ _______ _____ _____    ______ ____
ROOT
ATOM      1  N   UNL     1       3.528   2.408  19.285  0.00  0.00    +0.000 NA
ATOM      2  C   UNL     1       3.195   2.396  17.845  0.00  0.00    +0.000 C 
ATOM      3  C   UNL     1       2.902   3.787  17.265  0.00  0.00    +0.000 C 
ATOM      4  N   UNL     1       4.036   4.735  17.483  0.00  0.00    +0.000 NA
ATOM      5  C   UNL     1       4.368   4.797  18.945  0.00  0.00    +0.000 C 
ATOM      6  C   UNL     1       4.607   3.390  19.542  0.00  0.00    +0.000 C 
ENDROOT
BRANCH   4   7
ATOM      7  S   UNL     1       5.416   4.567  16.477  0.00  0.00    +0.000 S 
ATOM      8  O   UNL     1       5.955   3.243  16.690  0.00  0.00    +0.000 OA
ATOM      9  O   UNL     1       5.090   5.031  15.148  0.00  0.00    +0.000 OA
BRANCH   7  10
ATOM     10  C   UNL     1       6.555   5.735  17.191  0.00  0.00    +0.000 A 
ATOM     11  C   UNL     1       7.392   5.322  18.229  0.00  0.00    +0.000 A 
ATOM     12  C   UNL     1       8.210   6.259  18.859  0.00  0.00    +0.000 A 
ATOM     13  C   UNL     1       8.186   7.587  18.435  0.00  0.00    +0.000 A 
ATOM     14  F   UNL     1       8.956   8.487  19.057  0.00  0.00    +0.000 F 
ATOM     15  C   UNL     1       7.369   7.997  17.384  0.00  0.00    +0.000 A 
ATOM     16  C   UNL     1       6.548   7.066  16.751  0.00  0.00    +0.000 A 
ENDBRANCH   7  10
ENDBRANCH   4   7
BRANCH   1  17
ATOM     17  C   UNL     1       2.376   2.611  20.172  0.00  0.00    +0.000 C 
BRANCH  17  18
ATOM     18  C   UNL     1       2.477   3.817  21.112  0.00  0.00    +0.000 C 
BRANCH  18  20
ATOM     19  N   UNL     1       2.262   6.195  20.716  0.00  0.00    +0.000 N 
ATOM     20  C   UNL     1       1.616   4.971  20.645  0.00  0.00    +0.000 C 
ATOM     21  O   UNL     1       0.480   4.775  20.225  0.00  0.00    +0.000 OA
ATOM     22  H   UNL     1       3.270   6.183  20.792  0.00  0.00    +0.000 HD
BRANCH  19  26
ATOM     23  C   UNL     1       0.496   9.920  19.831  0.00  0.00    +0.000 A 
ATOM     24  C   UNL     1       0.283   9.333  21.077  0.00  0.00    +0.000 A 
ATOM     25  C   UNL     1       0.871   8.107  21.394  0.00  0.00    +0.000 A 
ATOM     26  C   UNL     1       1.664   7.445  20.459  0.00  0.00    +0.000 A 
ATOM     27  C   UNL     1       1.899   8.044  19.217  0.00  0.00    +0.000 A 
ATOM     28  C   UNL     1       1.301   9.270  18.897  0.00  0.00    +0.000 A 
BRANCH  23  30
ATOM     29  C   UNL     1       0.579  12.119  18.968  0.00  0.00    +0.000 C 
ATOM     30  O   UNL     1      -0.160  11.102  19.632  0.00  0.00    +0.000 OA
ENDBRANCH  23  30
ENDBRANCH  19  26
ENDBRANCH  18  20
ENDBRANCH  17  18
ENDBRANCH   1  17
TORSDOF 7
ENDMDL
MODEL 6
REMARK VINA RESULT:      -7.1      6.387      9.216
REMARK  Name = 
REMARK  8 active torsions:
REMARK  status: ('A' for Active; 'I' for Inactive)
REMARK    1  A    between atoms: C_1  and  O_2
REMARK    2  A    between atoms: O_2  and  C_3
REMARK    3  A    between atoms: C_6  and  N_7
REMARK    4  A    between atoms: C_8  and  C_10
REMARK    5  A    between atoms: C_10  and  C_11
REMARK    6  A    between atoms: C_11  and  N_12
REMARK    7  A    between atoms: N_15  and  S_16
REMARK    8  A    between atoms: S_16  and  C_19
REMARK                            x       y       z     vdW  Elec       q    Type
REMARK                         _______ _______ _______ _____ _____    ______ ____
ROOT
ATOM      1  N   UNL     1       1.865   7.794  20.580  0.00  0.00    +0.000 NA
ATOM      2  C   UNL     1       1.815   8.737  19.443  0.00  0.00    +0.000 C 
ATOM      3  C   UNL     1       0.395   9.189  19.075  0.00  0.00    +0.000 C 
ATOM      4  N   UNL     1      -0.315   9.806  20.236  0.00  0.00    +0.000 NA
ATOM      5  C   UNL     1      -0.315   8.850  21.392  0.00  0.00    +0.000 C 
ATOM      6  C   UNL     1       1.111   8.351  21.727  0.00  0.00    +0.000 C 
ENDROOT
BRANCH   4   7
ATOM      7  S   UNL     1       0.119  11.407  20.673  0.00  0.00    +0.000 S 
ATOM      8  O   UNL     1       1.108  11.320  21.724  0.00  0.00    +0.000 OA
ATOM      9  O   UNL     1       0.376  12.170  19.474  0.00  0.00    +0.000 OA
BRANCH   7  10
ATOM     10  C   UNL     1      -1.385  12.028  21.396  0.00  0.00    +0.000 A 
ATOM     11  C   UNL     1      -1.559  11.949  22.779  0.00  0.00    +0.000 A 
ATOM     12  C   UNL     1      -2.775  12.338  23.336  0.00  0.00    +0.000 A 
ATOM     13  C   UNL     1      -3.791  12.810  22.506  0.00  0.00    +0.000 A 
ATOM     14  F   UNL     1      -4.966  13.162  23.043  0.00  0.00    +0.000 F 
ATOM     15  C   UNL     1      -3.612  12.911  21.129  0.00  0.00    +0.000 A 
ATOM     16  C   UNL     1      -2.399  12.523  20.565  0.00  0.00    +0.000 A 
ENDBRANCH   7  10
ENDBRANCH   4   7
BRANCH   1  17
ATOM     17  C   UNL     1       1.441   6.428  20.253  0.00  0.00    +0.000 C 
BRANCH  17  18
ATOM     18  C   UNL     1       2.345   5.314  20.792  0.00  0.00    +0.000 C 
BRANCH  18  20
ATOM     19  N   UNL     1       4.134   5.786  19.233  0.00  0.00    +0.000 N 
ATOM     20  C   UNL     1       3.301   4.801  19.737  0.00  0.00    +0.000 C 
ATOM     21  O   UNL     1       3.313   3.613  19.427  0.00  0.00    +0.000 OA
ATOM     22  H   UNL     1       4.227   6.635  19.772  0.00  0.00    +0.000 HD
BRANCH  19  26
ATOM     23  C   UNL     1       6.758   5.345  15.962  0.00  0.00    +0.000 A 
ATOM     24  C   UNL     1       7.207   5.062  17.251  0.00  0.00    +0.000 A 
ATOM     25  C   UNL     1       6.349   5.189  18.345  0.00  0.00    +0.000 A 
ATOM     26  C   UNL     1       5.036   5.617  18.163  0.00  0.00    +0.000 A 
ATOM     27  C   UNL     1       4.576   5.878  16.867  0.00  0.00    +0.000 A 
ATOM     28  C   UNL     1       5.441   5.759  15.771  0.00  0.00    +0.000 A 
BRANCH  23  30
ATOM     29  C   UNL     1       7.220   4.832  13.701  0.00  0.00    +0.000 C 
ATOM     30  O   UNL     1       7.702   5.214  14.982  0.00  0.00    +0.000 OA
ENDBRANCH  23  30
ENDBRANCH  19  26
ENDBRANCH  18  20
ENDBRANCH  17  18
ENDBRANCH   1  17
TORSDOF 7
ENDMDL
MODEL 7
REMARK VINA RESULT:      -7.0      1.946      2.232
REMARK  Name = 
REMARK  8 active torsions:
REMARK  status: ('A' for Active; 'I' for Inactive)
REMARK    1  A    between atoms: C_1  and  O_2
REMARK    2  A    between atoms: O_2  and  C_3
REMARK    3  A    between atoms: C_6  and  N_7
REMARK    4  A    between atoms: C_8  and  C_10
REMARK    5  A    between atoms: C_10  and  C_11
REMARK    6  A    between atoms: C_11  and  N_12
REMARK    7  A    between atoms: N_15  and  S_16
REMARK    8  A    between atoms: S_16  and  C_19
REMARK                            x       y       z     vdW  Elec       q    Type
REMARK                         _______ _______ _______ _____ _____    ______ ____
ROOT
ATOM      1  N   UNL     1       7.275   5.531  18.353  0.00  0.00    +0.000 NA
ATOM      2  C   UNL     1       6.374   4.938  19.364  0.00  0.00    +0.000 C 
ATOM      3  C   UNL     1       4.974   5.567  19.392  0.00  0.00    +0.000 C 
ATOM      4  N   UNL     1       4.303   5.499  18.059  0.00  0.00    +0.000 NA
ATOM      5  C   UNL     1       5.180   6.133  17.020  0.00  0.00    +0.000 C 
ATOM      6  C   UNL     1       6.608   5.538  17.030  0.00  0.00    +0.000 C 
ENDROOT
BRANCH   4   7
ATOM      7  S   UNL     1       3.653   3.987  17.573  0.00  0.00    +0.000 S 
ATOM      8  O   UNL     1       2.664   4.244  16.551  0.00  0.00    +0.000 OA
ATOM      9  O   UNL     1       4.737   3.061  17.341  0.00  0.00    +0.000 OA
BRANCH   7  10
ATOM     10  C   UNL     1       2.792   3.452  19.036  0.00  0.00    +0.000 A 
ATOM     11  C   UNL     1       1.475   3.870  19.242  0.00  0.00    +0.000 A 
ATOM     12  C   UNL     1       0.834   3.538  20.434  0.00  0.00    +0.000 A 
ATOM     13  C   UNL     1       1.512   2.789  21.394  0.00  0.00    +0.000 A 
ATOM     14  F   UNL     1       0.900   2.492  22.546  0.00  0.00    +0.000 F 
ATOM     15  C   UNL     1       2.817   2.351  21.181  0.00  0.00    +0.000 A 
ATOM     16  C   UNL     1       3.464   2.679  19.992  0.00  0.00    +0.000 A 
ENDBRANCH   7  10
ENDBRANCH   4   7
BRANCH   1  17
ATOM     17  C   UNL     1       7.801   6.853  18.712  0.00  0.00    +0.000 C 
BRANCH  17  18
ATOM     18  C   UNL     1       8.026   7.810  17.537  0.00  0.00    +0.000 C 
BRANCH  18  20
ATOM     19  N   UNL     1       9.236   9.376  18.930  0.00  0.00    +0.000 N 
ATOM     20  C   UNL     1       8.220   9.238  17.999  0.00  0.00    +0.000 C 
ATOM     21  O   UNL     1       7.536  10.146  17.533  0.00  0.00    +0.000 OA
ATOM     22  H   UNL     1       9.903   8.620  19.002  0.00  0.00    +0.000 HD
BRANCH  19  26
ATOM     23  C   UNL     1      10.234  12.979  20.878  0.00  0.00    +0.000 A 
ATOM     24  C   UNL     1       9.360  12.082  21.490  0.00  0.00    +0.000 A 
ATOM     25  C   UNL     1       9.028  10.878  20.866  0.00  0.00    +0.000 A 
ATOM     26  C   UNL     1       9.555  10.565  19.615  0.00  0.00    +0.000 A 
ATOM     27  C   UNL     1      10.452  11.453  19.011  0.00  0.00    +0.000 A 
ATOM     28  C   UNL     1      10.777  12.665  19.633  0.00  0.00    +0.000 A 
BRANCH  23  30
ATOM     29  C   UNL     1       9.368  15.052  21.613  0.00  0.00    +0.000 C 
ATOM     30  O   UNL     1      10.453  14.135  21.574  0.00  0.00    +0.000 OA
ENDBRANCH  23  30
ENDBRANCH  19  26
ENDBRANCH  18  20
ENDBRANCH  17  18
ENDBRANCH   1  17
TORSDOF 7
ENDMDL
MODEL 8
REMARK VINA RESULT:      -6.9      6.652      9.006
REMARK  Name = 
REMARK  8 active torsions:
REMARK  status: ('A' for Active; 'I' for Inactive)
REMARK    1  A    between atoms: C_1  and  O_2
REMARK    2  A    between atoms: O_2  and  C_3
REMARK    3  A    between atoms: C_6  and  N_7
REMARK    4  A    between atoms: C_8  and  C_10
REMARK    5  A    between atoms: C_10  and  C_11
REMARK    6  A    between atoms: C_11  and  N_12
REMARK    7  A    between atoms: N_15  and  S_16
REMARK    8  A    between atoms: S_16  and  C_19
REMARK                            x       y       z     vdW  Elec       q    Type
REMARK                         _______ _______ _______ _____ _____    ______ ____
ROOT
ATOM      1  N   UNL     1       2.484   6.125  20.468  0.00  0.00    +0.000 NA
ATOM      2  C   UNL     1       1.971   4.738  20.465  0.00  0.00    +0.000 C 
ATOM      3  C   UNL     1       1.561   4.231  19.076  0.00  0.00    +0.000 C 
ATOM      4  N   UNL     1       2.683   4.325  18.092  0.00  0.00    +0.000 NA
ATOM      5  C   UNL     1       3.195   5.735  18.045  0.00  0.00    +0.000 C 
ATOM      6  C   UNL     1       3.554   6.265  19.453  0.00  0.00    +0.000 C 
ENDROOT
BRANCH   4   7
ATOM      7  S   UNL     1       3.928   3.150  18.194  0.00  0.00    +0.000 S 
ATOM      8  O   UNL     1       4.531   3.262  19.502  0.00  0.00    +0.000 OA
ATOM      9  O   UNL     1       3.422   1.884  17.715  0.00  0.00    +0.000 OA
BRANCH   7  10
ATOM     10  C   UNL     1       5.111   3.742  17.001  0.00  0.00    +0.000 A 
ATOM     11  C   UNL     1       6.328   4.261  17.449  0.00  0.00    +0.000 A 
ATOM     12  C   UNL     1       7.211   4.819  16.527  0.00  0.00    +0.000 A 
ATOM     13  C   UNL     1       6.871   4.839  15.176  0.00  0.00    +0.000 A 
ATOM     14  F   UNL     1       7.712   5.397  14.297  0.00  0.00    +0.000 F 
ATOM     15  C   UNL     1       5.669   4.302  14.723  0.00  0.00    +0.000 A 
ATOM     16  C   UNL     1       4.780   3.742  15.639  0.00  0.00    +0.000 A 
ENDBRANCH   7  10
ENDBRANCH   4   7
BRANCH   1  17
ATOM     17  C   UNL     1       1.448   7.154  20.321  0.00  0.00    +0.000 C 
BRANCH  17  18
ATOM     18  C   UNL     1       1.489   8.278  21.362  0.00  0.00    +0.000 C 
BRANCH  18  20
ATOM     19  N   UNL     1       0.157  10.297  21.440  0.00  0.00    +0.000 N 
ATOM     20  C   UNL     1       0.131   8.917  21.558  0.00  0.00    +0.000 C 
ATOM     21  O   UNL     1      -0.862   8.226  21.765  0.00  0.00    +0.000 OA
ATOM     22  H   UNL     1       0.959  10.708  20.983  0.00  0.00    +0.000 HD
BRANCH  19  26
ATOM     23  C   UNL     1      -3.078  12.860  22.306  0.00  0.00    +0.000 A 
ATOM     24  C   UNL     1      -2.636  12.724  20.990  0.00  0.00    +0.000 A 
ATOM     25  C   UNL     1      -1.575  11.871  20.683  0.00  0.00    +0.000 A 
ATOM     26  C   UNL     1      -0.933  11.154  21.691  0.00  0.00    +0.000 A 
ATOM     27  C   UNL     1      -1.391  11.270  23.008  0.00  0.00    +0.000 A 
ATOM     28  C   UNL     1      -2.450  12.134  23.317  0.00  0.00    +0.000 A 
BRANCH  23  30
ATOM     29  C   UNL     1      -3.938  14.683  23.539  0.00  0.00    +0.000 C 
ATOM     30  O   UNL     1      -4.100  13.749  22.481  0.00  0.00    +0.000 OA
ENDBRANCH  23  30
ENDBRANCH  19  26
ENDBRANCH  18  20
ENDBRANCH  17  18
ENDBRANCH   1  17
TORSDOF 7
ENDMDL
MODEL 9
REMARK VINA RESULT:      -6.9      6.064      7.590
REMARK  Name = 
REMARK  8 active torsions:
REMARK  status: ('A' for Active; 'I' for Inactive)
REMARK    1  A    between atoms: C_1  and  O_2
REMARK    2  A    between atoms: O_2  and  C_3
REMARK    3  A    between atoms: C_6  and  N_7
REMARK    4  A    between atoms: C_8  and  C_10
REMARK    5  A    between atoms: C_10  and  C_11
REMARK    6  A    between atoms: C_11  and  N_12
REMARK    7  A    between atoms: N_15  and  S_16
REMARK    8  A    between atoms: S_16  and  C_19
REMARK                            x       y       z     vdW  Elec       q    Type
REMARK                         _______ _______ _______ _____ _____    ______ ____
ROOT
ATOM      1  N   UNL     1       2.701   6.479  20.266  0.00  0.00    +0.000 NA
ATOM      2  C   UNL     1       2.279   5.084  20.512  0.00  0.00    +0.000 C 
ATOM      3  C   UNL     1       1.714   4.380  19.272  0.00  0.00    +0.000 C 
ATOM      4  N   UNL     1       2.682   4.389  18.133  0.00  0.00    +0.000 NA
ATOM      5  C   UNL     1       3.095   5.800  17.835  0.00  0.00    +0.000 C 
ATOM      6  C   UNL     1       3.611   6.528  19.099  0.00  0.00    +0.000 C 
ENDROOT
BRANCH   4   7
ATOM      7  S   UNL     1       3.999   3.292  18.201  0.00  0.00    +0.000 S 
ATOM      8  O   UNL     1       4.629   3.443  19.492  0.00  0.00    +0.000 OA
ATOM      9  O   UNL     1       3.557   1.996  17.738  0.00  0.00    +0.000 OA
BRANCH   7  10
ATOM     10  C   UNL     1       5.110   3.951  16.976  0.00  0.00    +0.000 A 
ATOM     11  C   UNL     1       4.760   3.871  15.626  0.00  0.00    +0.000 A 
ATOM     12  C   UNL     1       5.673   4.292  14.660  0.00  0.00    +0.000 A 
ATOM     13  C   UNL     1       6.910   4.795  15.057  0.00  0.00    +0.000 A 
ATOM     14  F   UNL     1       7.792   5.177  14.125  0.00  0.00    +0.000 F 
ATOM     15  C   UNL     1       7.252   4.898  16.402  0.00  0.00    +0.000 A 
ATOM     16  C   UNL     1       6.346   4.479  17.374  0.00  0.00    +0.000 A 
ENDBRANCH   7  10
ENDBRANCH   4   7
BRANCH   1  17
ATOM     17  C   UNL     1       1.594   7.434  20.143  0.00  0.00    +0.000 C 
BRANCH  17  18
ATOM     18  C   UNL     1       1.098   8.038  21.461  0.00  0.00    +0.000 C 
BRANCH  18  20
ATOM     19  N   UNL     1       0.475   9.915  20.068  0.00  0.00    +0.000 N 
ATOM     20  C   UNL     1       0.847   9.526  21.343  0.00  0.00    +0.000 C 
ATOM     21  O   UNL     1       0.946  10.257  22.325  0.00  0.00    +0.000 OA
ATOM     22  H   UNL     1       0.147   9.195  19.440  0.00  0.00    +0.000 HD
BRANCH  19  26
ATOM     23  C   UNL     1      -0.159  13.909  18.873  0.00  0.00    +0.000 A 
ATOM     24  C   UNL     1       1.074  13.303  18.632  0.00  0.00    +0.000 A 
ATOM     25  C   UNL     1       1.298  11.978  19.008  0.00  0.00    +0.000 A 
ATOM     26  C   UNL     1       0.296  11.248  19.645  0.00  0.00    +0.000 A 
ATOM     27  C   UNL     1      -0.949  11.847  19.865  0.00  0.00    +0.000 A 
ATOM     28  C   UNL     1      -1.170  13.180  19.495  0.00  0.00    +0.000 A 
BRANCH  23  30
ATOM     29  C   UNL     1       0.195  16.176  19.443  0.00  0.00    +0.000 C 
ATOM     30  O   UNL     1      -0.241  15.218  18.488  0.00  0.00    +0.000 OA
ENDBRANCH  23  30
ENDBRANCH  19  26
ENDBRANCH  18  20
ENDBRANCH  17  18
ENDBRANCH   1  17
TORSDOF 7
ENDMDL
