MODEL 1
REMARK VINA RESULT:      -7.7      0.000      0.000
REMARK  Name = 
REMARK  6 active torsions:
REMARK  status: ('A' for Active; 'I' for Inactive)
REMARK    1  A    between atoms: C_1  and  C_2
REMARK    2  A    between atoms: C_2  and  C_3
REMARK    3  A    between atoms: C_3  and  C_4
REMARK    4  A    between atoms: C_6  and  C_7
REMARK    5  A    between atoms: C_9  and  C_10
REMARK    6  A    between atoms: C_10  and  C_11
REMARK                            x       y       z     vdW  Elec       q    Type
REMARK                         _______ _______ _______ _____ _____    ______ ____
ROOT
ATOM      1  C   UNL     1       4.190   4.909  17.247  0.00  0.00    +0.000 A 
ATOM      2  N   UNL     1       4.377   3.607  17.117  0.00  0.00    +0.000 NA
ATOM      3  C   UNL     1       3.613   2.997  18.067  0.00  0.00    +0.000 A 
ATOM      4  C   UNL     1       3.612   1.520  18.172  0.00  0.00    +0.000 C 
ATOM      5  C   UNL     1       2.935   3.940  18.806  0.00  0.00    +0.000 A 
ATOM      6  C   UNL     1       2.013   3.897  19.899  0.00  0.00    +0.000 A 
ATOM      7  C   UNL     1       1.601   5.098  20.344  0.00  0.00    +0.000 A 
ATOM      8  N   UNL     1       1.952   6.317  19.836  0.00  0.00    +0.000 NA
ATOM      9  C   UNL     1       2.760   6.397  18.809  0.00  0.00    +0.000 A 
ATOM     10  N   UNL     1       3.084   7.612  18.236  0.00  0.00    +0.000 N 
ATOM     11  C   UNL     1       2.291   8.708  18.325  0.00  0.00    +0.000 A 
ATOM     12  C   UNL     1       1.330   9.024  19.317  0.00  0.00    +0.000 A 
ATOM     13  C   UNL     1       0.754  10.204  18.916  0.00  0.00    +0.000 A 
ATOM     14  N   UNL     1       1.397  10.550  17.768  0.00  0.00    +0.000 N 
ATOM     15  N   UNL     1       2.348   9.674  17.400  0.00  0.00    +0.000 NA
ATOM     16  N   UNL     1       3.297   5.182  18.284  0.00  0.00    +0.000 N 
ATOM     17  H   UNL     1       3.673   7.634  17.423  0.00  0.00    +0.000 HD
ATOM     18  H   UNL     1       1.235  11.361  17.184  0.00  0.00    +0.000 HD
ENDROOT
BRANCH   6  19
ATOM     19  C   UNL     1       1.514   2.599  20.515  0.00  0.00    +0.000 C 
ATOM     20  C   UNL     1       1.592   2.455  22.033  0.00  0.00    +0.000 C 
ENDBRANCH   6  19
BRANCH   1  21
ATOM     21  C   UNL     1       4.880   5.909  16.370  0.00  0.00    +0.000 C 
BRANCH  21  23
ATOM     22  C   UNL     1       6.960   4.977  15.263  0.00  0.00    +0.000 C 
ATOM     23  C   UNL     1       5.474   5.258  15.113  0.00  0.00    +0.000 C 
ENDBRANCH  21  23
ENDBRANCH   1  21
TORSDOF 3
ENDMDL
MODEL 2
REMARK VINA RESULT:      -6.9      1.012      1.111
REMARK  Name = 
REMARK  6 active torsions:
REMARK  status: ('A' for Active; 'I' for Inactive)
REMARK    1  A    between atoms: C_1  and  C_2
REMARK    2  A    between atoms: C_2  and  C_3
REMARK    3  A    between atoms: C_3  and  C_4
REMARK    4  A    between atoms: C_6  and  C_7
REMARK    5  A    between atoms: C_9  and  C_10
REMARK    6  A    between atoms: C_10  and  C_11
REMARK                            x       y       z     vdW  Elec       q    Type
REMARK                         _______ _______ _______ _____ _____    ______ ____
ROOT
ATOM      1  C   UNL     1       4.154   5.333  17.769  0.00  0.00    +0.000 A 
ATOM      2  N   UNL     1       4.524   4.064  17.801  0.00  0.00    +0.000 NA
ATOM      3  C   UNL     1       3.965   3.514  18.917  0.00  0.00    +0.000 A 
ATOM      4  C   UNL     1       4.202   2.086  19.227  0.00  0.00    +0.000 C 
ATOM      5  C   UNL     1       3.231   4.461  19.594  0.00  0.00    +0.000 A 
ATOM      6  C   UNL     1       2.445   4.466  20.789  0.00  0.00    +0.000 A 
ATOM      7  C   UNL     1       1.902   5.655  21.109  0.00  0.00    +0.000 A 
ATOM      8  N   UNL     1       2.008   6.815  20.394  0.00  0.00    +0.000 NA
ATOM      9  C   UNL     1       2.682   6.841  19.273  0.00  0.00    +0.000 A 
ATOM     10  N   UNL     1       2.755   7.983  18.498  0.00  0.00    +0.000 N 
ATOM     11  C   UNL     1       1.817   8.961  18.531  0.00  0.00    +0.000 A 
ATOM     12  C   UNL     1       0.928   9.296  19.581  0.00  0.00    +0.000 A 
ATOM     13  C   UNL     1       0.139  10.309  19.094  0.00  0.00    +0.000 A 
ATOM     14  N   UNL     1       0.599  10.553  17.837  0.00  0.00    +0.000 N 
ATOM     15  N   UNL     1       1.629   9.768  17.479  0.00  0.00    +0.000 NA
ATOM     16  N   UNL     1       3.342   5.643  18.862  0.00  0.00    +0.000 N 
ATOM     17  H   UNL     1       3.246   7.957  17.623  0.00  0.00    +0.000 HD
ATOM     18  H   UNL     1       0.254  11.232  17.169  0.00  0.00    +0.000 HD
ENDROOT
BRANCH   6  19
ATOM     19  C   UNL     1       2.218   3.226  21.640  0.00  0.00    +0.000 C 
ATOM     20  C   UNL     1       1.052   2.311  21.270  0.00  0.00    +0.000 C 
ENDBRANCH   6  19
BRANCH   1  21
ATOM     21  C   UNL     1       4.588   6.267  16.680  0.00  0.00    +0.000 C 
BRANCH  21  23
ATOM     22  C   UNL     1       6.926   6.939  17.388  0.00  0.00    +0.000 C 
ATOM     23  C   UNL     1       6.091   6.154  16.390  0.00  0.00    +0.000 C 
ENDBRANCH  21  23
ENDBRANCH   1  21
TORSDOF 3
ENDMDL
MODEL 3
REMARK VINA RESULT:      -6.8      1.945      5.696
REMARK  Name = 
REMARK  6 active torsions:
REMARK  status: ('A' for Active; 'I' for Inactive)
REMARK    1  A    between atoms: C_1  and  C_2
REMARK    2  A    between atoms: C_2  and  C_3
REMARK    3  A    between atoms: C_3  and  C_4
REMARK    4  A    between atoms: C_6  and  C_7
REMARK    5  A    between atoms: C_9  and  C_10
REMARK    6  A    between atoms: C_10  and  C_11
REMARK                            x       y       z     vdW  Elec       q    Type
REMARK                         _______ _______ _______ _____ _____    ______ ____
ROOT
ATOM      1  C   UNL     1       3.432   4.354  19.640  0.00  0.00    +0.000 A 
ATOM      2  N   UNL     1       2.513   4.664  20.539  0.00  0.00    +0.000 NA
ATOM      3  C   UNL     1       2.090   5.928  20.256  0.00  0.00    +0.000 A 
ATOM      4  C   UNL     1       1.049   6.559  21.100  0.00  0.00    +0.000 C 
ATOM      5  C   UNL     1       2.759   6.417  19.157  0.00  0.00    +0.000 A 
ATOM      6  C   UNL     1       2.732   7.643  18.421  0.00  0.00    +0.000 A 
ATOM      7  C   UNL     1       3.600   7.709  17.393  0.00  0.00    +0.000 A 
ATOM      8  N   UNL     1       4.454   6.723  16.987  0.00  0.00    +0.000 NA
ATOM      9  C   UNL     1       4.477   5.571  17.608  0.00  0.00    +0.000 A 
ATOM     10  N   UNL     1       5.284   4.534  17.181  0.00  0.00    +0.000 N 
ATOM     11  C   UNL     1       5.721   4.412  15.904  0.00  0.00    +0.000 A 
ATOM     12  C   UNL     1       5.895   5.427  14.931  0.00  0.00    +0.000 A 
ATOM     13  C   UNL     1       6.290   4.781  13.785  0.00  0.00    +0.000 A 
ATOM     14  N   UNL     1       6.370   3.465  14.120  0.00  0.00    +0.000 N 
ATOM     15  N   UNL     1       6.054   3.217  15.402  0.00  0.00    +0.000 NA
ATOM     16  N   UNL     1       3.629   5.408  18.746  0.00  0.00    +0.000 N 
ATOM     17  H   UNL     1       5.247   3.650  17.655  0.00  0.00    +0.000 HD
ATOM     18  H   UNL     1       6.626   2.686  13.526  0.00  0.00    +0.000 HD
ENDROOT
BRANCH   6  19
ATOM     19  C   UNL     1       1.792   8.792  18.751  0.00  0.00    +0.000 C 
ATOM     20  C   UNL     1       1.865  10.045  17.883  0.00  0.00    +0.000 C 
ENDBRANCH   6  19
BRANCH   1  21
ATOM     21  C   UNL     1       4.136   3.032  19.638  0.00  0.00    +0.000 C 
BRANCH  21  23
ATOM     22  C   UNL     1       2.615   2.228  17.777  0.00  0.00    +0.000 C 
ATOM     23  C   UNL     1       3.235   1.899  19.125  0.00  0.00    +0.000 C 
ENDBRANCH  21  23
ENDBRANCH   1  21
TORSDOF 3
ENDMDL
MODEL 4
REMARK VINA RESULT:      -6.6      1.959      4.558
REMARK  Name = 
REMARK  6 active torsions:
REMARK  status: ('A' for Active; 'I' for Inactive)
REMARK    1  A    between atoms: C_1  and  C_2
REMARK    2  A    between atoms: C_2  and  C_3
REMARK    3  A    between atoms: C_3  and  C_4
REMARK    4  A    between atoms: C_6  and  C_7
REMARK    5  A    between atoms: C_9  and  C_10
REMARK    6  A    between atoms: C_10  and  C_11
REMARK                            x       y       z     vdW  Elec       q    Type
REMARK                         _______ _______ _______ _____ _____    ______ ____
ROOT
ATOM      1  C   UNL     1       3.057   4.764  20.189  0.00  0.00    +0.000 A 
ATOM      2  N   UNL     1       3.971   3.932  19.719  0.00  0.00    +0.000 NA
ATOM      3  C   UNL     1       4.547   4.540  18.643  0.00  0.00    +0.000 A 
ATOM      4  C   UNL     1       5.622   3.846  17.898  0.00  0.00    +0.000 C 
ATOM      5  C   UNL     1       3.980   5.777  18.438  0.00  0.00    +0.000 A 
ATOM      6  C   UNL     1       4.175   6.835  17.495  0.00  0.00    +0.000 A 
ATOM      7  C   UNL     1       3.360   7.895  17.651  0.00  0.00    +0.000 A 
ATOM      8  N   UNL     1       2.414   8.055  18.624  0.00  0.00    +0.000 NA
ATOM      9  C   UNL     1       2.235   7.129  19.531  0.00  0.00    +0.000 A 
ATOM     10  N   UNL     1       1.329   7.291  20.563  0.00  0.00    +0.000 N 
ATOM     11  C   UNL     1       0.930   8.505  21.013  0.00  0.00    +0.000 A 
ATOM     12  C   UNL     1       0.910   9.741  20.321  0.00  0.00    +0.000 A 
ATOM     13  C   UNL     1       0.486  10.674  21.235  0.00  0.00    +0.000 A 
ATOM     14  N   UNL     1       0.243   9.977  22.378  0.00  0.00    +0.000 N 
ATOM     15  N   UNL     1       0.480   8.660  22.265  0.00  0.00    +0.000 NA
ATOM     16  N   UNL     1       3.016   5.937  19.433  0.00  0.00    +0.000 N 
ATOM     17  H   UNL     1       1.247   6.579  21.266  0.00  0.00    +0.000 HD
ATOM     18  H   UNL     1      -0.079  10.336  23.269  0.00  0.00    +0.000 HD
ENDROOT
BRANCH   6  19
ATOM     19  C   UNL     1       5.229   6.788  16.399  0.00  0.00    +0.000 C 
ATOM     20  C   UNL     1       6.681   7.039  16.795  0.00  0.00    +0.000 C 
ENDBRANCH   6  19
BRANCH   1  21
ATOM     21  C   UNL     1       2.204   4.431  21.375  0.00  0.00    +0.000 C 
BRANCH  21  23
ATOM     22  C   UNL     1       0.654   3.032  19.940  0.00  0.00    +0.000 C 
ATOM     23  C   UNL     1       1.488   3.083  21.209  0.00  0.00    +0.000 C 
ENDBRANCH  21  23
ENDBRANCH   1  21
TORSDOF 3
ENDMDL
MODEL 5
REMARK VINA RESULT:      -6.3      1.624      5.942
REMARK  Name = 
REMARK  6 active torsions:
REMARK  status: ('A' for Active; 'I' for Inactive)
REMARK    1  A    between atoms: C_1  and  C_2
REMARK    2  A    between atoms: C_2  and  C_3
REMARK    3  A    between atoms: C_3  and  C_4
REMARK    4  A    between atoms: C_6  and  C_7
REMARK    5  A    between atoms: C_9  and  C_10
REMARK    6  A    between atoms: C_10  and  C_11
REMARK                            x       y       z     vdW  Elec       q    Type
REMARK                         _______ _______ _______ _____ _____    ______ ____
ROOT
ATOM      1  C   UNL     1       2.234   5.773  20.433  0.00  0.00    +0.000 A 
ATOM      2  N   UNL     1       1.285   6.306  21.183  0.00  0.00    +0.000 NA
ATOM      3  C   UNL     1       1.011   7.536  20.665  0.00  0.00    +0.000 A 
ATOM      4  C   UNL     1      -0.023   8.385  21.299  0.00  0.00    +0.000 C 
ATOM      5  C   UNL     1       1.808   7.776  19.568  0.00  0.00    +0.000 A 
ATOM      6  C   UNL     1       1.959   8.859  18.646  0.00  0.00    +0.000 A 
ATOM      7  C   UNL     1       2.904   8.678  17.705  0.00  0.00    +0.000 A 
ATOM      8  N   UNL     1       3.685   7.569  17.540  0.00  0.00    +0.000 NA
ATOM      9  C   UNL     1       3.546   6.540  18.337  0.00  0.00    +0.000 A 
ATOM     10  N   UNL     1       4.278   5.381  18.157  0.00  0.00    +0.000 N 
ATOM     11  C   UNL     1       4.796   5.011  16.960  0.00  0.00    +0.000 A 
ATOM     12  C   UNL     1       5.144   5.830  15.858  0.00  0.00    +0.000 A 
ATOM     13  C   UNL     1       5.559   4.971  14.870  0.00  0.00    +0.000 A 
ATOM     14  N   UNL     1       5.483   3.728  15.417  0.00  0.00    +0.000 N 
ATOM     15  N   UNL     1       5.047   3.725  16.688  0.00  0.00    +0.000 NA
ATOM     16  N   UNL     1       2.602   6.642  19.404  0.00  0.00    +0.000 N 
ATOM     17  H   UNL     1       4.117   4.595  18.760  0.00  0.00    +0.000 HD
ATOM     18  H   UNL     1       5.705   2.841  14.980  0.00  0.00    +0.000 HD
ENDROOT
BRANCH   6  19
ATOM     19  C   UNL     1       1.114  10.123  18.702  0.00  0.00    +0.000 C 
ATOM     20  C   UNL     1      -0.283  10.074  18.089  0.00  0.00    +0.000 C 
ENDBRANCH   6  19
BRANCH   1  21
ATOM     21  C   UNL     1       2.803   4.414  20.706  0.00  0.00    +0.000 C 
BRANCH  21  23
ATOM     22  C   UNL     1       1.031   3.205  19.357  0.00  0.00    +0.000 C 
ATOM     23  C   UNL     1       1.720   3.326  20.706  0.00  0.00    +0.000 C 
ENDBRANCH  21  23
ENDBRANCH   1  21
TORSDOF 3
ENDMDL
MODEL 6
REMARK VINA RESULT:      -6.3      6.903     10.187
REMARK  Name = 
REMARK  6 active torsions:
REMARK  status: ('A' for Active; 'I' for Inactive)
REMARK    1  A    between atoms: C_1  and  C_2
REMARK    2  A    between atoms: C_2  and  C_3
REMARK    3  A    between atoms: C_3  and  C_4
REMARK    4  A    between atoms: C_6  and  C_7
REMARK    5  A    between atoms: C_9  and  C_10
REMARK    6  A    between atoms: C_10  and  C_11
REMARK                            x       y       z     vdW  Elec       q    Type
REMARK                         _______ _______ _______ _____ _____    ______ ____
ROOT
ATOM      1  C   UNL     1      -4.776  11.924  18.068  0.00  0.00    +0.000 A 
ATOM      2  N   UNL     1      -4.500  11.408  16.882  0.00  0.00    +0.000 NA
ATOM      3  C   UNL     1      -3.205  10.985  16.922  0.00  0.00    +0.000 A 
ATOM      4  C   UNL     1      -2.602  10.353  15.727  0.00  0.00    +0.000 C 
ATOM      5  C   UNL     1      -2.661  11.243  18.161  0.00  0.00    +0.000 A 
ATOM      6  C   UNL     1      -1.385  11.025  18.769  0.00  0.00    +0.000 A 
ATOM      7  C   UNL     1      -1.275  11.469  20.035  0.00  0.00    +0.000 A 
ATOM      8  N   UNL     1      -2.257  12.062  20.776  0.00  0.00    +0.000 NA
ATOM      9  C   UNL     1      -3.451  12.240  20.270  0.00  0.00    +0.000 A 
ATOM     10  N   UNL     1      -4.481  12.780  21.016  0.00  0.00    +0.000 N 
ATOM     11  C   UNL     1      -4.525  12.723  22.369  0.00  0.00    +0.000 A 
ATOM     12  C   UNL     1      -3.449  12.595  23.282  0.00  0.00    +0.000 A 
ATOM     13  C   UNL     1      -4.024  12.515  24.527  0.00  0.00    +0.000 A 
ATOM     14  N   UNL     1      -5.362  12.634  24.316  0.00  0.00    +0.000 N 
ATOM     15  N   UNL     1      -5.692  12.784  23.022  0.00  0.00    +0.000 NA
ATOM     16  N   UNL     1      -3.667  11.848  18.913  0.00  0.00    +0.000 N 
ATOM     17  H   UNL     1      -5.396  12.864  20.609  0.00  0.00    +0.000 HD
ATOM     18  H   UNL     1      -6.105  12.615  25.005  0.00  0.00    +0.000 HD
ENDROOT
BRANCH   6  19
ATOM     19  C   UNL     1      -0.232  10.333  18.058  0.00  0.00    +0.000 C 
ATOM     20  C   UNL     1       1.089  10.195  18.811  0.00  0.00    +0.000 C 
ENDBRANCH   6  19
BRANCH   1  21
ATOM     21  C   UNL     1      -6.117  12.504  18.397  0.00  0.00    +0.000 C 
BRANCH  21  23
ATOM     22  C   UNL     1      -7.235  10.901  20.010  0.00  0.00    +0.000 C 
ATOM     23  C   UNL     1      -7.185  11.416  18.582  0.00  0.00    +0.000 C 
ENDBRANCH  21  23
ENDBRANCH   1  21
TORSDOF 3
ENDMDL
MODEL 7
REMARK VINA RESULT:      -6.2      7.046     10.297
REMARK  Name = 
REMARK  6 active torsions:
REMARK  status: ('A' for Active; 'I' for Inactive)
REMARK    1  A    between atoms: C_1  and  C_2
REMARK    2  A    between atoms: C_2  and  C_3
REMARK    3  A    between atoms: C_3  and  C_4
REMARK    4  A    between atoms: C_6  and  C_7
REMARK    5  A    between atoms: C_9  and  C_10
REMARK    6  A    between atoms: C_10  and  C_11
REMARK                            x       y       z     vdW  Elec       q    Type
REMARK                         _______ _______ _______ _____ _____    ______ ____
ROOT
ATOM      1  C   UNL     1      -4.788  11.995  18.035  0.00  0.00    +0.000 A 
ATOM      2  N   UNL     1      -4.511  11.485  16.847  0.00  0.00    +0.000 NA
ATOM      3  C   UNL     1      -3.227  11.030  16.898  0.00  0.00    +0.000 A 
ATOM      4  C   UNL     1      -2.626  10.397  15.703  0.00  0.00    +0.000 C 
ATOM      5  C   UNL     1      -2.692  11.262  18.145  0.00  0.00    +0.000 A 
ATOM      6  C   UNL     1      -1.430  11.006  18.766  0.00  0.00    +0.000 A 
ATOM      7  C   UNL     1      -1.324  11.434  20.039  0.00  0.00    +0.000 A 
ATOM      8  N   UNL     1      -2.301  12.043  20.774  0.00  0.00    +0.000 NA
ATOM      9  C   UNL     1      -3.484  12.256  20.256  0.00  0.00    +0.000 A 
ATOM     10  N   UNL     1      -4.509  12.813  20.995  0.00  0.00    +0.000 N 
ATOM     11  C   UNL     1      -4.571  12.742  22.347  0.00  0.00    +0.000 A 
ATOM     12  C   UNL     1      -3.510  12.578  23.272  0.00  0.00    +0.000 A 
ATOM     13  C   UNL     1      -4.101  12.499  24.508  0.00  0.00    +0.000 A 
ATOM     14  N   UNL     1      -5.434  12.654  24.283  0.00  0.00    +0.000 N 
ATOM     15  N   UNL     1      -5.744  12.825  22.987  0.00  0.00    +0.000 NA
ATOM     16  N   UNL     1      -3.692  11.883  18.892  0.00  0.00    +0.000 N 
ATOM     17  H   UNL     1      -5.416  12.924  20.579  0.00  0.00    +0.000 HD
ATOM     18  H   UNL     1      -6.185  12.645  24.962  0.00  0.00    +0.000 HD
ENDROOT
BRANCH   6  19
ATOM     19  C   UNL     1      -0.285  10.294  18.062  0.00  0.00    +0.000 C 
ATOM     20  C   UNL     1       1.122  10.478  18.624  0.00  0.00    +0.000 C 
ENDBRANCH   6  19
BRANCH   1  21
ATOM     21  C   UNL     1      -6.119  12.605  18.354  0.00  0.00    +0.000 C 
BRANCH  21  23
ATOM     22  C   UNL     1      -6.900  14.406  16.752  0.00  0.00    +0.000 C 
ATOM     23  C   UNL     1      -6.925  12.924  17.087  0.00  0.00    +0.000 C 
ENDBRANCH  21  23
ENDBRANCH   1  21
TORSDOF 3
ENDMDL
MODEL 8
REMARK VINA RESULT:      -6.1      9.472     11.183
REMARK  Name = 
REMARK  6 active torsions:
REMARK  status: ('A' for Active; 'I' for Inactive)
REMARK    1  A    between atoms: C_1  and  C_2
REMARK    2  A    between atoms: C_2  and  C_3
REMARK    3  A    between atoms: C_3  and  C_4
REMARK    4  A    between atoms: C_6  and  C_7
REMARK    5  A    between atoms: C_9  and  C_10
REMARK    6  A    between atoms: C_10  and  C_11
REMARK                            x       y       z     vdW  Elec       q    Type
REMARK                         _______ _______ _______ _____ _____    ______ ____
ROOT
ATOM      1  C   UNL     1       9.589  11.686  20.627  0.00  0.00    +0.000 A 
ATOM      2  N   UNL     1       8.945  11.047  21.588  0.00  0.00    +0.000 NA
ATOM      3  C   UNL     1       8.646  11.966  22.549  0.00  0.00    +0.000 A 
ATOM      4  C   UNL     1       7.916  11.545  23.766  0.00  0.00    +0.000 C 
ATOM      5  C   UNL     1       9.114  13.207  22.177  0.00  0.00    +0.000 A 
ATOM      6  C   UNL     1       9.091  14.512  22.763  0.00  0.00    +0.000 A 
ATOM      7  C   UNL     1       9.707  15.469  22.044  0.00  0.00    +0.000 A 
ATOM      8  N   UNL     1      10.306  15.311  20.826  0.00  0.00    +0.000 NA
ATOM      9  C   UNL     1      10.310  14.142  20.238  0.00  0.00    +0.000 A 
ATOM     10  N   UNL     1      10.852  13.966  18.979  0.00  0.00    +0.000 N 
ATOM     11  C   UNL     1      10.972  14.971  18.077  0.00  0.00    +0.000 A 
ATOM     12  C   UNL     1      11.061  16.365  18.315  0.00  0.00    +0.000 A 
ATOM     13  C   UNL     1      11.097  16.954  17.075  0.00  0.00    +0.000 A 
ATOM     14  N   UNL     1      11.070  15.925  16.185  0.00  0.00    +0.000 N 
ATOM     15  N   UNL     1      11.017  14.714  16.765  0.00  0.00    +0.000 NA
ATOM     16  N   UNL     1       9.723  13.042  20.934  0.00  0.00    +0.000 N 
ATOM     17  H   UNL     1      10.801  13.065  18.539  0.00  0.00    +0.000 HD
ATOM     18  H   UNL     1      11.078  15.977  15.173  0.00  0.00    +0.000 HD
ENDROOT
BRANCH   6  19
ATOM     19  C   UNL     1       8.414  14.816  24.090  0.00  0.00    +0.000 C 
ATOM     20  C   UNL     1       6.994  15.375  24.055  0.00  0.00    +0.000 C 
ENDBRANCH   6  19
BRANCH   1  21
ATOM     21  C   UNL     1      10.088  10.992  19.397  0.00  0.00    +0.000 C 
BRANCH  21  23
ATOM     22  C   UNL     1       8.480   9.425  18.223  0.00  0.00    +0.000 C 
ATOM     23  C   UNL     1       8.993  10.851  18.330  0.00  0.00    +0.000 C 
ENDBRANCH  21  23
ENDBRANCH   1  21
TORSDOF 3
ENDMDL
MODEL 9
REMARK VINA RESULT:      -6.0      3.715      6.867
REMARK  Name = 
REMARK  6 active torsions:
REMARK  status: ('A' for Active; 'I' for Inactive)
REMARK    1  A    between atoms: C_1  and  C_2
REMARK    2  A    between atoms: C_2  and  C_3
REMARK    3  A    between atoms: C_3  and  C_4
REMARK    4  A    between atoms: C_6  and  C_7
REMARK    5  A    between atoms: C_9  and  C_10
REMARK    6  A    between atoms: C_10  and  C_11
REMARK                            x       y       z     vdW  Elec       q    Type
REMARK                         _______ _______ _______ _____ _____    ______ ____
ROOT
ATOM      1  C   UNL     1       0.902   9.264  19.235  0.00  0.00    +0.000 A 
ATOM      2  N   UNL     1       1.532   8.941  20.351  0.00  0.00    +0.000 NA
ATOM      3  C   UNL     1       0.909   9.602  21.367  0.00  0.00    +0.000 A 
ATOM      4  C   UNL     1       1.394   9.437  22.756  0.00  0.00    +0.000 C 
ATOM      5  C   UNL     1      -0.134  10.353  20.873  0.00  0.00    +0.000 A 
ATOM      6  C   UNL     1      -1.114  11.221  21.448  0.00  0.00    +0.000 A 
ATOM      7  C   UNL     1      -1.960  11.788  20.567  0.00  0.00    +0.000 A 
ATOM      8  N   UNL     1      -1.982  11.584  19.216  0.00  0.00    +0.000 NA
ATOM      9  C   UNL     1      -1.129  10.763  18.658  0.00  0.00    +0.000 A 
ATOM     10  N   UNL     1      -1.167  10.490  17.304  0.00  0.00    +0.000 N 
ATOM     11  C   UNL     1      -2.288  10.620  16.553  0.00  0.00    +0.000 A 
ATOM     12  C   UNL     1      -3.413  11.449  16.784  0.00  0.00    +0.000 A 
ATOM     13  C   UNL     1      -4.301  11.163  15.776  0.00  0.00    +0.000 A 
ATOM     14  N   UNL     1      -3.676  10.241  14.994  0.00  0.00    +0.000 N 
ATOM     15  N   UNL     1      -2.448   9.912  15.428  0.00  0.00    +0.000 NA
ATOM     16  N   UNL     1      -0.152  10.142  19.495  0.00  0.00    +0.000 N 
ATOM     17  H   UNL     1      -0.525   9.824  16.915  0.00  0.00    +0.000 HD
ATOM     18  H   UNL     1      -4.029   9.792  14.158  0.00  0.00    +0.000 HD
ENDROOT
BRANCH   6  19
ATOM     19  C   UNL     1      -1.217  11.487  22.942  0.00  0.00    +0.000 C 
ATOM     20  C   UNL     1      -2.535  12.038  23.480  0.00  0.00    +0.000 C 
ENDBRANCH   6  19
BRANCH   1  21
ATOM     21  C   UNL     1       1.315   8.731  17.897  0.00  0.00    +0.000 C 
BRANCH  21  23
ATOM     22  C   UNL     1       2.710   6.622  18.060  0.00  0.00    +0.000 C 
ATOM     23  C   UNL     1       2.730   8.135  17.928  0.00  0.00    +0.000 C 
ENDBRANCH  21  23
ENDBRANCH   1  21
TORSDOF 3
ENDMDL
