MODEL 1
REMARK VINA RESULT:      -6.5      0.000      0.000
REMARK  Name = 
REMARK  3 active torsions:
REMARK  status: ('A' for Active; 'I' for Inactive)
REMARK    1  A    between atoms: C_1  and  N_2
REMARK    2  A    between atoms: C_5  and  C_6
REMARK    3  A    between atoms: C_8  and  C_9
REMARK                            x       y       z     vdW  Elec       q    Type
REMARK                         _______ _______ _______ _____ _____    ______ ____
ROOT
ATOM      1  C   UNL     1       0.950   6.924  21.118  0.00  0.00    +0.000 C 
ATOM      2  N   UNL     1       1.984   6.404  20.240  0.00  0.00    +0.000 N 
ATOM      3  C   UNL     1       2.557   5.155  20.481  0.00  0.00    +0.000 A 
ATOM      4  O   UNL     1       2.232   4.437  21.424  0.00  0.00    +0.000 OA
ATOM      5  C   UNL     1       3.619   4.681  19.530  0.00  0.00    +0.000 A 
ATOM      6  C   UNL     1       4.000   5.442  18.479  0.00  0.00    +0.000 A 
ATOM      7  N   UNL     1       3.384   6.675  18.304  0.00  0.00    +0.000 N 
ATOM      8  C   UNL     1       3.539   7.655  17.362  0.00  0.00    +0.000 A 
ATOM      9  N   UNL     1       2.724   8.654  17.617  0.00  0.00    +0.000 NA
ATOM     10  N   UNL     1       2.009   8.331  18.750  0.00  0.00    +0.000 NA
ATOM     11  C   UNL     1       2.411   7.147  19.150  0.00  0.00    +0.000 A 
ENDROOT
BRANCH   6  12
ATOM     12  C   UNL     1       5.042   4.991  17.535  0.00  0.00    +0.000 A 
ATOM     13  C   UNL     1       6.397   5.213  17.816  0.00  0.00    +0.000 A 
ATOM     14  C   UNL     1       7.380   4.777  16.923  0.00  0.00    +0.000 A 
ATOM     15  C   UNL     1       7.016   4.122  15.749  0.00  0.00    +0.000 A 
ATOM     16  C   UNL     1       5.670   3.900  15.461  0.00  0.00    +0.000 A 
ATOM     17  C   UNL     1       4.684   4.334  16.349  0.00  0.00    +0.000 A 
ENDBRANCH   6  12
BRANCH   5  18
ATOM     18  C   UNL     1       4.260   3.323  19.773  0.00  0.00    +0.000 C 
ATOM     19  N   UNL     1       4.791   2.198  19.975  0.00  0.00    +0.000 NA
ENDBRANCH   5  18
TORSDOF 2
ENDMDL
MODEL 2
REMARK VINA RESULT:      -6.4      0.137      1.116
REMARK  Name = 
REMARK  3 active torsions:
REMARK  status: ('A' for Active; 'I' for Inactive)
REMARK    1  A    between atoms: C_1  and  N_2
REMARK    2  A    between atoms: C_5  and  C_6
REMARK    3  A    between atoms: C_8  and  C_9
REMARK                            x       y       z     vdW  Elec       q    Type
REMARK                         _______ _______ _______ _____ _____    ______ ____
ROOT
ATOM      1  C   UNL     1       0.908   6.769  21.159  0.00  0.00    +0.000 C 
ATOM      2  N   UNL     1       1.959   6.269  20.290  0.00  0.00    +0.000 N 
ATOM      3  C   UNL     1       2.529   5.016  20.517  0.00  0.00    +0.000 A 
ATOM      4  O   UNL     1       2.188   4.279  21.439  0.00  0.00    +0.000 OA
ATOM      5  C   UNL     1       3.609   4.562  19.577  0.00  0.00    +0.000 A 
ATOM      6  C   UNL     1       4.009   5.345  18.548  0.00  0.00    +0.000 A 
ATOM      7  N   UNL     1       3.393   6.581  18.387  0.00  0.00    +0.000 N 
ATOM      8  C   UNL     1       3.564   7.580  17.468  0.00  0.00    +0.000 A 
ATOM      9  N   UNL     1       2.743   8.572  17.728  0.00  0.00    +0.000 NA
ATOM     10  N   UNL     1       2.008   8.226  18.840  0.00  0.00    +0.000 NA
ATOM     11  C   UNL     1       2.404   7.034  19.224  0.00  0.00    +0.000 A 
ENDROOT
BRANCH   6  12
ATOM     12  C   UNL     1       5.069   4.915  17.615  0.00  0.00    +0.000 A 
ATOM     13  C   UNL     1       4.737   4.335  16.383  0.00  0.00    +0.000 A 
ATOM     14  C   UNL     1       5.743   3.937  15.500  0.00  0.00    +0.000 A 
ATOM     15  C   UNL     1       7.083   4.113  15.841  0.00  0.00    +0.000 A 
ATOM     16  C   UNL     1       7.421   4.686  17.066  0.00  0.00    +0.000 A 
ATOM     17  C   UNL     1       6.419   5.085  17.954  0.00  0.00    +0.000 A 
ENDBRANCH   6  12
BRANCH   5  18
ATOM     18  C   UNL     1       4.248   3.201  19.804  0.00  0.00    +0.000 C 
ATOM     19  N   UNL     1       4.777   2.073  19.993  0.00  0.00    +0.000 NA
ENDBRANCH   5  18
TORSDOF 2
ENDMDL
MODEL 3
REMARK VINA RESULT:      -6.0      2.502      3.436
REMARK  Name = 
REMARK  3 active torsions:
REMARK  status: ('A' for Active; 'I' for Inactive)
REMARK    1  A    between atoms: C_1  and  N_2
REMARK    2  A    between atoms: C_5  and  C_6
REMARK    3  A    between atoms: C_8  and  C_9
REMARK                            x       y       z     vdW  Elec       q    Type
REMARK                         _______ _______ _______ _____ _____    ______ ____
ROOT
ATOM      1  C   UNL     1       0.592   2.570  18.637  0.00  0.00    +0.000 C 
ATOM      2  N   UNL     1       1.815   3.339  18.485  0.00  0.00    +0.000 N 
ATOM      3  C   UNL     1       2.735   3.016  17.487  0.00  0.00    +0.000 A 
ATOM      4  O   UNL     1       2.575   2.086  16.699  0.00  0.00    +0.000 OA
ATOM      5  C   UNL     1       3.977   3.856  17.386  0.00  0.00    +0.000 A 
ATOM      6  C   UNL     1       4.187   4.889  18.234  0.00  0.00    +0.000 A 
ATOM      7  N   UNL     1       3.224   5.150  19.201  0.00  0.00    +0.000 N 
ATOM      8  C   UNL     1       3.140   6.100  20.182  0.00  0.00    +0.000 A 
ATOM      9  N   UNL     1       2.027   5.944  20.863  0.00  0.00    +0.000 NA
ATOM     10  N   UNL     1       1.353   4.871  20.321  0.00  0.00    +0.000 NA
ATOM     11  C   UNL     1       2.077   4.406  19.329  0.00  0.00    +0.000 A 
ENDROOT
BRANCH   6  12
ATOM     12  C   UNL     1       5.401   5.725  18.149  0.00  0.00    +0.000 A 
ATOM     13  C   UNL     1       6.530   5.416  18.918  0.00  0.00    +0.000 A 
ATOM     14  C   UNL     1       7.679   6.205  18.828  0.00  0.00    +0.000 A 
ATOM     15  C   UNL     1       7.707   7.305  17.974  0.00  0.00    +0.000 A 
ATOM     16  C   UNL     1       6.586   7.622  17.207  0.00  0.00    +0.000 A 
ATOM     17  C   UNL     1       5.434   6.837  17.294  0.00  0.00    +0.000 A 
ENDBRANCH   6  12
BRANCH   5  18
ATOM     18  C   UNL     1       4.996   3.522  16.309  0.00  0.00    +0.000 C 
ATOM     19  N   UNL     1       5.841   3.245  15.415  0.00  0.00    +0.000 NA
ENDBRANCH   5  18
TORSDOF 2
ENDMDL
MODEL 4
REMARK VINA RESULT:      -6.0      2.492      3.509
REMARK  Name = 
REMARK  3 active torsions:
REMARK  status: ('A' for Active; 'I' for Inactive)
REMARK    1  A    between atoms: C_1  and  N_2
REMARK    2  A    between atoms: C_5  and  C_6
REMARK    3  A    between atoms: C_8  and  C_9
REMARK                            x       y       z     vdW  Elec       q    Type
REMARK                         _______ _______ _______ _____ _____    ______ ____
ROOT
ATOM      1  C   UNL     1       0.584   2.575  18.693  0.00  0.00    +0.000 C 
ATOM      2  N   UNL     1       1.805   3.344  18.523  0.00  0.00    +0.000 N 
ATOM      3  C   UNL     1       2.720   3.008  17.526  0.00  0.00    +0.000 A 
ATOM      4  O   UNL     1       2.557   2.067  16.751  0.00  0.00    +0.000 OA
ATOM      5  C   UNL     1       3.961   3.847  17.407  0.00  0.00    +0.000 A 
ATOM      6  C   UNL     1       4.174   4.892  18.240  0.00  0.00    +0.000 A 
ATOM      7  N   UNL     1       3.215   5.166  19.208  0.00  0.00    +0.000 N 
ATOM      8  C   UNL     1       3.135   6.129  20.177  0.00  0.00    +0.000 A 
ATOM      9  N   UNL     1       2.026   5.981  20.865  0.00  0.00    +0.000 NA
ATOM     10  N   UNL     1       1.351   4.901  20.341  0.00  0.00    +0.000 NA
ATOM     11  C   UNL     1       2.070   4.422  19.352  0.00  0.00    +0.000 A 
ENDROOT
BRANCH   6  12
ATOM     12  C   UNL     1       5.386   5.728  18.137  0.00  0.00    +0.000 A 
ATOM     13  C   UNL     1       5.410   6.842  17.286  0.00  0.00    +0.000 A 
ATOM     14  C   UNL     1       6.557   7.634  17.199  0.00  0.00    +0.000 A 
ATOM     15  C   UNL     1       7.684   7.320  17.956  0.00  0.00    +0.000 A 
ATOM     16  C   UNL     1       7.669   6.212  18.803  0.00  0.00    +0.000 A 
ATOM     17  C   UNL     1       6.525   5.415  18.893  0.00  0.00    +0.000 A 
ENDBRANCH   6  12
BRANCH   5  18
ATOM     18  C   UNL     1       4.975   3.500  16.330  0.00  0.00    +0.000 C 
ATOM     19  N   UNL     1       5.816   3.211  15.435  0.00  0.00    +0.000 NA
ENDBRANCH   5  18
TORSDOF 2
ENDMDL
MODEL 5
REMARK VINA RESULT:      -5.9      2.517      5.240
REMARK  Name = 
REMARK  3 active torsions:
REMARK  status: ('A' for Active; 'I' for Inactive)
REMARK    1  A    between atoms: C_1  and  N_2
REMARK    2  A    between atoms: C_5  and  C_6
REMARK    3  A    between atoms: C_8  and  C_9
REMARK                            x       y       z     vdW  Elec       q    Type
REMARK                         _______ _______ _______ _____ _____    ______ ____
ROOT
ATOM      1  C   UNL     1       4.770   1.693  19.935  0.00  0.00    +0.000 C 
ATOM      2  N   UNL     1       4.225   3.021  19.712  0.00  0.00    +0.000 N 
ATOM      3  C   UNL     1       4.973   3.990  19.043  0.00  0.00    +0.000 A 
ATOM      4  O   UNL     1       6.106   3.787  18.613  0.00  0.00    +0.000 OA
ATOM      5  C   UNL     1       4.346   5.341  18.846  0.00  0.00    +0.000 A 
ATOM      6  C   UNL     1       3.099   5.600  19.303  0.00  0.00    +0.000 A 
ATOM      7  N   UNL     1       2.416   4.584  19.959  0.00  0.00    +0.000 N 
ATOM      8  C   UNL     1       1.170   4.528  20.523  0.00  0.00    +0.000 A 
ATOM      9  N   UNL     1       0.964   3.336  21.037  0.00  0.00    +0.000 NA
ATOM     10  N   UNL     1       2.093   2.582  20.807  0.00  0.00    +0.000 NA
ATOM     11  C   UNL     1       2.953   3.337  20.162  0.00  0.00    +0.000 A 
ENDROOT
BRANCH   6  12
ATOM     12  C   UNL     1       2.467   6.922  19.118  0.00  0.00    +0.000 A 
ATOM     13  C   UNL     1       2.340   7.474  17.836  0.00  0.00    +0.000 A 
ATOM     14  C   UNL     1       1.735   8.721  17.665  0.00  0.00    +0.000 A 
ATOM     15  C   UNL     1       1.255   9.423  18.769  0.00  0.00    +0.000 A 
ATOM     16  C   UNL     1       1.380   8.881  20.048  0.00  0.00    +0.000 A 
ATOM     17  C   UNL     1       1.986   7.635  20.225  0.00  0.00    +0.000 A 
ENDBRANCH   6  12
BRANCH   5  18
ATOM     18  C   UNL     1       5.142   6.414  18.122  0.00  0.00    +0.000 C 
ATOM     19  N   UNL     1       5.801   7.305  17.521  0.00  0.00    +0.000 NA
ENDBRANCH   5  18
TORSDOF 2
ENDMDL
MODEL 6
REMARK VINA RESULT:      -5.9      2.520      5.186
REMARK  Name = 
REMARK  3 active torsions:
REMARK  status: ('A' for Active; 'I' for Inactive)
REMARK    1  A    between atoms: C_1  and  N_2
REMARK    2  A    between atoms: C_5  and  C_6
REMARK    3  A    between atoms: C_8  and  C_9
REMARK                            x       y       z     vdW  Elec       q    Type
REMARK                         _______ _______ _______ _____ _____    ______ ____
ROOT
ATOM      1  C   UNL     1       4.828   1.742  19.917  0.00  0.00    +0.000 C 
ATOM      2  N   UNL     1       4.268   3.064  19.697  0.00  0.00    +0.000 N 
ATOM      3  C   UNL     1       5.001   4.039  19.020  0.00  0.00    +0.000 A 
ATOM      4  O   UNL     1       6.132   3.847  18.581  0.00  0.00    +0.000 OA
ATOM      5  C   UNL     1       4.359   5.384  18.828  0.00  0.00    +0.000 A 
ATOM      6  C   UNL     1       3.113   5.632  19.294  0.00  0.00    +0.000 A 
ATOM      7  N   UNL     1       2.446   4.610  19.958  0.00  0.00    +0.000 N 
ATOM      8  C   UNL     1       1.207   4.543  20.533  0.00  0.00    +0.000 A 
ATOM      9  N   UNL     1       1.016   3.350  21.050  0.00  0.00    +0.000 NA
ATOM     10  N   UNL     1       2.151   2.606  20.811  0.00  0.00    +0.000 NA
ATOM     11  C   UNL     1       2.997   3.368  20.158  0.00  0.00    +0.000 A 
ENDROOT
BRANCH   6  12
ATOM     12  C   UNL     1       2.467   6.947  19.113  0.00  0.00    +0.000 A 
ATOM     13  C   UNL     1       1.991   7.662  20.221  0.00  0.00    +0.000 A 
ATOM     14  C   UNL     1       1.388   8.909  20.046  0.00  0.00    +0.000 A 
ATOM     15  C   UNL     1       1.255   9.448  18.768  0.00  0.00    +0.000 A 
ATOM     16  C   UNL     1       1.723   8.742  17.660  0.00  0.00    +0.000 A 
ATOM     17  C   UNL     1       2.326   7.494  17.830  0.00  0.00    +0.000 A 
ENDBRANCH   6  12
BRANCH   5  18
ATOM     18  C   UNL     1       5.138   6.464  18.094  0.00  0.00    +0.000 C 
ATOM     19  N   UNL     1       5.784   7.360  17.486  0.00  0.00    +0.000 NA
ENDBRANCH   5  18
TORSDOF 2
ENDMDL
MODEL 7
REMARK VINA RESULT:      -5.8      3.085      5.457
REMARK  Name = 
REMARK  3 active torsions:
REMARK  status: ('A' for Active; 'I' for Inactive)
REMARK    1  A    between atoms: C_1  and  N_2
REMARK    2  A    between atoms: C_5  and  C_6
REMARK    3  A    between atoms: C_8  and  C_9
REMARK                            x       y       z     vdW  Elec       q    Type
REMARK                         _______ _______ _______ _____ _____    ______ ____
ROOT
ATOM      1  C   UNL     1       7.434   5.104  15.151  0.00  0.00    +0.000 C 
ATOM      2  N   UNL     1       6.506   4.823  16.233  0.00  0.00    +0.000 N 
ATOM      3  C   UNL     1       5.251   4.274  15.965  0.00  0.00    +0.000 A 
ATOM      4  O   UNL     1       4.864   4.003  14.831  0.00  0.00    +0.000 OA
ATOM      5  C   UNL     1       4.344   4.008  17.132  0.00  0.00    +0.000 A 
ATOM      6  C   UNL     1       4.737   4.291  18.396  0.00  0.00    +0.000 A 
ATOM      7  N   UNL     1       6.001   4.836  18.583  0.00  0.00    +0.000 N 
ATOM      8  C   UNL     1       6.679   5.221  19.707  0.00  0.00    +0.000 A 
ATOM      9  N   UNL     1       7.863   5.688  19.379  0.00  0.00    +0.000 NA
ATOM     10  N   UNL     1       7.977   5.608  18.008  0.00  0.00    +0.000 NA
ATOM     11  C   UNL     1       6.861   5.096  17.544  0.00  0.00    +0.000 A 
ENDROOT
BRANCH   6  12
ATOM     12  C   UNL     1       3.858   4.036  19.555  0.00  0.00    +0.000 A 
ATOM     13  C   UNL     1       3.015   5.044  20.041  0.00  0.00    +0.000 A 
ATOM     14  C   UNL     1       2.180   4.796  21.132  0.00  0.00    +0.000 A 
ATOM     15  C   UNL     1       2.182   3.544  21.744  0.00  0.00    +0.000 A 
ATOM     16  C   UNL     1       3.021   2.536  21.268  0.00  0.00    +0.000 A 
ATOM     17  C   UNL     1       3.859   2.780  20.178  0.00  0.00    +0.000 A 
ENDBRANCH   6  12
BRANCH   5  18
ATOM     18  C   UNL     1       2.970   3.413  16.866  0.00  0.00    +0.000 C 
ATOM     19  N   UNL     1       1.832   2.919  16.645  0.00  0.00    +0.000 NA
ENDBRANCH   5  18
TORSDOF 2
ENDMDL
MODEL 8
REMARK VINA RESULT:      -5.8      3.083      5.456
REMARK  Name = 
REMARK  3 active torsions:
REMARK  status: ('A' for Active; 'I' for Inactive)
REMARK    1  A    between atoms: C_1  and  N_2
REMARK    2  A    between atoms: C_5  and  C_6
REMARK    3  A    between atoms: C_8  and  C_9
REMARK                            x       y       z     vdW  Elec       q    Type
REMARK                         _______ _______ _______ _____ _____    ______ ____
ROOT
ATOM      1  C   UNL     1       7.431   5.114  15.142  0.00  0.00    +0.000 C 
ATOM      2  N   UNL     1       6.505   4.829  16.224  0.00  0.00    +0.000 N 
ATOM      3  C   UNL     1       5.257   4.264  15.957  0.00  0.00    +0.000 A 
ATOM      4  O   UNL     1       4.875   3.982  14.824  0.00  0.00    +0.000 OA
ATOM      5  C   UNL     1       4.351   3.996  17.125  0.00  0.00    +0.000 A 
ATOM      6  C   UNL     1       4.738   4.291  18.387  0.00  0.00    +0.000 A 
ATOM      7  N   UNL     1       5.996   4.852  18.573  0.00  0.00    +0.000 N 
ATOM      8  C   UNL     1       6.667   5.253  19.696  0.00  0.00    +0.000 A 
ATOM      9  N   UNL     1       7.846   5.731  19.366  0.00  0.00    +0.000 NA
ATOM     10  N   UNL     1       7.964   5.643  17.996  0.00  0.00    +0.000 NA
ATOM     11  C   UNL     1       6.854   5.116  17.534  0.00  0.00    +0.000 A 
ENDROOT
BRANCH   6  12
ATOM     12  C   UNL     1       3.861   4.033  19.546  0.00  0.00    +0.000 A 
ATOM     13  C   UNL     1       3.863   2.779  20.172  0.00  0.00    +0.000 A 
ATOM     14  C   UNL     1       3.036   2.542  21.273  0.00  0.00    +0.000 A 
ATOM     15  C   UNL     1       2.205   3.552  21.753  0.00  0.00    +0.000 A 
ATOM     16  C   UNL     1       2.195   4.802  21.135  0.00  0.00    +0.000 A 
ATOM     17  C   UNL     1       3.018   5.044  20.032  0.00  0.00    +0.000 A 
ENDBRANCH   6  12
BRANCH   5  18
ATOM     18  C   UNL     1       2.985   3.383  16.860  0.00  0.00    +0.000 C 
ATOM     19  N   UNL     1       1.852   2.874  16.641  0.00  0.00    +0.000 NA
ENDBRANCH   5  18
TORSDOF 2
ENDMDL
MODEL 9
REMARK VINA RESULT:      -5.7      2.624      5.202
REMARK  Name = 
REMARK  3 active torsions:
REMARK  status: ('A' for Active; 'I' for Inactive)
REMARK    1  A    between atoms: C_1  and  N_2
REMARK    2  A    between atoms: C_5  and  C_6
REMARK    3  A    between atoms: C_8  and  C_9
REMARK                            x       y       z     vdW  Elec       q    Type
REMARK                         _______ _______ _______ _____ _____    ______ ____
ROOT
ATOM      1  C   UNL     1       7.144   3.916  15.863  0.00  0.00    +0.000 C 
ATOM      2  N   UNL     1       6.100   4.721  16.474  0.00  0.00    +0.000 N 
ATOM      3  C   UNL     1       4.834   4.181  16.705  0.00  0.00    +0.000 A 
ATOM      4  O   UNL     1       4.532   3.026  16.414  0.00  0.00    +0.000 OA
ATOM      5  C   UNL     1       3.804   5.071  17.340  0.00  0.00    +0.000 A 
ATOM      6  C   UNL     1       4.101   6.347  17.677  0.00  0.00    +0.000 A 
ATOM      7  N   UNL     1       5.383   6.813  17.416  0.00  0.00    +0.000 N 
ATOM      8  C   UNL     1       5.984   8.022  17.633  0.00  0.00    +0.000 A 
ATOM      9  N   UNL     1       7.228   7.987  17.210  0.00  0.00    +0.000 NA
ATOM     10  N   UNL     1       7.462   6.727  16.705  0.00  0.00    +0.000 NA
ATOM     11  C   UNL     1       6.354   6.034  16.834  0.00  0.00    +0.000 A 
ENDROOT
BRANCH   6  12
ATOM     12  C   UNL     1       3.100   7.235  18.303  0.00  0.00    +0.000 A 
ATOM     13  C   UNL     1       2.708   7.034  19.633  0.00  0.00    +0.000 A 
ATOM     14  C   UNL     1       1.767   7.881  20.223  0.00  0.00    +0.000 A 
ATOM     15  C   UNL     1       1.213   8.929  19.491  0.00  0.00    +0.000 A 
ATOM     16  C   UNL     1       1.596   9.134  18.166  0.00  0.00    +0.000 A 
ATOM     17  C   UNL     1       2.536   8.289  17.570  0.00  0.00    +0.000 A 
ENDBRANCH   6  12
BRANCH   5  18
ATOM     18  C   UNL     1       2.416   4.507  17.600  0.00  0.00    +0.000 C 
ATOM     19  N   UNL     1       1.265   4.039  17.816  0.00  0.00    +0.000 NA
ENDBRANCH   5  18
TORSDOF 2
ENDMDL
