MODEL 1
REMARK VINA RESULT:      -6.8      0.000      0.000
REMARK  Name = 
REMARK  3 active torsions:
REMARK  status: ('A' for Active; 'I' for Inactive)
REMARK    1  A    between atoms: C_1  and  C_2
REMARK    2  A    between atoms: C_2  and  C_3
REMARK    3  A    between atoms: C_2  and  C_4
REMARK                            x       y       z     vdW  Elec       q    Type
REMARK                         _______ _______ _______ _____ _____    ______ ____
ROOT
ATOM      1  C   UNL     1       5.432   5.414  15.611  0.00  0.00    +0.000 C 
ATOM      2  O   UNL     1       5.296   6.609  15.343  0.00  0.00    +0.000 OA
ATOM      3  N   UNL     1       4.751   4.824  16.672  0.00  0.00    +0.000 N 
ATOM      4  C   UNL     1       3.764   5.625  17.388  0.00  0.00    +0.000 C 
ATOM      5  C   UNL     1       2.541   4.779  17.741  0.00  0.00    +0.000 C 
ATOM      6  C   UNL     1       2.914   3.504  18.530  0.00  0.00    +0.000 C 
ATOM      7  C   UNL     1       3.418   3.794  19.962  0.00  0.00    +0.000 C 
ATOM      8  C   UNL     1       2.309   4.342  20.855  0.00  0.00    +0.000 C 
ATOM      9  C   UNL     1       1.097   3.422  20.817  0.00  0.00    +0.000 C 
ATOM     10  C   UNL     1       0.685   3.092  19.389  0.00  0.00    +0.000 C 
ATOM     11  O   UNL     1       1.785   2.612  18.617  0.00  0.00    +0.000 OA
ATOM     12  C   UNL     1       3.982   2.737  17.730  0.00  0.00    +0.000 C 
ATOM     13  C   UNL     1       5.176   3.605  17.360  0.00  0.00    +0.000 C 
ENDROOT
BRANCH   1  15
ATOM     14  C   UNL     1       5.302   3.938  13.615  0.00  0.00    +0.000 C 
ATOM     15  C   UNL     1       6.238   4.493  14.686  0.00  0.00    +0.000 C 
ATOM     16  C   UNL     1       7.410   5.232  14.038  0.00  0.00    +0.000 C 
ENDBRANCH   1  15
TORSDOF 1
ENDMDL
MODEL 2
REMARK VINA RESULT:      -6.6      1.780      2.188
REMARK  Name = 
REMARK  3 active torsions:
REMARK  status: ('A' for Active; 'I' for Inactive)
REMARK    1  A    between atoms: C_1  and  C_2
REMARK    2  A    between atoms: C_2  and  C_3
REMARK    3  A    between atoms: C_2  and  C_4
REMARK                            x       y       z     vdW  Elec       q    Type
REMARK                         _______ _______ _______ _____ _____    ______ ____
ROOT
ATOM      1  C   UNL     1       5.628   6.343  16.713  0.00  0.00    +0.000 C 
ATOM      2  O   UNL     1       5.091   6.934  15.775  0.00  0.00    +0.000 OA
ATOM      3  N   UNL     1       4.878   5.690  17.688  0.00  0.00    +0.000 N 
ATOM      4  C   UNL     1       3.433   5.609  17.505  0.00  0.00    +0.000 C 
ATOM      5  C   UNL     1       2.913   4.240  17.941  0.00  0.00    +0.000 C 
ATOM      6  C   UNL     1       3.321   3.888  19.389  0.00  0.00    +0.000 C 
ATOM      7  C   UNL     1       2.612   4.754  20.454  0.00  0.00    +0.000 C 
ATOM      8  C   UNL     1       1.117   4.462  20.523  0.00  0.00    +0.000 C 
ATOM      9  C   UNL     1       0.878   2.969  20.704  0.00  0.00    +0.000 C 
ATOM     10  C   UNL     1       1.661   2.147  19.690  0.00  0.00    +0.000 C 
ATOM     11  O   UNL     1       3.043   2.502  19.673  0.00  0.00    +0.000 OA
ATOM     12  C   UNL     1       4.849   4.033  19.509  0.00  0.00    +0.000 C 
ATOM     13  C   UNL     1       5.350   5.391  19.040  0.00  0.00    +0.000 C 
ENDROOT
BRANCH   1  15
ATOM     14  C   UNL     1       7.716   7.087  17.839  0.00  0.00    +0.000 C 
ATOM     15  C   UNL     1       7.152   6.169  16.756  0.00  0.00    +0.000 C 
ATOM     16  C   UNL     1       7.544   4.717  17.032  0.00  0.00    +0.000 C 
ENDBRANCH   1  15
TORSDOF 1
ENDMDL
MODEL 3
REMARK VINA RESULT:      -6.5      1.544      1.946
REMARK  Name = 
REMARK  3 active torsions:
REMARK  status: ('A' for Active; 'I' for Inactive)
REMARK    1  A    between atoms: C_1  and  C_2
REMARK    2  A    between atoms: C_2  and  C_3
REMARK    3  A    between atoms: C_2  and  C_4
REMARK                            x       y       z     vdW  Elec       q    Type
REMARK                         _______ _______ _______ _____ _____    ______ ____
ROOT
ATOM      1  C   UNL     1       6.401   4.543  16.442  0.00  0.00    +0.000 C 
ATOM      2  O   UNL     1       7.544   4.689  16.877  0.00  0.00    +0.000 OA
ATOM      3  N   UNL     1       5.340   4.209  17.280  0.00  0.00    +0.000 N 
ATOM      4  C   UNL     1       5.586   4.162  18.718  0.00  0.00    +0.000 C 
ATOM      5  C   UNL     1       4.399   4.743  19.484  0.00  0.00    +0.000 C 
ATOM      6  C   UNL     1       3.066   4.055  19.117  0.00  0.00    +0.000 C 
ATOM      7  C   UNL     1       2.970   2.596  19.614  0.00  0.00    +0.000 C 
ATOM      8  C   UNL     1       2.897   2.516  21.135  0.00  0.00    +0.000 C 
ATOM      9  C   UNL     1       1.777   3.405  21.657  0.00  0.00    +0.000 C 
ATOM     10  C   UNL     1       1.857   4.810  21.077  0.00  0.00    +0.000 C 
ATOM     11  O   UNL     1       1.949   4.792  19.654  0.00  0.00    +0.000 OA
ATOM     12  C   UNL     1       2.899   4.114  17.588  0.00  0.00    +0.000 C 
ATOM     13  C   UNL     1       4.104   3.561  16.842  0.00  0.00    +0.000 C 
ENDROOT
BRANCH   1  15
ATOM     14  C   UNL     1       5.354   6.227  14.942  0.00  0.00    +0.000 C 
ATOM     15  C   UNL     1       6.071   4.878  14.982  0.00  0.00    +0.000 C 
ATOM     16  C   UNL     1       7.331   4.920  14.116  0.00  0.00    +0.000 C 
ENDBRANCH   1  15
TORSDOF 1
ENDMDL
MODEL 4
REMARK VINA RESULT:      -6.4      2.101      2.983
REMARK  Name = 
REMARK  3 active torsions:
REMARK  status: ('A' for Active; 'I' for Inactive)
REMARK    1  A    between atoms: C_1  and  C_2
REMARK    2  A    between atoms: C_2  and  C_3
REMARK    3  A    between atoms: C_2  and  C_4
REMARK                            x       y       z     vdW  Elec       q    Type
REMARK                         _______ _______ _______ _____ _____    ______ ____
ROOT
ATOM      1  C   UNL     1       6.903   5.530  16.865  0.00  0.00    +0.000 C 
ATOM      2  O   UNL     1       7.291   4.993  15.827  0.00  0.00    +0.000 OA
ATOM      3  N   UNL     1       5.670   5.215  17.432  0.00  0.00    +0.000 N 
ATOM      4  C   UNL     1       4.895   4.131  16.837  0.00  0.00    +0.000 C 
ATOM      5  C   UNL     1       4.224   3.293  17.924  0.00  0.00    +0.000 C 
ATOM      6  C   UNL     1       3.360   4.148  18.878  0.00  0.00    +0.000 C 
ATOM      7  C   UNL     1       2.090   4.722  18.209  0.00  0.00    +0.000 C 
ATOM      8  C   UNL     1       1.089   3.627  17.856  0.00  0.00    +0.000 C 
ATOM      9  C   UNL     1       0.791   2.770  19.079  0.00  0.00    +0.000 C 
ATOM     10  C   UNL     1       2.068   2.296  19.758  0.00  0.00    +0.000 C 
ATOM     11  O   UNL     1       2.958   3.378  20.028  0.00  0.00    +0.000 OA
ATOM     12  C   UNL     1       4.236   5.287  19.432  0.00  0.00    +0.000 C 
ATOM     13  C   UNL     1       4.922   6.088  18.336  0.00  0.00    +0.000 C 
ENDROOT
BRANCH   1  15
ATOM     14  C   UNL     1       7.345   7.893  17.502  0.00  0.00    +0.000 C 
ATOM     15  C   UNL     1       7.833   6.454  17.662  0.00  0.00    +0.000 C 
ATOM     16  C   UNL     1       7.878   6.068  19.141  0.00  0.00    +0.000 C 
ENDBRANCH   1  15
TORSDOF 1
ENDMDL
MODEL 5
REMARK VINA RESULT:      -6.3      0.550      1.015
REMARK  Name = 
REMARK  3 active torsions:
REMARK  status: ('A' for Active; 'I' for Inactive)
REMARK    1  A    between atoms: C_1  and  C_2
REMARK    2  A    between atoms: C_2  and  C_3
REMARK    3  A    between atoms: C_2  and  C_4
REMARK                            x       y       z     vdW  Elec       q    Type
REMARK                         _______ _______ _______ _____ _____    ______ ____
ROOT
ATOM      1  C   UNL     1       5.243   5.949  15.844  0.00  0.00    +0.000 C 
ATOM      2  O   UNL     1       4.990   7.140  15.660  0.00  0.00    +0.000 OA
ATOM      3  N   UNL     1       4.605   5.214  16.839  0.00  0.00    +0.000 N 
ATOM      4  C   UNL     1       3.526   5.854  17.584  0.00  0.00    +0.000 C 
ATOM      5  C   UNL     1       2.390   4.864  17.840  0.00  0.00    +0.000 C 
ATOM      6  C   UNL     1       2.877   3.578  18.544  0.00  0.00    +0.000 C 
ATOM      7  C   UNL     1       3.318   3.807  20.007  0.00  0.00    +0.000 C 
ATOM      8  C   UNL     1       2.141   4.171  20.906  0.00  0.00    +0.000 C 
ATOM      9  C   UNL     1       1.032   3.138  20.767  0.00  0.00    +0.000 C 
ATOM     10  C   UNL     1       0.686   2.877  19.308  0.00  0.00    +0.000 C 
ATOM     11  O   UNL     1       1.845   2.571  18.534  0.00  0.00    +0.000 OA
ATOM     12  C   UNL     1       4.035   2.986  17.720  0.00  0.00    +0.000 C 
ATOM     13  C   UNL     1       5.140   3.995  17.448  0.00  0.00    +0.000 C 
ENDROOT
BRANCH   1  15
ATOM     14  C   UNL     1       7.346   4.635  15.664  0.00  0.00    +0.000 C 
ATOM     15  C   UNL     1       6.159   5.187  14.877  0.00  0.00    +0.000 C 
ATOM     16  C   UNL     1       5.414   4.053  14.172  0.00  0.00    +0.000 C 
ENDBRANCH   1  15
TORSDOF 1
ENDMDL
MODEL 6
REMARK VINA RESULT:      -6.2      1.526      6.027
REMARK  Name = 
REMARK  3 active torsions:
REMARK  status: ('A' for Active; 'I' for Inactive)
REMARK    1  A    between atoms: C_1  and  C_2
REMARK    2  A    between atoms: C_2  and  C_3
REMARK    3  A    between atoms: C_2  and  C_4
REMARK                            x       y       z     vdW  Elec       q    Type
REMARK                         _______ _______ _______ _____ _____    ______ ____
ROOT
ATOM      1  C   UNL     1       2.527   2.747  19.761  0.00  0.00    +0.000 C 
ATOM      2  O   UNL     1       2.053   1.669  19.401  0.00  0.00    +0.000 OA
ATOM      3  N   UNL     1       3.499   3.404  19.010  0.00  0.00    +0.000 N 
ATOM      4  C   UNL     1       3.855   2.848  17.709  0.00  0.00    +0.000 C 
ATOM      5  C   UNL     1       4.070   3.965  16.689  0.00  0.00    +0.000 C 
ATOM      6  C   UNL     1       5.109   5.005  17.163  0.00  0.00    +0.000 C 
ATOM      7  C   UNL     1       6.552   4.454  17.210  0.00  0.00    +0.000 C 
ATOM      8  C   UNL     1       7.093   4.157  15.815  0.00  0.00    +0.000 C 
ATOM      9  C   UNL     1       6.944   5.380  14.920  0.00  0.00    +0.000 C 
ATOM     10  C   UNL     1       5.531   5.943  14.969  0.00  0.00    +0.000 C 
ATOM     11  O   UNL     1       5.094   6.166  16.309  0.00  0.00    +0.000 OA
ATOM     12  C   UNL     1       4.683   5.513  18.553  0.00  0.00    +0.000 C 
ATOM     13  C   UNL     1       4.443   4.385  19.545  0.00  0.00    +0.000 C 
ENDROOT
BRANCH   1  15
ATOM     14  C   UNL     1       0.895   4.478  20.484  0.00  0.00    +0.000 C 
ATOM     15  C   UNL     1       1.950   3.488  20.974  0.00  0.00    +0.000 C 
ATOM     16  C   UNL     1       1.340   2.518  21.987  0.00  0.00    +0.000 C 
ENDBRANCH   1  15
TORSDOF 1
ENDMDL
MODEL 7
REMARK VINA RESULT:      -6.2      1.558      2.394
REMARK  Name = 
REMARK  3 active torsions:
REMARK  status: ('A' for Active; 'I' for Inactive)
REMARK    1  A    between atoms: C_1  and  C_2
REMARK    2  A    between atoms: C_2  and  C_3
REMARK    3  A    between atoms: C_2  and  C_4
REMARK                            x       y       z     vdW  Elec       q    Type
REMARK                         _______ _______ _______ _____ _____    ______ ____
ROOT
ATOM      1  C   UNL     1       5.583   4.199  15.978  0.00  0.00    +0.000 C 
ATOM      2  O   UNL     1       5.914   3.155  15.414  0.00  0.00    +0.000 OA
ATOM      3  N   UNL     1       4.609   4.211  16.973  0.00  0.00    +0.000 N 
ATOM      4  C   UNL     1       4.075   2.932  17.430  0.00  0.00    +0.000 C 
ATOM      5  C   UNL     1       3.868   2.947  18.944  0.00  0.00    +0.000 C 
ATOM      6  C   UNL     1       2.984   4.126  19.407  0.00  0.00    +0.000 C 
ATOM      7  C   UNL     1       1.507   3.995  18.973  0.00  0.00    +0.000 C 
ATOM      8  C   UNL     1       0.805   2.843  19.685  0.00  0.00    +0.000 C 
ATOM      9  C   UNL     1       0.981   2.969  21.192  0.00  0.00    +0.000 C 
ATOM     10  C   UNL     1       2.440   3.183  21.572  0.00  0.00    +0.000 C 
ATOM     11  O   UNL     1       3.026   4.260  20.842  0.00  0.00    +0.000 OA
ATOM     12  C   UNL     1       3.592   5.429  18.856  0.00  0.00    +0.000 C 
ATOM     13  C   UNL     1       3.820   5.383  17.352  0.00  0.00    +0.000 C 
ENDROOT
BRANCH   1  15
ATOM     14  C   UNL     1       7.215   5.812  16.934  0.00  0.00    +0.000 C 
ATOM     15  C   UNL     1       6.345   5.504  15.717  0.00  0.00    +0.000 C 
ATOM     16  C   UNL     1       7.207   5.410  14.457  0.00  0.00    +0.000 C 
ENDBRANCH   1  15
TORSDOF 1
ENDMDL
MODEL 8
REMARK VINA RESULT:      -6.1      2.189      3.026
REMARK  Name = 
REMARK  3 active torsions:
REMARK  status: ('A' for Active; 'I' for Inactive)
REMARK    1  A    between atoms: C_1  and  C_2
REMARK    2  A    between atoms: C_2  and  C_3
REMARK    3  A    between atoms: C_2  and  C_4
REMARK                            x       y       z     vdW  Elec       q    Type
REMARK                         _______ _______ _______ _____ _____    ______ ____
ROOT
ATOM      1  C   UNL     1       6.362   6.326  17.185  0.00  0.00    +0.000 C 
ATOM      2  O   UNL     1       6.768   6.087  16.047  0.00  0.00    +0.000 OA
ATOM      3  N   UNL     1       5.209   5.728  17.687  0.00  0.00    +0.000 N 
ATOM      4  C   UNL     1       4.556   4.703  16.879  0.00  0.00    +0.000 C 
ATOM      5  C   UNL     1       4.051   3.564  17.762  0.00  0.00    +0.000 C 
ATOM      6  C   UNL     1       3.127   4.062  18.896  0.00  0.00    +0.000 C 
ATOM      7  C   UNL     1       1.764   4.586  18.393  0.00  0.00    +0.000 C 
ATOM      8  C   UNL     1       0.900   3.467  17.821  0.00  0.00    +0.000 C 
ATOM      9  C   UNL     1       0.774   2.331  18.827  0.00  0.00    +0.000 C 
ATOM     10  C   UNL     1       2.132   1.901  19.363  0.00  0.00    +0.000 C 
ATOM     11  O   UNL     1       2.885   3.010  19.853  0.00  0.00    +0.000 OA
ATOM     12  C   UNL     1       3.872   5.161  19.676  0.00  0.00    +0.000 C 
ATOM     13  C   UNL     1       4.395   6.270  18.775  0.00  0.00    +0.000 C 
ENDROOT
BRANCH   1  15
ATOM     14  C   UNL     1       8.131   6.245  18.930  0.00  0.00    +0.000 C 
ATOM     15  C   UNL     1       7.199   7.172  18.152  0.00  0.00    +0.000 C 
ATOM     16  C   UNL     1       8.007   8.239  17.412  0.00  0.00    +0.000 C 
ENDBRANCH   1  15
TORSDOF 1
ENDMDL
MODEL 9
REMARK VINA RESULT:      -6.1      1.687      2.072
REMARK  Name = 
REMARK  3 active torsions:
REMARK  status: ('A' for Active; 'I' for Inactive)
REMARK    1  A    between atoms: C_1  and  C_2
REMARK    2  A    between atoms: C_2  and  C_3
REMARK    3  A    between atoms: C_2  and  C_4
REMARK                            x       y       z     vdW  Elec       q    Type
REMARK                         _______ _______ _______ _____ _____    ______ ____
ROOT
ATOM      1  C   UNL     1       5.543   6.588  17.156  0.00  0.00    +0.000 C 
ATOM      2  O   UNL     1       5.028   7.352  16.339  0.00  0.00    +0.000 OA
ATOM      3  N   UNL     1       4.770   5.782  17.989  0.00  0.00    +0.000 N 
ATOM      4  C   UNL     1       3.326   5.766  17.784  0.00  0.00    +0.000 C 
ATOM      5  C   UNL     1       2.776   4.351  17.956  0.00  0.00    +0.000 C 
ATOM      6  C   UNL     1       3.160   3.730  19.317  0.00  0.00    +0.000 C 
ATOM      7  C   UNL     1       2.456   4.400  20.519  0.00  0.00    +0.000 C 
ATOM      8  C   UNL     1       0.955   4.130  20.521  0.00  0.00    +0.000 C 
ATOM      9  C   UNL     1       0.687   2.635  20.422  0.00  0.00    +0.000 C 
ATOM     10  C   UNL     1       1.465   1.998  19.280  0.00  0.00    +0.000 C 
ATOM     11  O   UNL     1       2.854   2.321  19.339  0.00  0.00    +0.000 OA
ATOM     12  C   UNL     1       4.689   3.819  19.473  0.00  0.00    +0.000 C 
ATOM     13  C   UNL     1       5.221   5.230  19.266  0.00  0.00    +0.000 C 
ENDROOT
BRANCH   1  15
ATOM     14  C   UNL     1       7.472   5.648  15.900  0.00  0.00    +0.000 C 
ATOM     15  C   UNL     1       7.062   6.377  17.178  0.00  0.00    +0.000 C 
ATOM     16  C   UNL     1       7.813   7.704  17.298  0.00  0.00    +0.000 C 
ENDBRANCH   1  15
TORSDOF 1
ENDMDL
