MODEL 1
REMARK VINA RESULT:      -7.4      0.000      0.000
REMARK  Name = 
REMARK  10 active torsions:
REMARK  status: ('A' for Active; 'I' for Inactive)
REMARK    1  A    between atoms: C_1  and  O_2
REMARK    2  A    between atoms: O_2  and  C_3
REMARK    3  A    between atoms: C_6  and  O_7
REMARK    4  A    between atoms: O_7  and  C_8
REMARK    5  A    between atoms: C_15  and  C_16
REMARK    6  A    between atoms: C_20  and  C_21
REMARK    7  A    between atoms: C_27  and  O_28
REMARK    8  A    between atoms: O_28  and  C_29
REMARK    9  A    between atoms: C_32  and  O_33
REMARK   10  A    between atoms: O_33  and  C_34
REMARK                            x       y       z     vdW  Elec       q    Type
REMARK                         _______ _______ _______ _____ _____    ______ ____
ROOT
ATOM      1  C   UNL     1       2.250   7.055  18.537  0.00  0.00    +0.000 A 
ATOM      2  C   UNL     1       2.369   7.938  17.473  0.00  0.00    +0.000 A 
ATOM      3  C   UNL     1       2.275   9.305  17.724  0.00  0.00    +0.000 A 
ATOM      4  C   UNL     1       2.006   9.747  19.013  0.00  0.00    +0.000 A 
ATOM      5  C   UNL     1       1.718   8.800  19.985  0.00  0.00    +0.000 A 
ATOM      6  N   UNL     1       1.922   7.481  19.771  0.00  0.00    +0.000 NA
ENDROOT
BRANCH   1  17
ATOM      7  C   UNL     1       5.910   4.273  15.007  0.00  0.00    +0.000 A 
ATOM      8  C   UNL     1       6.638   5.445  14.828  0.00  0.00    +0.000 A 
ATOM      9  C   UNL     1       6.483   6.508  15.726  0.00  0.00    +0.000 A 
ATOM     10  C   UNL     1       5.563   6.443  16.783  0.00  0.00    +0.000 A 
ATOM     11  C   UNL     1       4.669   5.386  16.822  0.00  0.00    +0.000 A 
ATOM     12  C   UNL     1       4.912   4.288  15.975  0.00  0.00    +0.000 A 
ATOM     13  N   UNL     1       4.079   3.216  16.300  0.00  0.00    +0.000 N 
ATOM     14  C   UNL     1       3.232   3.536  17.340  0.00  0.00    +0.000 C 
ATOM     15  O   UNL     1       2.419   2.809  17.881  0.00  0.00    +0.000 OA
ATOM     16  C   UNL     1       3.495   4.997  17.623  0.00  0.00    +0.000 C 
ATOM     17  C   UNL     1       2.540   5.627  18.335  0.00  0.00    +0.000 C 
ATOM     18  H   UNL     1       4.116   2.310  15.857  0.00  0.00    +0.000 HD
BRANCH   7  20
ATOM     19  C   UNL     1       6.131   3.327  12.878  0.00  0.00    +0.000 C 
ATOM     20  O   UNL     1       6.112   3.124  14.295  0.00  0.00    +0.000 OA
ENDBRANCH   7  20
BRANCH  10  21
ATOM     21  O   UNL     1       5.685   7.443  17.700  0.00  0.00    +0.000 OA
ATOM     22  C   UNL     1       6.973   8.057  17.697  0.00  0.00    +0.000 C 
ENDBRANCH  10  21
ENDBRANCH   1  17
BRANCH   5  23
ATOM     23  C   UNL     1       1.108   9.128  21.269  0.00  0.00    +0.000 C 
ATOM     24  C   UNL     1       0.037   9.888  21.564  0.00  0.00    +0.000 C 
ATOM     25  C   UNL     1      -0.217  10.120  23.025  0.00  0.00    +0.000 C 
ATOM     26  O   UNL     1       0.273   9.549  23.980  0.00  0.00    +0.000 OA
ATOM     27  N   UNL     1      -1.111  11.165  23.070  0.00  0.00    +0.000 N 
ATOM     28  C   UNL     1      -1.525  11.570  21.798  0.00  0.00    +0.000 A 
ATOM     29  C   UNL     1      -2.392  12.609  21.464  0.00  0.00    +0.000 A 
ATOM     30  C   UNL     1      -2.638  12.815  20.102  0.00  0.00    +0.000 A 
ATOM     31  C   UNL     1      -2.130  11.941  19.134  0.00  0.00    +0.000 A 
ATOM     32  C   UNL     1      -1.334  10.851  19.501  0.00  0.00    +0.000 A 
ATOM     33  C   UNL     1      -0.925  10.736  20.823  0.00  0.00    +0.000 A 
ATOM     34  H   UNL     1      -1.405  11.539  23.956  0.00  0.00    +0.000 HD
BRANCH  29  35
ATOM     35  O   UNL     1      -3.038  13.506  22.258  0.00  0.00    +0.000 OA
ATOM     36  C   UNL     1      -4.275  13.149  22.847  0.00  0.00    +0.000 C 
ENDBRANCH  29  35
BRANCH  32  37
ATOM     37  O   UNL     1      -1.019   9.998  18.485  0.00  0.00    +0.000 OA
ATOM     38  C   UNL     1      -1.835  10.196  17.329  0.00  0.00    +0.000 C 
ENDBRANCH  32  37
ENDBRANCH   5  23
TORSDOF 6
ENDMDL
MODEL 2
REMARK VINA RESULT:      -7.2      4.029     10.023
REMARK  Name = 
REMARK  10 active torsions:
REMARK  status: ('A' for Active; 'I' for Inactive)
REMARK    1  A    between atoms: C_1  and  O_2
REMARK    2  A    between atoms: O_2  and  C_3
REMARK    3  A    between atoms: C_6  and  O_7
REMARK    4  A    between atoms: O_7  and  C_8
REMARK    5  A    between atoms: C_15  and  C_16
REMARK    6  A    between atoms: C_20  and  C_21
REMARK    7  A    between atoms: C_27  and  O_28
REMARK    8  A    between atoms: O_28  and  C_29
REMARK    9  A    between atoms: C_32  and  O_33
REMARK   10  A    between atoms: O_33  and  C_34
REMARK                            x       y       z     vdW  Elec       q    Type
REMARK                         _______ _______ _______ _____ _____    ______ ____
ROOT
ATOM      1  C   UNL     1      -1.700  14.539  22.476  0.00  0.00    +0.000 A 
ATOM      2  C   UNL     1      -2.808  14.543  23.311  0.00  0.00    +0.000 A 
ATOM      3  C   UNL     1      -3.840  13.643  23.057  0.00  0.00    +0.000 A 
ATOM      4  C   UNL     1      -3.765  12.810  21.949  0.00  0.00    +0.000 A 
ATOM      5  C   UNL     1      -2.716  12.993  21.060  0.00  0.00    +0.000 A 
ATOM      6  N   UNL     1      -1.660  13.780  21.364  0.00  0.00    +0.000 NA
ENDROOT
BRANCH   1  17
ATOM      7  C   UNL     1       2.353  17.164  19.271  0.00  0.00    +0.000 A 
ATOM      8  C   UNL     1       1.515  17.116  18.161  0.00  0.00    +0.000 A 
ATOM      9  C   UNL     1       0.144  16.889  18.330  0.00  0.00    +0.000 A 
ATOM     10  C   UNL     1      -0.406  16.654  19.598  0.00  0.00    +0.000 A 
ATOM     11  C   UNL     1       0.450  16.460  20.669  0.00  0.00    +0.000 A 
ATOM     12  C   UNL     1       1.807  16.793  20.493  0.00  0.00    +0.000 A 
ATOM     13  N   UNL     1       2.484  16.776  21.715  0.00  0.00    +0.000 N 
ATOM     14  C   UNL     1       1.647  16.411  22.748  0.00  0.00    +0.000 C 
ATOM     15  O   UNL     1       1.921  16.343  23.932  0.00  0.00    +0.000 OA
ATOM     16  C   UNL     1       0.334  16.065  22.084  0.00  0.00    +0.000 C 
ATOM     17  C   UNL     1      -0.516  15.335  22.833  0.00  0.00    +0.000 C 
ATOM     18  H   UNL     1       3.453  17.031  21.833  0.00  0.00    +0.000 HD
BRANCH   7  20
ATOM     19  C   UNL     1       4.512  16.607  18.560  0.00  0.00    +0.000 C 
ATOM     20  O   UNL     1       3.665  17.546  19.230  0.00  0.00    +0.000 OA
ENDBRANCH   7  20
BRANCH  10  21
ATOM     21  O   UNL     1      -1.768  16.680  19.637  0.00  0.00    +0.000 OA
ATOM     22  C   UNL     1      -2.318  17.945  19.276  0.00  0.00    +0.000 C 
ENDBRANCH  10  21
ENDBRANCH   1  17
BRANCH   5  23
ATOM     23  C   UNL     1      -2.694  12.427  19.716  0.00  0.00    +0.000 C 
ATOM     24  C   UNL     1      -1.928  11.455  19.184  0.00  0.00    +0.000 C 
ATOM     25  C   UNL     1      -2.089  11.231  17.710  0.00  0.00    +0.000 C 
ATOM     26  O   UNL     1      -2.958  11.648  16.969  0.00  0.00    +0.000 OA
ATOM     27  N   UNL     1      -1.002  10.469  17.344  0.00  0.00    +0.000 N 
ATOM     28  C   UNL     1      -0.211  10.108  18.438  0.00  0.00    +0.000 A 
ATOM     29  C   UNL     1       0.973   9.372  18.440  0.00  0.00    +0.000 A 
ATOM     30  C   UNL     1       1.581   9.154  19.680  0.00  0.00    +0.000 A 
ATOM     31  C   UNL     1       0.962   9.553  20.871  0.00  0.00    +0.000 A 
ATOM     32  C   UNL     1      -0.272  10.211  20.849  0.00  0.00    +0.000 A 
ATOM     33  C   UNL     1      -0.801  10.603  19.627  0.00  0.00    +0.000 A 
ATOM     34  H   UNL     1      -0.861  10.223  16.380  0.00  0.00    +0.000 HD
BRANCH  29  35
ATOM     35  O   UNL     1       1.679   8.839  17.405  0.00  0.00    +0.000 OA
ATOM     36  C   UNL     1       2.862   8.109  17.674  0.00  0.00    +0.000 C 
ENDBRANCH  29  35
BRANCH  32  37
ATOM     37  O   UNL     1      -0.835  10.421  22.073  0.00  0.00    +0.000 OA
ATOM     38  C   UNL     1      -0.172   9.702  23.114  0.00  0.00    +0.000 C 
ENDBRANCH  32  37
ENDBRANCH   5  23
TORSDOF 6
ENDMDL
MODEL 3
REMARK VINA RESULT:      -6.9      5.175      9.453
REMARK  Name = 
REMARK  10 active torsions:
REMARK  status: ('A' for Active; 'I' for Inactive)
REMARK    1  A    between atoms: C_1  and  O_2
REMARK    2  A    between atoms: O_2  and  C_3
REMARK    3  A    between atoms: C_6  and  O_7
REMARK    4  A    between atoms: O_7  and  C_8
REMARK    5  A    between atoms: C_15  and  C_16
REMARK    6  A    between atoms: C_20  and  C_21
REMARK    7  A    between atoms: C_27  and  O_28
REMARK    8  A    between atoms: O_28  and  C_29
REMARK    9  A    between atoms: C_32  and  O_33
REMARK   10  A    between atoms: O_33  and  C_34
REMARK                            x       y       z     vdW  Elec       q    Type
REMARK                         _______ _______ _______ _____ _____    ______ ____
ROOT
ATOM      1  C   UNL     1      -0.079  14.229  22.630  0.00  0.00    +0.000 A 
ATOM      2  C   UNL     1      -1.175  13.865  23.399  0.00  0.00    +0.000 A 
ATOM      3  C   UNL     1      -1.629  12.550  23.338  0.00  0.00    +0.000 A 
ATOM      4  C   UNL     1      -1.017  11.654  22.471  0.00  0.00    +0.000 A 
ATOM      5  C   UNL     1      -0.051  12.138  21.602  0.00  0.00    +0.000 A 
ATOM      6  N   UNL     1       0.468  13.379  21.741  0.00  0.00    +0.000 NA
ENDROOT
BRANCH   1  17
ATOM      7  C   UNL     1       3.981  17.107  19.660  0.00  0.00    +0.000 A 
ATOM      8  C   UNL     1       3.761  16.291  18.555  0.00  0.00    +0.000 A 
ATOM      9  C   UNL     1       2.586  15.533  18.469  0.00  0.00    +0.000 A 
ATOM     10  C   UNL     1       1.640  15.534  19.504  0.00  0.00    +0.000 A 
ATOM     11  C   UNL     1       1.964  16.148  20.702  0.00  0.00    +0.000 A 
ATOM     12  C   UNL     1       3.098  16.984  20.726  0.00  0.00    +0.000 A 
ATOM     13  N   UNL     1       3.152  17.712  21.916  0.00  0.00    +0.000 N 
ATOM     14  C   UNL     1       2.101  17.393  22.749  0.00  0.00    +0.000 C 
ATOM     15  O   UNL     1       1.843  17.881  23.834  0.00  0.00    +0.000 OA
ATOM     16  C   UNL     1       1.371  16.272  22.045  0.00  0.00    +0.000 C 
ATOM     17  C   UNL     1       0.540  15.549  22.821  0.00  0.00    +0.000 C 
ATOM     18  H   UNL     1       3.852  18.409  22.126  0.00  0.00    +0.000 HD
BRANCH   7  20
ATOM     19  C   UNL     1       6.299  17.419  19.622  0.00  0.00    +0.000 C 
ATOM     20  O   UNL     1       5.003  18.009  19.759  0.00  0.00    +0.000 OA
ENDBRANCH   7  20
BRANCH  10  21
ATOM     21  O   UNL     1       0.454  14.940  19.186  0.00  0.00    +0.000 OA
ATOM     22  C   UNL     1      -0.578  15.874  18.875  0.00  0.00    +0.000 C 
ENDBRANCH  10  21
ENDBRANCH   1  17
BRANCH   5  23
ATOM     23  C   UNL     1       0.427  11.398  20.440  0.00  0.00    +0.000 C 
ATOM     24  C   UNL     1      -0.182  11.101  19.276  0.00  0.00    +0.000 C 
ATOM     25  C   UNL     1       0.575  10.189  18.357  0.00  0.00    +0.000 C 
ATOM     26  O   UNL     1       1.743   9.853  18.413  0.00  0.00    +0.000 OA
ATOM     27  N   UNL     1      -0.352   9.763  17.433  0.00  0.00    +0.000 N 
ATOM     28  C   UNL     1      -1.598  10.371  17.608  0.00  0.00    +0.000 A 
ATOM     29  C   UNL     1      -2.770  10.159  16.883  0.00  0.00    +0.000 A 
ATOM     30  C   UNL     1      -3.894  10.895  17.269  0.00  0.00    +0.000 A 
ATOM     31  C   UNL     1      -3.810  11.884  18.257  0.00  0.00    +0.000 A 
ATOM     32  C   UNL     1      -2.600  12.141  18.909  0.00  0.00    +0.000 A 
ATOM     33  C   UNL     1      -1.521  11.298  18.676  0.00  0.00    +0.000 A 
ATOM     34  H   UNL     1      -0.091   9.097  16.727  0.00  0.00    +0.000 HD
BRANCH  29  35
ATOM     35  O   UNL     1      -3.024   9.308  15.851  0.00  0.00    +0.000 OA
ATOM     36  C   UNL     1      -3.277   9.836  14.562  0.00  0.00    +0.000 C 
ENDBRANCH  29  35
BRANCH  32  37
ATOM     37  O   UNL     1      -2.613  13.217  19.746  0.00  0.00    +0.000 OA
ATOM     38  C   UNL     1      -3.803  13.285  20.534  0.00  0.00    +0.000 C 
ENDBRANCH  32  37
ENDBRANCH   5  23
TORSDOF 6
ENDMDL
MODEL 4
REMARK VINA RESULT:      -6.9      4.121      8.222
REMARK  Name = 
REMARK  10 active torsions:
REMARK  status: ('A' for Active; 'I' for Inactive)
REMARK    1  A    between atoms: C_1  and  O_2
REMARK    2  A    between atoms: O_2  and  C_3
REMARK    3  A    between atoms: C_6  and  O_7
REMARK    4  A    between atoms: O_7  and  C_8
REMARK    5  A    between atoms: C_15  and  C_16
REMARK    6  A    between atoms: C_20  and  C_21
REMARK    7  A    between atoms: C_27  and  O_28
REMARK    8  A    between atoms: O_28  and  C_29
REMARK    9  A    between atoms: C_32  and  O_33
REMARK   10  A    between atoms: O_33  and  C_34
REMARK                            x       y       z     vdW  Elec       q    Type
REMARK                         _______ _______ _______ _____ _____    ______ ____
ROOT
ATOM      1  C   UNL     1      -3.402  13.454  20.770  0.00  0.00    +0.000 A 
ATOM      2  C   UNL     1      -4.600  13.596  21.456  0.00  0.00    +0.000 A 
ATOM      3  C   UNL     1      -4.696  14.576  22.441  0.00  0.00    +0.000 A 
ATOM      4  C   UNL     1      -3.581  15.342  22.755  0.00  0.00    +0.000 A 
ATOM      5  C   UNL     1      -2.372  15.017  22.157  0.00  0.00    +0.000 A 
ATOM      6  N   UNL     1      -2.305  14.150  21.122  0.00  0.00    +0.000 NA
ENDROOT
BRANCH   1  17
ATOM      7  C   UNL     1       0.818  10.091  18.657  0.00  0.00    +0.000 A 
ATOM      8  C   UNL     1       1.469  10.125  19.886  0.00  0.00    +0.000 A 
ATOM      9  C   UNL     1       0.772  10.519  21.035  0.00  0.00    +0.000 A 
ATOM     10  C   UNL     1      -0.564  10.938  20.970  0.00  0.00    +0.000 A 
ATOM     11  C   UNL     1      -1.140  11.138  19.727  0.00  0.00    +0.000 A 
ATOM     12  C   UNL     1      -0.458  10.639  18.600  0.00  0.00    +0.000 A 
ATOM     13  N   UNL     1      -1.267  10.699  17.463  0.00  0.00    +0.000 N 
ATOM     14  C   UNL     1      -2.496  11.254  17.751  0.00  0.00    +0.000 C 
ATOM     15  O   UNL     1      -3.435  11.406  16.991  0.00  0.00    +0.000 OA
ATOM     16  C   UNL     1      -2.404  11.679  19.199  0.00  0.00    +0.000 C 
ATOM     17  C   UNL     1      -3.334  12.569  19.598  0.00  0.00    +0.000 C 
ATOM     18  H   UNL     1      -1.001  10.349  16.555  0.00  0.00    +0.000 HD
BRANCH   7  20
ATOM     19  C   UNL     1       2.242   8.467  17.757  0.00  0.00    +0.000 C 
ATOM     20  O   UNL     1       1.354   9.563  17.516  0.00  0.00    +0.000 OA
ENDBRANCH   7  20
BRANCH  10  21
ATOM     21  O   UNL     1      -1.174  11.069  22.182  0.00  0.00    +0.000 OA
ATOM     22  C   UNL     1      -0.732  10.111  23.142  0.00  0.00    +0.000 C 
ENDBRANCH  10  21
ENDBRANCH   1  17
BRANCH   5  23
ATOM     23  C   UNL     1      -1.084  15.512  22.630  0.00  0.00    +0.000 C 
ATOM     24  C   UNL     1      -0.109  16.180  21.986  0.00  0.00    +0.000 C 
ATOM     25  C   UNL     1       1.154  16.405  22.764  0.00  0.00    +0.000 C 
ATOM     26  O   UNL     1       1.346  16.261  23.956  0.00  0.00    +0.000 OA
ATOM     27  N   UNL     1       2.090  16.778  21.826  0.00  0.00    +0.000 N 
ATOM     28  C   UNL     1       1.543  16.902  20.547  0.00  0.00    +0.000 A 
ATOM     29  C   UNL     1       2.195  17.230  19.358  0.00  0.00    +0.000 A 
ATOM     30  C   UNL     1       1.413  17.281  18.200  0.00  0.00    +0.000 A 
ATOM     31  C   UNL     1       0.022  17.128  18.257  0.00  0.00    +0.000 A 
ATOM     32  C   UNL     1      -0.621  16.888  19.476  0.00  0.00    +0.000 A 
ATOM     33  C   UNL     1       0.150  16.649  20.605  0.00  0.00    +0.000 A 
ATOM     34  H   UNL     1       3.042  16.942  22.102  0.00  0.00    +0.000 HD
BRANCH  29  35
ATOM     35  O   UNL     1       3.510  17.487  19.119  0.00  0.00    +0.000 OA
ATOM     36  C   UNL     1       4.281  16.548  18.392  0.00  0.00    +0.000 C 
ENDBRANCH  29  35
BRANCH  32  37
ATOM     37  O   UNL     1      -1.983  16.898  19.421  0.00  0.00    +0.000 OA
ATOM     38  C   UNL     1      -2.543  18.130  19.878  0.00  0.00    +0.000 C 
ENDBRANCH  32  37
ENDBRANCH   5  23
TORSDOF 6
ENDMDL
MODEL 5
REMARK VINA RESULT:      -6.9      5.957      9.273
REMARK  Name = 
REMARK  10 active torsions:
REMARK  status: ('A' for Active; 'I' for Inactive)
REMARK    1  A    between atoms: C_1  and  O_2
REMARK    2  A    between atoms: O_2  and  C_3
REMARK    3  A    between atoms: C_6  and  O_7
REMARK    4  A    between atoms: O_7  and  C_8
REMARK    5  A    between atoms: C_15  and  C_16
REMARK    6  A    between atoms: C_20  and  C_21
REMARK    7  A    between atoms: C_27  and  O_28
REMARK    8  A    between atoms: O_28  and  C_29
REMARK    9  A    between atoms: C_32  and  O_33
REMARK   10  A    between atoms: O_33  and  C_34
REMARK                            x       y       z     vdW  Elec       q    Type
REMARK                         _______ _______ _______ _____ _____    ______ ____
ROOT
ATOM      1  C   UNL     1      -5.846  11.893  18.263  0.00  0.00    +0.000 A 
ATOM      2  C   UNL     1      -6.732  12.356  17.300  0.00  0.00    +0.000 A 
ATOM      3  C   UNL     1      -7.733  13.245  17.684  0.00  0.00    +0.000 A 
ATOM      4  C   UNL     1      -7.858  13.599  19.021  0.00  0.00    +0.000 A 
ATOM      5  C   UNL     1      -7.054  12.954  19.948  0.00  0.00    +0.000 A 
ATOM      6  N   UNL     1      -6.012  12.183  19.567  0.00  0.00    +0.000 NA
ENDROOT
BRANCH   1  17
ATOM      7  C   UNL     1      -0.155  12.877  18.744  0.00  0.00    +0.000 A 
ATOM      8  C   UNL     1      -0.396  13.823  19.736  0.00  0.00    +0.000 A 
ATOM      9  C   UNL     1      -1.633  13.847  20.393  0.00  0.00    +0.000 A 
ATOM     10  C   UNL     1      -2.665  12.966  20.038  0.00  0.00    +0.000 A 
ATOM     11  C   UNL     1      -2.518  12.193  18.899  0.00  0.00    +0.000 A 
ATOM     12  C   UNL     1      -1.236  12.113  18.321  0.00  0.00    +0.000 A 
ATOM     13  N   UNL     1      -1.195  11.118  17.342  0.00  0.00    +0.000 N 
ATOM     14  C   UNL     1      -2.423  10.510  17.192  0.00  0.00    +0.000 C 
ATOM     15  O   UNL     1      -2.704   9.583  16.454  0.00  0.00    +0.000 OA
ATOM     16  C   UNL     1      -3.354  11.278  18.102  0.00  0.00    +0.000 C 
ATOM     17  C   UNL     1      -4.668  11.114  17.854  0.00  0.00    +0.000 C 
ATOM     18  H   UNL     1      -0.365  10.853  16.833  0.00  0.00    +0.000 HD
BRANCH   7  20
ATOM     19  C   UNL     1       1.818  11.621  18.797  0.00  0.00    +0.000 C 
ATOM     20  O   UNL     1       1.064  12.660  18.167  0.00  0.00    +0.000 OA
ENDBRANCH   7  20
BRANCH  10  21
ATOM     21  O   UNL     1      -3.715  12.948  20.907  0.00  0.00    +0.000 OA
ATOM     22  C   UNL     1      -3.392  13.477  22.192  0.00  0.00    +0.000 C 
ENDBRANCH  10  21
ENDBRANCH   1  17
BRANCH   5  23
ATOM     23  C   UNL     1      -7.303  12.984  21.386  0.00  0.00    +0.000 C 
ATOM     24  C   UNL     1      -7.065  13.945  22.298  0.00  0.00    +0.000 C 
ATOM     25  C   UNL     1      -7.323  13.568  23.727  0.00  0.00    +0.000 C 
ATOM     26  O   UNL     1      -7.916  12.599  24.161  0.00  0.00    +0.000 OA
ATOM     27  N   UNL     1      -6.702  14.544  24.472  0.00  0.00    +0.000 N 
ATOM     28  C   UNL     1      -6.150  15.552  23.677  0.00  0.00    +0.000 A 
ATOM     29  C   UNL     1      -5.427  16.673  24.084  0.00  0.00    +0.000 A 
ATOM     30  C   UNL     1      -4.973  17.533  23.079  0.00  0.00    +0.000 A 
ATOM     31  C   UNL     1      -5.334  17.338  21.741  0.00  0.00    +0.000 A 
ATOM     32  C   UNL     1      -6.136  16.254  21.367  0.00  0.00    +0.000 A 
ATOM     33  C   UNL     1      -6.442  15.288  22.316  0.00  0.00    +0.000 A 
ATOM     34  H   UNL     1      -6.697  14.485  25.475  0.00  0.00    +0.000 HD
BRANCH  29  35
ATOM     35  O   UNL     1      -5.048  17.070  25.330  0.00  0.00    +0.000 OA
ATOM     36  C   UNL     1      -5.172  18.432  25.693  0.00  0.00    +0.000 C 
ENDBRANCH  29  35
BRANCH  32  37
ATOM     37  O   UNL     1      -6.533  16.253  20.063  0.00  0.00    +0.000 OA
ATOM     38  C   UNL     1      -5.767  17.149  19.255  0.00  0.00    +0.000 C 
ENDBRANCH  32  37
ENDBRANCH   5  23
TORSDOF 6
ENDMDL
MODEL 6
REMARK VINA RESULT:      -6.9      6.134      8.849
REMARK  Name = 
REMARK  10 active torsions:
REMARK  status: ('A' for Active; 'I' for Inactive)
REMARK    1  A    between atoms: C_1  and  O_2
REMARK    2  A    between atoms: O_2  and  C_3
REMARK    3  A    between atoms: C_6  and  O_7
REMARK    4  A    between atoms: O_7  and  C_8
REMARK    5  A    between atoms: C_15  and  C_16
REMARK    6  A    between atoms: C_20  and  C_21
REMARK    7  A    between atoms: C_27  and  O_28
REMARK    8  A    between atoms: O_28  and  C_29
REMARK    9  A    between atoms: C_32  and  O_33
REMARK   10  A    between atoms: O_33  and  C_34
REMARK                            x       y       z     vdW  Elec       q    Type
REMARK                         _______ _______ _______ _____ _____    ______ ____
ROOT
ATOM      1  C   UNL     1      -2.863  12.972  21.090  0.00  0.00    +0.000 A 
ATOM      2  C   UNL     1      -2.249  11.970  21.827  0.00  0.00    +0.000 A 
ATOM      3  C   UNL     1      -1.245  12.319  22.727  0.00  0.00    +0.000 A 
ATOM      4  C   UNL     1      -0.842  13.645  22.820  0.00  0.00    +0.000 A 
ATOM      5  C   UNL     1      -1.372  14.557  21.921  0.00  0.00    +0.000 A 
ATOM      6  N   UNL     1      -2.424  14.244  21.132  0.00  0.00    +0.000 NA
ENDROOT
BRANCH   1  17
ATOM      7  C   UNL     1      -3.514  10.593  15.845  0.00  0.00    +0.000 A 
ATOM      8  C   UNL     1      -2.225  10.071  15.915  0.00  0.00    +0.000 A 
ATOM      9  C   UNL     1      -1.574   9.982  17.151  0.00  0.00    +0.000 A 
ATOM     10  C   UNL     1      -2.171  10.459  18.327  0.00  0.00    +0.000 A 
ATOM     11  C   UNL     1      -3.340  11.194  18.229  0.00  0.00    +0.000 A 
ATOM     12  C   UNL     1      -4.023  11.180  16.997  0.00  0.00    +0.000 A 
ATOM     13  N   UNL     1      -5.289  11.756  17.125  0.00  0.00    +0.000 N 
ATOM     14  C   UNL     1      -5.510  12.202  18.410  0.00  0.00    +0.000 C 
ATOM     15  O   UNL     1      -6.524  12.709  18.852  0.00  0.00    +0.000 OA
ATOM     16  C   UNL     1      -4.203  11.973  19.134  0.00  0.00    +0.000 C 
ATOM     17  C   UNL     1      -4.052  12.660  20.283  0.00  0.00    +0.000 C 
ATOM     18  H   UNL     1      -5.970  11.807  16.382  0.00  0.00    +0.000 HD
BRANCH   7  20
ATOM     19  C   UNL     1      -3.683   9.899  13.617  0.00  0.00    +0.000 C 
ATOM     20  O   UNL     1      -4.296  10.566  14.725  0.00  0.00    +0.000 OA
ENDBRANCH   7  20
BRANCH  10  21
ATOM     21  O   UNL     1      -1.527  10.100  19.473  0.00  0.00    +0.000 OA
ATOM     22  C   UNL     1      -0.111  10.015  19.321  0.00  0.00    +0.000 C 
ENDBRANCH  10  21
ENDBRANCH   1  17
BRANCH   5  23
ATOM     23  C   UNL     1      -0.806  15.883  21.694  0.00  0.00    +0.000 C 
ATOM     24  C   UNL     1       0.229  16.277  20.929  0.00  0.00    +0.000 C 
ATOM     25  C   UNL     1       0.620  17.720  21.052  0.00  0.00    +0.000 C 
ATOM     26  O   UNL     1       0.008  18.630  21.575  0.00  0.00    +0.000 OA
ATOM     27  N   UNL     1       1.866  17.803  20.472  0.00  0.00    +0.000 N 
ATOM     28  C   UNL     1       2.276  16.590  19.913  0.00  0.00    +0.000 A 
ATOM     29  C   UNL     1       3.482  16.298  19.277  0.00  0.00    +0.000 A 
ATOM     30  C   UNL     1       3.651  14.991  18.809  0.00  0.00    +0.000 A 
ATOM     31  C   UNL     1       2.609  14.058  18.872  0.00  0.00    +0.000 A 
ATOM     32  C   UNL     1       1.375  14.402  19.435  0.00  0.00    +0.000 A 
ATOM     33  C   UNL     1       1.247  15.629  20.071  0.00  0.00    +0.000 A 
ATOM     34  H   UNL     1       2.364  18.676  20.471  0.00  0.00    +0.000 HD
BRANCH  29  35
ATOM     35  O   UNL     1       4.571  17.083  19.053  0.00  0.00    +0.000 OA
ATOM     36  C   UNL     1       5.828  16.477  18.813  0.00  0.00    +0.000 C 
ENDBRANCH  29  35
BRANCH  32  37
ATOM     37  O   UNL     1       0.401  13.456  19.310  0.00  0.00    +0.000 OA
ATOM     38  C   UNL     1      -0.366  13.611  18.115  0.00  0.00    +0.000 C 
ENDBRANCH  32  37
ENDBRANCH   5  23
TORSDOF 6
ENDMDL
MODEL 7
REMARK VINA RESULT:      -6.8      5.057      9.143
REMARK  Name = 
REMARK  10 active torsions:
REMARK  status: ('A' for Active; 'I' for Inactive)
REMARK    1  A    between atoms: C_1  and  O_2
REMARK    2  A    between atoms: O_2  and  C_3
REMARK    3  A    between atoms: C_6  and  O_7
REMARK    4  A    between atoms: O_7  and  C_8
REMARK    5  A    between atoms: C_15  and  C_16
REMARK    6  A    between atoms: C_20  and  C_21
REMARK    7  A    between atoms: C_27  and  O_28
REMARK    8  A    between atoms: O_28  and  C_29
REMARK    9  A    between atoms: C_32  and  O_33
REMARK   10  A    between atoms: O_33  and  C_34
REMARK                            x       y       z     vdW  Elec       q    Type
REMARK                         _______ _______ _______ _____ _____    ______ ____
ROOT
ATOM      1  C   UNL     1      -2.162  14.323  23.695  0.00  0.00    +0.000 A 
ATOM      2  C   UNL     1      -1.991  15.048  24.866  0.00  0.00    +0.000 A 
ATOM      3  C   UNL     1      -2.793  16.165  25.085  0.00  0.00    +0.000 A 
ATOM      4  C   UNL     1      -3.697  16.560  24.109  0.00  0.00    +0.000 A 
ATOM      5  C   UNL     1      -3.681  15.896  22.891  0.00  0.00    +0.000 A 
ATOM      6  N   UNL     1      -2.990  14.747  22.721  0.00  0.00    +0.000 NA
ENDROOT
BRANCH   1  17
ATOM      7  C   UNL     1      -0.319  11.460  19.006  0.00  0.00    +0.000 A 
ATOM      8  C   UNL     1      -0.379  12.632  18.258  0.00  0.00    +0.000 A 
ATOM      9  C   UNL     1      -0.434  13.872  18.908  0.00  0.00    +0.000 A 
ATOM     10  C   UNL     1      -0.487  13.962  20.306  0.00  0.00    +0.000 A 
ATOM     11  C   UNL     1      -0.673  12.803  21.041  0.00  0.00    +0.000 A 
ATOM     12  C   UNL     1      -0.510  11.571  20.377  0.00  0.00    +0.000 A 
ATOM     13  N   UNL     1      -0.487  10.515  21.290  0.00  0.00    +0.000 N 
ATOM     14  C   UNL     1      -0.657  10.965  22.582  0.00  0.00    +0.000 C 
ATOM     15  O   UNL     1      -0.643  10.302  23.604  0.00  0.00    +0.000 OA
ATOM     16  C   UNL     1      -0.916  12.448  22.450  0.00  0.00    +0.000 C 
ATOM     17  C   UNL     1      -1.473  13.035  23.528  0.00  0.00    +0.000 C 
ATOM     18  H   UNL     1      -0.331   9.550  21.042  0.00  0.00    +0.000 HD
BRANCH   7  20
ATOM     19  C   UNL     1       1.282   9.981  18.154  0.00  0.00    +0.000 C 
ATOM     20  O   UNL     1      -0.091  10.220  18.476  0.00  0.00    +0.000 OA
ENDBRANCH   7  20
BRANCH  10  21
ATOM     21  O   UNL     1      -0.306  15.220  20.798  0.00  0.00    +0.000 OA
ATOM     22  C   UNL     1       1.037  15.479  21.203  0.00  0.00    +0.000 C 
ENDBRANCH  10  21
ENDBRANCH   1  17
BRANCH   5  23
ATOM     23  C   UNL     1      -4.330  16.407  21.689  0.00  0.00    +0.000 C 
ATOM     24  C   UNL     1      -5.287  15.868  20.911  0.00  0.00    +0.000 C 
ATOM     25  C   UNL     1      -5.615  16.626  19.659  0.00  0.00    +0.000 C 
ATOM     26  O   UNL     1      -5.298  17.760  19.353  0.00  0.00    +0.000 OA
ATOM     27  N   UNL     1      -6.333  15.744  18.884  0.00  0.00    +0.000 N 
ATOM     28  C   UNL     1      -6.576  14.534  19.540  0.00  0.00    +0.000 A 
ATOM     29  C   UNL     1      -7.239  13.408  19.053  0.00  0.00    +0.000 A 
ATOM     30  C   UNL     1      -7.342  12.312  19.916  0.00  0.00    +0.000 A 
ATOM     31  C   UNL     1      -6.904  12.390  21.243  0.00  0.00    +0.000 A 
ATOM     32  C   UNL     1      -6.322  13.563  21.736  0.00  0.00    +0.000 A 
ATOM     33  C   UNL     1      -6.041  14.595  20.850  0.00  0.00    +0.000 A 
ATOM     34  H   UNL     1      -6.632  16.010  17.963  0.00  0.00    +0.000 HD
BRANCH  29  35
ATOM     35  O   UNL     1      -7.795  13.173  17.833  0.00  0.00    +0.000 OA
ATOM     36  C   UNL     1      -6.977  13.209  16.678  0.00  0.00    +0.000 C 
ENDBRANCH  29  35
BRANCH  32  37
ATOM     37  O   UNL     1      -6.067  13.562  23.075  0.00  0.00    +0.000 OA
ATOM     38  C   UNL     1      -7.168  13.073  23.843  0.00  0.00    +0.000 C 
ENDBRANCH  32  37
ENDBRANCH   5  23
TORSDOF 6
ENDMDL
MODEL 8
REMARK VINA RESULT:      -6.8      6.490      8.719
REMARK  Name = 
REMARK  10 active torsions:
REMARK  status: ('A' for Active; 'I' for Inactive)
REMARK    1  A    between atoms: C_1  and  O_2
REMARK    2  A    between atoms: O_2  and  C_3
REMARK    3  A    between atoms: C_6  and  O_7
REMARK    4  A    between atoms: O_7  and  C_8
REMARK    5  A    between atoms: C_15  and  C_16
REMARK    6  A    between atoms: C_20  and  C_21
REMARK    7  A    between atoms: C_27  and  O_28
REMARK    8  A    between atoms: O_28  and  C_29
REMARK    9  A    between atoms: C_32  and  O_33
REMARK   10  A    between atoms: O_33  and  C_34
REMARK                            x       y       z     vdW  Elec       q    Type
REMARK                         _______ _______ _______ _____ _____    ______ ____
ROOT
ATOM      1  C   UNL     1       4.086  15.253  18.197  0.00  0.00    +0.000 A 
ATOM      2  C   UNL     1       3.611  16.049  17.164  0.00  0.00    +0.000 A 
ATOM      3  C   UNL     1       2.558  16.922  17.422  0.00  0.00    +0.000 A 
ATOM      4  C   UNL     1       1.971  16.934  18.681  0.00  0.00    +0.000 A 
ATOM      5  C   UNL     1       2.378  15.982  19.604  0.00  0.00    +0.000 A 
ATOM      6  N   UNL     1       3.473  15.216  19.395  0.00  0.00    +0.000 NA
ENDROOT
BRANCH   1  17
ATOM      7  C   UNL     1       9.698  16.633  18.636  0.00  0.00    +0.000 A 
ATOM      8  C   UNL     1       9.370  17.757  19.387  0.00  0.00    +0.000 A 
ATOM      9  C   UNL     1       8.106  17.854  19.983  0.00  0.00    +0.000 A 
ATOM     10  C   UNL     1       7.133  16.862  19.796  0.00  0.00    +0.000 A 
ATOM     11  C   UNL     1       7.366  15.869  18.860  0.00  0.00    +0.000 A 
ATOM     12  C   UNL     1       8.674  15.736  18.355  0.00  0.00    +0.000 A 
ATOM     13  N   UNL     1       8.805  14.557  17.620  0.00  0.00    +0.000 N 
ATOM     14  C   UNL     1       7.615  13.863  17.567  0.00  0.00    +0.000 C 
ATOM     15  O   UNL     1       7.410  12.784  17.042  0.00  0.00    +0.000 OA
ATOM     16  C   UNL     1       6.610  14.758  18.257  0.00  0.00    +0.000 C 
ATOM     17  C   UNL     1       5.317  14.471  18.008  0.00  0.00    +0.000 C 
ATOM     18  H   UNL     1       9.668  14.234  17.209  0.00  0.00    +0.000 HD
BRANCH   7  20
ATOM     19  C   UNL     1      11.504  17.427  17.377  0.00  0.00    +0.000 C 
ATOM     20  O   UNL     1      10.951  16.364  18.160  0.00  0.00    +0.000 OA
ENDBRANCH   7  20
BRANCH  10  21
ATOM     21  O   UNL     1       6.048  16.974  20.614  0.00  0.00    +0.000 OA
ATOM     22  C   UNL     1       5.400  18.241  20.519  0.00  0.00    +0.000 C 
ENDBRANCH  10  21
ENDBRANCH   1  17
BRANCH   5  23
ATOM     23  C   UNL     1       1.634  15.672  20.820  0.00  0.00    +0.000 C 
ATOM     24  C   UNL     1       0.645  14.787  21.043  0.00  0.00    +0.000 C 
ATOM     25  C   UNL     1       0.012  14.844  22.403  0.00  0.00    +0.000 C 
ATOM     26  O   UNL     1       0.403  15.423  23.398  0.00  0.00    +0.000 OA
ATOM     27  N   UNL     1      -1.154  14.123  22.284  0.00  0.00    +0.000 N 
ATOM     28  C   UNL     1      -1.294  13.538  21.023  0.00  0.00    +0.000 A 
ATOM     29  C   UNL     1      -2.354  12.770  20.542  0.00  0.00    +0.000 A 
ATOM     30  C   UNL     1      -2.252  12.304  19.227  0.00  0.00    +0.000 A 
ATOM     31  C   UNL     1      -1.086  12.500  18.477  0.00  0.00    +0.000 A 
ATOM     32  C   UNL     1       0.001  13.197  19.014  0.00  0.00    +0.000 A 
ATOM     33  C   UNL     1      -0.148  13.827  20.243  0.00  0.00    +0.000 A 
ATOM     34  H   UNL     1      -1.784  14.053  23.064  0.00  0.00    +0.000 HD
BRANCH  29  35
ATOM     35  O   UNL     1      -3.523  12.411  21.140  0.00  0.00    +0.000 OA
ATOM     36  C   UNL     1      -4.628  13.294  21.092  0.00  0.00    +0.000 C 
ENDBRANCH  29  35
BRANCH  32  37
ATOM     37  O   UNL     1       1.124  13.199  18.241  0.00  0.00    +0.000 OA
ATOM     38  C   UNL     1       1.981  12.089  18.514  0.00  0.00    +0.000 C 
ENDBRANCH  32  37
ENDBRANCH   5  23
TORSDOF 6
ENDMDL
MODEL 9
REMARK VINA RESULT:      -6.8      5.486      7.993
REMARK  Name = 
REMARK  10 active torsions:
REMARK  status: ('A' for Active; 'I' for Inactive)
REMARK    1  A    between atoms: C_1  and  O_2
REMARK    2  A    between atoms: O_2  and  C_3
REMARK    3  A    between atoms: C_6  and  O_7
REMARK    4  A    between atoms: O_7  and  C_8
REMARK    5  A    between atoms: C_15  and  C_16
REMARK    6  A    between atoms: C_20  and  C_21
REMARK    7  A    between atoms: C_27  and  O_28
REMARK    8  A    between atoms: O_28  and  C_29
REMARK    9  A    between atoms: C_32  and  O_33
REMARK   10  A    between atoms: O_33  and  C_34
REMARK                            x       y       z     vdW  Elec       q    Type
REMARK                         _______ _______ _______ _____ _____    ______ ____
ROOT
ATOM      1  C   UNL     1      -1.782  11.701  19.430  0.00  0.00    +0.000 A 
ATOM      2  C   UNL     1      -2.738  11.700  18.423  0.00  0.00    +0.000 A 
ATOM      3  C   UNL     1      -4.002  12.215  18.699  0.00  0.00    +0.000 A 
ATOM      4  C   UNL     1      -4.295  12.659  19.982  0.00  0.00    +0.000 A 
ATOM      5  C   UNL     1      -3.351  12.458  20.977  0.00  0.00    +0.000 A 
ATOM      6  N   UNL     1      -2.089  12.068  20.689  0.00  0.00    +0.000 NA
ENDROOT
BRANCH   1  17
ATOM      7  C   UNL     1       2.864  14.916  18.138  0.00  0.00    +0.000 A 
ATOM      8  C   UNL     1       2.247  16.038  18.683  0.00  0.00    +0.000 A 
ATOM      9  C   UNL     1       1.150  15.885  19.541  0.00  0.00    +0.000 A 
ATOM     10  C   UNL     1       0.617  14.619  19.824  0.00  0.00    +0.000 A 
ATOM     11  C   UNL     1       1.068  13.529  19.100  0.00  0.00    +0.000 A 
ATOM     12  C   UNL     1       2.233  13.692  18.325  0.00  0.00    +0.000 A 
ATOM     13  N   UNL     1       2.694  12.460  17.857  0.00  0.00    +0.000 N 
ATOM     14  C   UNL     1       1.868  11.430  18.256  0.00  0.00    +0.000 C 
ATOM     15  O   UNL     1       2.017  10.240  18.048  0.00  0.00    +0.000 OA
ATOM     16  C   UNL     1       0.715  12.105  18.963  0.00  0.00    +0.000 C 
ATOM     17  C   UNL     1      -0.390  11.349  19.114  0.00  0.00    +0.000 C 
ATOM     18  H   UNL     1       3.541  12.333  17.323  0.00  0.00    +0.000 HD
BRANCH   7  20
ATOM     19  C   UNL     1       5.107  15.580  18.138  0.00  0.00    +0.000 C 
ATOM     20  O   UNL     1       4.035  14.947  17.434  0.00  0.00    +0.000 OA
ENDBRANCH   7  20
BRANCH  10  21
ATOM     21  O   UNL     1      -0.289  14.604  20.842  0.00  0.00    +0.000 OA
ATOM     22  C   UNL     1       0.299  14.353  22.117  0.00  0.00    +0.000 C 
ENDBRANCH  10  21
ENDBRANCH   1  17
BRANCH   5  23
ATOM     23  C   UNL     1      -3.648  12.571  22.401  0.00  0.00    +0.000 C 
ATOM     24  C   UNL     1      -3.584  13.630  23.231  0.00  0.00    +0.000 C 
ATOM     25  C   UNL     1      -3.831  13.338  24.682  0.00  0.00    +0.000 C 
ATOM     26  O   UNL     1      -4.290  12.332  25.186  0.00  0.00    +0.000 OA
ATOM     27  N   UNL     1      -3.385  14.455  25.351  0.00  0.00    +0.000 N 
ATOM     28  C   UNL     1      -2.960  15.464  24.482  0.00  0.00    +0.000 A 
ATOM     29  C   UNL     1      -2.423  16.709  24.805  0.00  0.00    +0.000 A 
ATOM     30  C   UNL     1      -2.067  17.541  23.738  0.00  0.00    +0.000 A 
ATOM     31  C   UNL     1      -2.350  17.183  22.415  0.00  0.00    +0.000 A 
ATOM     32  C   UNL     1      -2.973  15.966  22.121  0.00  0.00    +0.000 A 
ATOM     33  C   UNL     1      -3.165  15.047  23.144  0.00  0.00    +0.000 A 
ATOM     34  H   UNL     1      -3.404  14.481  26.355  0.00  0.00    +0.000 HD
BRANCH  29  35
ATOM     35  O   UNL     1      -2.147  17.261  26.019  0.00  0.00    +0.000 OA
ATOM     36  C   UNL     1      -0.866  17.076  26.591  0.00  0.00    +0.000 C 
ENDBRANCH  29  35
BRANCH  32  37
ATOM     37  O   UNL     1      -3.321  15.797  20.814  0.00  0.00    +0.000 OA
ATOM     38  C   UNL     1      -3.033  16.946  20.015  0.00  0.00    +0.000 C 
ENDBRANCH  32  37
ENDBRANCH   5  23
TORSDOF 6
ENDMDL
