MODEL 1
REMARK VINA RESULT:      -8.5      0.000      0.000
REMARK  Name = 
REMARK  9 active torsions:
REMARK  status: ('A' for Active; 'I' for Inactive)
REMARK    1  A    between atoms: C_1  and  C_2
REMARK    2  A    between atoms: C_2  and  C_3
REMARK    3  A    between atoms: C_2  and  C_4
REMARK    4  A    between atoms: C_4  and  N_5
REMARK    5  A    between atoms: C_6  and  C_8
REMARK    6  A    between atoms: C_12  and  C_13
REMARK    7  A    between atoms: C_16  and  C_17
REMARK    8  A    between atoms: C_17  and  N_18
REMARK    9  A    between atoms: C_21  and  N_22
REMARK                            x       y       z     vdW  Elec       q    Type
REMARK                         _______ _______ _______ _____ _____    ______ ____
ROOT
ATOM      1  C   UNL     1       3.972   6.754  18.247  0.00  0.00    +0.000 A 
ATOM      2  C   UNL     1       3.212   6.441  19.388  0.00  0.00    +0.000 A 
ATOM      3  C   UNL     1       2.071   7.195  19.762  0.00  0.00    +0.000 A 
ATOM      4  C   UNL     1       1.680   8.318  19.020  0.00  0.00    +0.000 A 
ATOM      5  C   UNL     1       2.413   8.619  17.869  0.00  0.00    +0.000 A 
ATOM      6  C   UNL     1       3.513   7.845  17.492  0.00  0.00    +0.000 A 
ENDROOT
BRANCH   1  11
ATOM      7  C   UNL     1       6.571   5.082  16.017  0.00  0.00    +0.000 A 
ATOM      8  C   UNL     1       7.288   4.406  16.990  0.00  0.00    +0.000 A 
ATOM      9  N   UNL     1       7.051   4.519  18.318  0.00  0.00    +0.000 NA
ATOM     10  C   UNL     1       6.004   5.302  18.685  0.00  0.00    +0.000 A 
ATOM     11  C   UNL     1       5.179   6.008  17.804  0.00  0.00    +0.000 A 
ATOM     12  C   UNL     1       5.518   5.901  16.437  0.00  0.00    +0.000 A 
BRANCH   7  14
ATOM     13  N   UNL     1       6.097   3.991  13.880  0.00  0.00    +0.000 N 
ATOM     14  C   UNL     1       6.901   4.854  14.597  0.00  0.00    +0.000 C 
ATOM     15  O   UNL     1       7.869   5.443  14.100  0.00  0.00    +0.000 OA
ATOM     16  H   UNL     1       5.247   3.639  14.302  0.00  0.00    +0.000 HD
BRANCH  13  17
ATOM     17  C   UNL     1       6.324   3.711  12.469  0.00  0.00    +0.000 C 
BRANCH  17  19
ATOM     18  C   UNL     1       4.234   3.005  11.217  0.00  0.00    +0.000 C 
ATOM     19  C   UNL     1       5.489   2.525  11.951  0.00  0.00    +0.000 C 
ATOM     20  C   UNL     1       6.324   1.646  11.014  0.00  0.00    +0.000 C 
ENDBRANCH  17  19
ENDBRANCH  13  17
ENDBRANCH   7  14
ENDBRANCH   1  11
BRANCH   4  21
ATOM     21  C   UNL     1       0.462   9.168  19.359  0.00  0.00    +0.000 C 
BRANCH  21  22
ATOM     22  N   UNL     1       0.432  10.542  18.786  0.00  0.00    +0.000 NA
ATOM     23  C   UNL     1      -0.948  11.010  18.608  0.00  0.00    +0.000 C 
ATOM     24  C   UNL     1      -1.118  12.508  18.319  0.00  0.00    +0.000 C 
ATOM     25  C   UNL     1      -0.349  13.465  19.241  0.00  0.00    +0.000 C 
ATOM     26  C   UNL     1       1.096  12.943  19.343  0.00  0.00    +0.000 C 
ATOM     27  C   UNL     1       1.255  11.441  19.617  0.00  0.00    +0.000 C 
BRANCH  25  28
ATOM     28  N   UNL     1      -0.937  13.953  20.515  0.00  0.00    +0.000 NA
ATOM     29  C   UNL     1      -0.365  13.505  21.781  0.00  0.00    +0.000 C 
ATOM     30  C   UNL     1      -1.166  12.269  22.142  0.00  0.00    +0.000 C 
ATOM     31  C   UNL     1      -2.577  12.684  21.777  0.00  0.00    +0.000 C 
ATOM     32  C   UNL     1      -2.390  13.700  20.647  0.00  0.00    +0.000 C 
ENDBRANCH  25  28
ENDBRANCH  21  22
ENDBRANCH   4  21
TORSDOF 7
ENDMDL
MODEL 2
REMARK VINA RESULT:      -8.5      3.873     10.154
REMARK  Name = 
REMARK  9 active torsions:
REMARK  status: ('A' for Active; 'I' for Inactive)
REMARK    1  A    between atoms: C_1  and  C_2
REMARK    2  A    between atoms: C_2  and  C_3
REMARK    3  A    between atoms: C_2  and  C_4
REMARK    4  A    between atoms: C_4  and  N_5
REMARK    5  A    between atoms: C_6  and  C_8
REMARK    6  A    between atoms: C_12  and  C_13
REMARK    7  A    between atoms: C_16  and  C_17
REMARK    8  A    between atoms: C_17  and  N_18
REMARK    9  A    between atoms: C_21  and  N_22
REMARK                            x       y       z     vdW  Elec       q    Type
REMARK                         _______ _______ _______ _____ _____    ______ ____
ROOT
ATOM      1  C   UNL     1       1.834   8.788  18.552  0.00  0.00    +0.000 A 
ATOM      2  C   UNL     1       2.018   7.804  19.538  0.00  0.00    +0.000 A 
ATOM      3  C   UNL     1       2.994   6.782  19.408  0.00  0.00    +0.000 A 
ATOM      4  C   UNL     1       3.790   6.694  18.258  0.00  0.00    +0.000 A 
ATOM      5  C   UNL     1       3.632   7.685  17.286  0.00  0.00    +0.000 A 
ATOM      6  C   UNL     1       2.693   8.707  17.444  0.00  0.00    +0.000 A 
ENDROOT
BRANCH   1  11
ATOM      7  C   UNL     1      -1.414  10.742  18.157  0.00  0.00    +0.000 A 
ATOM      8  C   UNL     1      -0.960  11.994  18.535  0.00  0.00    +0.000 A 
ATOM      9  N   UNL     1       0.290  12.238  18.991  0.00  0.00    +0.000 NA
ATOM     10  C   UNL     1       1.147  11.185  19.013  0.00  0.00    +0.000 A 
ATOM     11  C   UNL     1       0.828   9.880  18.625  0.00  0.00    +0.000 A 
ATOM     12  C   UNL     1      -0.511   9.677  18.220  0.00  0.00    +0.000 A 
BRANCH   7  14
ATOM     13  N   UNL     1      -3.453  11.753  17.258  0.00  0.00    +0.000 N 
ATOM     14  C   UNL     1      -2.791  10.604  17.643  0.00  0.00    +0.000 C 
ATOM     15  O   UNL     1      -3.297   9.477  17.567  0.00  0.00    +0.000 OA
ATOM     16  H   UNL     1      -2.946  12.628  17.222  0.00  0.00    +0.000 HD
BRANCH  13  17
ATOM     17  C   UNL     1      -4.806  11.726  16.722  0.00  0.00    +0.000 C 
BRANCH  17  19
ATOM     18  C   UNL     1      -6.753  13.319  17.045  0.00  0.00    +0.000 C 
ATOM     19  C   UNL     1      -5.854  12.273  17.709  0.00  0.00    +0.000 C 
ATOM     20  C   UNL     1      -6.717  11.136  18.265  0.00  0.00    +0.000 C 
ENDBRANCH  17  19
ENDBRANCH  13  17
ENDBRANCH   7  14
ENDBRANCH   1  11
BRANCH   4  21
ATOM     21  C   UNL     1       4.861   5.630  18.056  0.00  0.00    +0.000 C 
BRANCH  21  22
ATOM     22  N   UNL     1       4.380   4.239  17.831  0.00  0.00    +0.000 NA
ATOM     23  C   UNL     1       4.677   3.384  18.987  0.00  0.00    +0.000 C 
ATOM     24  C   UNL     1       3.971   2.021  19.014  0.00  0.00    +0.000 C 
ATOM     25  C   UNL     1       2.459   2.038  18.743  0.00  0.00    +0.000 C 
ATOM     26  C   UNL     1       2.227   2.909  17.495  0.00  0.00    +0.000 C 
ATOM     27  C   UNL     1       2.950   4.263  17.470  0.00  0.00    +0.000 C 
BRANCH  25  28
ATOM     28  N   UNL     1       1.477   2.231  19.841  0.00  0.00    +0.000 NA
ATOM     29  C   UNL     1       0.713   3.472  19.903  0.00  0.00    +0.000 C 
ATOM     30  C   UNL     1       1.543   4.384  20.785  0.00  0.00    +0.000 C 
ATOM     31  C   UNL     1       2.003   3.441  21.878  0.00  0.00    +0.000 C 
ATOM     32  C   UNL     1       2.048   2.071  21.198  0.00  0.00    +0.000 C 
ENDBRANCH  25  28
ENDBRANCH  21  22
ENDBRANCH   4  21
TORSDOF 7
ENDMDL
MODEL 3
REMARK VINA RESULT:      -8.2      1.121      1.856
REMARK  Name = 
REMARK  9 active torsions:
REMARK  status: ('A' for Active; 'I' for Inactive)
REMARK    1  A    between atoms: C_1  and  C_2
REMARK    2  A    between atoms: C_2  and  C_3
REMARK    3  A    between atoms: C_2  and  C_4
REMARK    4  A    between atoms: C_4  and  N_5
REMARK    5  A    between atoms: C_6  and  C_8
REMARK    6  A    between atoms: C_12  and  C_13
REMARK    7  A    between atoms: C_16  and  C_17
REMARK    8  A    between atoms: C_17  and  N_18
REMARK    9  A    between atoms: C_21  and  N_22
REMARK                            x       y       z     vdW  Elec       q    Type
REMARK                         _______ _______ _______ _____ _____    ______ ____
ROOT
ATOM      1  C   UNL     1       3.983   6.771  18.113  0.00  0.00    +0.000 A 
ATOM      2  C   UNL     1       3.214   6.529  19.265  0.00  0.00    +0.000 A 
ATOM      3  C   UNL     1       2.108   7.344  19.617  0.00  0.00    +0.000 A 
ATOM      4  C   UNL     1       1.765   8.459  18.840  0.00  0.00    +0.000 A 
ATOM      5  C   UNL     1       2.507   8.691  17.679  0.00  0.00    +0.000 A 
ATOM      6  C   UNL     1       3.570   7.857  17.325  0.00  0.00    +0.000 A 
ENDROOT
BRANCH   1  11
ATOM      7  C   UNL     1       6.612   5.078  15.935  0.00  0.00    +0.000 A 
ATOM      8  C   UNL     1       7.179   4.248  16.887  0.00  0.00    +0.000 A 
ATOM      9  N   UNL     1       6.838   4.257  18.197  0.00  0.00    +0.000 NA
ATOM     10  C   UNL     1       5.835   5.098  18.559  0.00  0.00    +0.000 A 
ATOM     11  C   UNL     1       5.154   5.959  17.693  0.00  0.00    +0.000 A 
ATOM     12  C   UNL     1       5.601   5.950  16.352  0.00  0.00    +0.000 A 
BRANCH   7  14
ATOM     13  N   UNL     1       6.394   4.030  13.735  0.00  0.00    +0.000 N 
ATOM     14  C   UNL     1       7.043   4.954  14.529  0.00  0.00    +0.000 C 
ATOM     15  O   UNL     1       7.953   5.681  14.111  0.00  0.00    +0.000 OA
ATOM     16  H   UNL     1       5.575   3.557  14.094  0.00  0.00    +0.000 HD
BRANCH  13  17
ATOM     17  C   UNL     1       6.730   3.842  12.331  0.00  0.00    +0.000 C 
BRANCH  17  19
ATOM     18  C   UNL     1       5.890   1.604  11.483  0.00  0.00    +0.000 C 
ATOM     19  C   UNL     1       5.627   3.111  11.543  0.00  0.00    +0.000 C 
ATOM     20  C   UNL     1       4.254   3.366  12.174  0.00  0.00    +0.000 C 
ENDBRANCH  17  19
ENDBRANCH  13  17
ENDBRANCH   7  14
ENDBRANCH   1  11
BRANCH   4  21
ATOM     21  C   UNL     1       0.587   9.373  19.153  0.00  0.00    +0.000 C 
BRANCH  21  22
ATOM     22  N   UNL     1       0.707  10.215  20.375  0.00  0.00    +0.000 NA
ATOM     23  C   UNL     1       0.525  11.636  20.057  0.00  0.00    +0.000 C 
ATOM     24  C   UNL     1       0.321  12.573  21.256  0.00  0.00    +0.000 C 
ATOM     25  C   UNL     1      -0.719  12.125  22.293  0.00  0.00    +0.000 C 
ATOM     26  C   UNL     1      -0.440  10.646  22.614  0.00  0.00    +0.000 C 
ATOM     27  C   UNL     1      -0.221   9.721  21.409  0.00  0.00    +0.000 C 
BRANCH  25  28
ATOM     28  N   UNL     1      -2.155  12.482  22.154  0.00  0.00    +0.000 NA
ATOM     29  C   UNL     1      -2.522  13.867  21.877  0.00  0.00    +0.000 C 
ATOM     30  C   UNL     1      -2.729  14.485  23.245  0.00  0.00    +0.000 C 
ATOM     31  C   UNL     1      -3.467  13.388  23.984  0.00  0.00    +0.000 C 
ATOM     32  C   UNL     1      -2.989  12.097  23.315  0.00  0.00    +0.000 C 
ENDBRANCH  25  28
ENDBRANCH  21  22
ENDBRANCH   4  21
TORSDOF 7
ENDMDL
MODEL 4
REMARK VINA RESULT:      -8.1      3.822     10.248
REMARK  Name = 
REMARK  9 active torsions:
REMARK  status: ('A' for Active; 'I' for Inactive)
REMARK    1  A    between atoms: C_1  and  C_2
REMARK    2  A    between atoms: C_2  and  C_3
REMARK    3  A    between atoms: C_2  and  C_4
REMARK    4  A    between atoms: C_4  and  N_5
REMARK    5  A    between atoms: C_6  and  C_8
REMARK    6  A    between atoms: C_12  and  C_13
REMARK    7  A    between atoms: C_16  and  C_17
REMARK    8  A    between atoms: C_17  and  N_18
REMARK    9  A    between atoms: C_21  and  N_22
REMARK                            x       y       z     vdW  Elec       q    Type
REMARK                         _______ _______ _______ _____ _____    ______ ____
ROOT
ATOM      1  C   UNL     1       1.668   8.734  18.723  0.00  0.00    +0.000 A 
ATOM      2  C   UNL     1       2.452   8.663  17.558  0.00  0.00    +0.000 A 
ATOM      3  C   UNL     1       3.477   7.697  17.398  0.00  0.00    +0.000 A 
ATOM      4  C   UNL     1       3.776   6.793  18.427  0.00  0.00    +0.000 A 
ATOM      5  C   UNL     1       2.984   6.839  19.577  0.00  0.00    +0.000 A 
ATOM      6  C   UNL     1       1.952   7.772  19.705  0.00  0.00    +0.000 A 
ENDROOT
BRANCH   1  11
ATOM      7  C   UNL     1      -1.595  10.670  18.365  0.00  0.00    +0.000 A 
ATOM      8  C   UNL     1      -1.317  11.722  19.221  0.00  0.00    +0.000 A 
ATOM      9  N   UNL     1      -0.193  11.809  19.971  0.00  0.00    +0.000 NA
ATOM     10  C   UNL     1       0.724  10.821  19.810  0.00  0.00    +0.000 A 
ATOM     11  C   UNL     1       0.584   9.724  18.954  0.00  0.00    +0.000 A 
ATOM     12  C   UNL     1      -0.638   9.658  18.248  0.00  0.00    +0.000 A 
BRANCH   7  14
ATOM     13  N   UNL     1      -3.707  11.755  17.778  0.00  0.00    +0.000 N 
ATOM     14  C   UNL     1      -2.840  10.702  17.573  0.00  0.00    +0.000 C 
ATOM     15  O   UNL     1      -3.056   9.800  16.754  0.00  0.00    +0.000 OA
ATOM     16  H   UNL     1      -3.418  12.528  18.364  0.00  0.00    +0.000 HD
BRANCH  13  17
ATOM     17  C   UNL     1      -4.953  11.890  17.036  0.00  0.00    +0.000 C 
BRANCH  17  19
ATOM     18  C   UNL     1      -6.862  10.908  18.387  0.00  0.00    +0.000 C 
ATOM     19  C   UNL     1      -6.161  12.194  17.942  0.00  0.00    +0.000 C 
ATOM     20  C   UNL     1      -5.723  12.991  19.176  0.00  0.00    +0.000 C 
ENDBRANCH  17  19
ENDBRANCH  13  17
ENDBRANCH   7  14
ENDBRANCH   1  11
BRANCH   4  21
ATOM     21  C   UNL     1       4.857   5.725  18.321  0.00  0.00    +0.000 C 
BRANCH  21  22
ATOM     22  N   UNL     1       4.403   4.357  17.949  0.00  0.00    +0.000 NA
ATOM     23  C   UNL     1       4.690   3.395  19.021  0.00  0.00    +0.000 C 
ATOM     24  C   UNL     1       4.006   2.027  18.897  0.00  0.00    +0.000 C 
ATOM     25  C   UNL     1       2.500   2.050  18.595  0.00  0.00    +0.000 C 
ATOM     26  C   UNL     1       2.280   3.037  17.435  0.00  0.00    +0.000 C 
ATOM     27  C   UNL     1       2.981   4.396  17.560  0.00  0.00    +0.000 C 
BRANCH  25  28
ATOM     28  N   UNL     1       1.492   2.118  19.684  0.00  0.00    +0.000 NA
ATOM     29  C   UNL     1       0.544   3.227  19.708  0.00  0.00    +0.000 C 
ATOM     30  C   UNL     1       1.216   4.282  20.565  0.00  0.00    +0.000 C 
ATOM     31  C   UNL     1       1.809   3.453  21.686  0.00  0.00    +0.000 C 
ATOM     32  C   UNL     1       2.071   2.087  21.047  0.00  0.00    +0.000 C 
ENDBRANCH  25  28
ENDBRANCH  21  22
ENDBRANCH   4  21
TORSDOF 7
ENDMDL
MODEL 5
REMARK VINA RESULT:      -8.1      1.975      2.951
REMARK  Name = 
REMARK  9 active torsions:
REMARK  status: ('A' for Active; 'I' for Inactive)
REMARK    1  A    between atoms: C_1  and  C_2
REMARK    2  A    between atoms: C_2  and  C_3
REMARK    3  A    between atoms: C_2  and  C_4
REMARK    4  A    between atoms: C_4  and  N_5
REMARK    5  A    between atoms: C_6  and  C_8
REMARK    6  A    between atoms: C_12  and  C_13
REMARK    7  A    between atoms: C_16  and  C_17
REMARK    8  A    between atoms: C_17  and  N_18
REMARK    9  A    between atoms: C_21  and  N_22
REMARK                            x       y       z     vdW  Elec       q    Type
REMARK                         _______ _______ _______ _____ _____    ______ ____
ROOT
ATOM      1  C   UNL     1       2.172   7.749  18.820  0.00  0.00    +0.000 A 
ATOM      2  C   UNL     1       1.741   7.964  20.140  0.00  0.00    +0.000 A 
ATOM      3  C   UNL     1       1.126   9.177  20.543  0.00  0.00    +0.000 A 
ATOM      4  C   UNL     1       0.962  10.232  19.635  0.00  0.00    +0.000 A 
ATOM      5  C   UNL     1       1.362  10.015  18.314  0.00  0.00    +0.000 A 
ATOM      6  C   UNL     1       1.932   8.802  17.923  0.00  0.00    +0.000 A 
ENDROOT
BRANCH   1  11
ATOM      7  C   UNL     1       4.489   5.382  16.934  0.00  0.00    +0.000 A 
ATOM      8  C   UNL     1       3.875   4.182  17.248  0.00  0.00    +0.000 A 
ATOM      9  N   UNL     1       2.823   4.071  18.093  0.00  0.00    +0.000 NA
ATOM     10  C   UNL     1       2.324   5.227  18.601  0.00  0.00    +0.000 A 
ATOM     11  C   UNL     1       2.827   6.505  18.336  0.00  0.00    +0.000 A 
ATOM     12  C   UNL     1       3.965   6.549  17.500  0.00  0.00    +0.000 A 
BRANCH   7  14
ATOM     13  N   UNL     1       5.581   4.458  14.950  0.00  0.00    +0.000 N 
ATOM     14  C   UNL     1       5.610   5.383  15.974  0.00  0.00    +0.000 C 
ATOM     15  O   UNL     1       6.522   6.209  16.111  0.00  0.00    +0.000 OA
ATOM     16  H   UNL     1       4.751   3.896  14.812  0.00  0.00    +0.000 HD
BRANCH  13  17
ATOM     17  C   UNL     1       6.627   4.387  13.939  0.00  0.00    +0.000 C 
BRANCH  17  19
ATOM     18  C   UNL     1       4.788   3.633  12.363  0.00  0.00    +0.000 C 
ATOM     19  C   UNL     1       6.258   3.470  12.758  0.00  0.00    +0.000 C 
ATOM     20  C   UNL     1       7.148   3.767  11.546  0.00  0.00    +0.000 C 
ENDBRANCH  17  19
ENDBRANCH  13  17
ENDBRANCH   7  14
ENDBRANCH   1  11
BRANCH   4  21
ATOM     21  C   UNL     1       0.303  11.557  19.996  0.00  0.00    +0.000 C 
BRANCH  21  22
ATOM     22  N   UNL     1      -0.977  11.478  20.751  0.00  0.00    +0.000 NA
ATOM     23  C   UNL     1      -0.766  11.747  22.179  0.00  0.00    +0.000 C 
ATOM     24  C   UNL     1      -2.032  11.998  23.010  0.00  0.00    +0.000 C 
ATOM     25  C   UNL     1      -3.036  13.001  22.425  0.00  0.00    +0.000 C 
ATOM     26  C   UNL     1      -3.245  12.631  20.945  0.00  0.00    +0.000 C 
ATOM     27  C   UNL     1      -1.975  12.367  20.127  0.00  0.00    +0.000 C 
BRANCH  25  28
ATOM     28  N   UNL     1      -2.929  14.457  22.704  0.00  0.00    +0.000 NA
ATOM     29  C   UNL     1      -1.705  14.979  23.303  0.00  0.00    +0.000 C 
ATOM     30  C   UNL     1      -1.966  14.938  24.796  0.00  0.00    +0.000 C 
ATOM     31  C   UNL     1      -3.402  15.416  24.883  0.00  0.00    +0.000 C 
ATOM     32  C   UNL     1      -4.021  14.993  23.549  0.00  0.00    +0.000 C 
ENDBRANCH  25  28
ENDBRANCH  21  22
ENDBRANCH   4  21
TORSDOF 7
ENDMDL
MODEL 6
REMARK VINA RESULT:      -8.0      1.636      2.271
REMARK  Name = 
REMARK  9 active torsions:
REMARK  status: ('A' for Active; 'I' for Inactive)
REMARK    1  A    between atoms: C_1  and  C_2
REMARK    2  A    between atoms: C_2  and  C_3
REMARK    3  A    between atoms: C_2  and  C_4
REMARK    4  A    between atoms: C_4  and  N_5
REMARK    5  A    between atoms: C_6  and  C_8
REMARK    6  A    between atoms: C_12  and  C_13
REMARK    7  A    between atoms: C_16  and  C_17
REMARK    8  A    between atoms: C_17  and  N_18
REMARK    9  A    between atoms: C_21  and  N_22
REMARK                            x       y       z     vdW  Elec       q    Type
REMARK                         _______ _______ _______ _____ _____    ______ ____
ROOT
ATOM      1  C   UNL     1       3.044   6.911  18.218  0.00  0.00    +0.000 A 
ATOM      2  C   UNL     1       2.817   8.071  17.458  0.00  0.00    +0.000 A 
ATOM      3  C   UNL     1       2.059   9.161  17.956  0.00  0.00    +0.000 A 
ATOM      4  C   UNL     1       1.469   9.101  19.226  0.00  0.00    +0.000 A 
ATOM      5  C   UNL     1       1.713   7.963  19.999  0.00  0.00    +0.000 A 
ATOM      6  C   UNL     1       2.493   6.913  19.509  0.00  0.00    +0.000 A 
ENDROOT
BRANCH   1  11
ATOM      7  C   UNL     1       5.296   4.670  16.111  0.00  0.00    +0.000 A 
ATOM      8  C   UNL     1       5.068   3.467  16.757  0.00  0.00    +0.000 A 
ATOM      9  N   UNL     1       4.313   3.340  17.873  0.00  0.00    +0.000 NA
ATOM     10  C   UNL     1       3.707   4.466  18.330  0.00  0.00    +0.000 A 
ATOM     11  C   UNL     1       3.824   5.734  17.752  0.00  0.00    +0.000 A 
ATOM     12  C   UNL     1       4.677   5.813  16.629  0.00  0.00    +0.000 A 
BRANCH   7  14
ATOM     13  N   UNL     1       5.860   3.709  13.934  0.00  0.00    +0.000 N 
ATOM     14  C   UNL     1       6.112   4.680  14.882  0.00  0.00    +0.000 C 
ATOM     15  O   UNL     1       6.977   5.554  14.738  0.00  0.00    +0.000 OA
ATOM     16  H   UNL     1       5.058   3.102  14.047  0.00  0.00    +0.000 HD
BRANCH  13  17
ATOM     17  C   UNL     1       6.595   3.640  12.679  0.00  0.00    +0.000 C 
BRANCH  17  19
ATOM     18  C   UNL     1       5.952   1.509  11.463  0.00  0.00    +0.000 C 
ATOM     19  C   UNL     1       5.770   3.027  11.533  0.00  0.00    +0.000 C 
ATOM     20  C   UNL     1       4.283   3.356  11.704  0.00  0.00    +0.000 C 
ENDBRANCH  17  19
ENDBRANCH  13  17
ENDBRANCH   7  14
ENDBRANCH   1  11
BRANCH   4  21
ATOM     21  C   UNL     1       0.650  10.236  19.828  0.00  0.00    +0.000 C 
BRANCH  21  22
ATOM     22  N   UNL     1       0.815  11.577  19.202  0.00  0.00    +0.000 NA
ATOM     23  C   UNL     1      -0.475  12.114  18.754  0.00  0.00    +0.000 C 
ATOM     24  C   UNL     1      -0.489  13.601  18.375  0.00  0.00    +0.000 C 
ATOM     25  C   UNL     1       0.162  14.561  19.382  0.00  0.00    +0.000 C 
ATOM     26  C   UNL     1       1.526  13.961  19.771  0.00  0.00    +0.000 C 
ATOM     27  C   UNL     1       1.532  12.470  20.132  0.00  0.00    +0.000 C 
BRANCH  25  28
ATOM     28  N   UNL     1      -0.614  15.148  20.505  0.00  0.00    +0.000 NA
ATOM     29  C   UNL     1      -1.554  16.230  20.232  0.00  0.00    +0.000 C 
ATOM     30  C   UNL     1      -0.742  17.496  20.423  0.00  0.00    +0.000 C 
ATOM     31  C   UNL     1       0.072  17.171  21.659  0.00  0.00    +0.000 C 
ATOM     32  C   UNL     1       0.222  15.648  21.621  0.00  0.00    +0.000 C 
ENDBRANCH  25  28
ENDBRANCH  21  22
ENDBRANCH   4  21
TORSDOF 7
ENDMDL
MODEL 7
REMARK VINA RESULT:      -7.9      1.487      2.444
REMARK  Name = 
REMARK  9 active torsions:
REMARK  status: ('A' for Active; 'I' for Inactive)
REMARK    1  A    between atoms: C_1  and  C_2
REMARK    2  A    between atoms: C_2  and  C_3
REMARK    3  A    between atoms: C_2  and  C_4
REMARK    4  A    between atoms: C_4  and  N_5
REMARK    5  A    between atoms: C_6  and  C_8
REMARK    6  A    between atoms: C_12  and  C_13
REMARK    7  A    between atoms: C_16  and  C_17
REMARK    8  A    between atoms: C_17  and  N_18
REMARK    9  A    between atoms: C_21  and  N_22
REMARK                            x       y       z     vdW  Elec       q    Type
REMARK                         _______ _______ _______ _____ _____    ______ ____
ROOT
ATOM      1  C   UNL     1       2.733   7.251  18.368  0.00  0.00    +0.000 A 
ATOM      2  C   UNL     1       2.101   7.419  19.612  0.00  0.00    +0.000 A 
ATOM      3  C   UNL     1       1.419   8.614  19.954  0.00  0.00    +0.000 A 
ATOM      4  C   UNL     1       1.386   9.699  19.067  0.00  0.00    +0.000 A 
ATOM      5  C   UNL     1       1.988   9.529  17.817  0.00  0.00    +0.000 A 
ATOM      6  C   UNL     1       2.624   8.332  17.480  0.00  0.00    +0.000 A 
ENDROOT
BRANCH   1  11
ATOM      7  C   UNL     1       5.083   4.909  16.492  0.00  0.00    +0.000 A 
ATOM      8  C   UNL     1       4.646   3.703  17.012  0.00  0.00    +0.000 A 
ATOM      9  N   UNL     1       3.712   3.594  17.986  0.00  0.00    +0.000 NA
ATOM     10  C   UNL     1       3.145   4.749  18.417  0.00  0.00    +0.000 A 
ATOM     11  C   UNL     1       3.467   6.027  17.951  0.00  0.00    +0.000 A 
ATOM     12  C   UNL     1       4.495   6.079  16.982  0.00  0.00    +0.000 A 
BRANCH   7  14
ATOM     13  N   UNL     1       5.827   4.119  14.300  0.00  0.00    +0.000 N 
ATOM     14  C   UNL     1       6.084   4.901  15.408  0.00  0.00    +0.000 C 
ATOM     15  O   UNL     1       7.103   5.594  15.522  0.00  0.00    +0.000 OA
ATOM     16  H   UNL     1       4.922   3.677  14.204  0.00  0.00    +0.000 HD
BRANCH  13  17
ATOM     17  C   UNL     1       6.740   4.054  13.167  0.00  0.00    +0.000 C 
BRANCH  17  19
ATOM     18  C   UNL     1       6.555   2.019  11.666  0.00  0.00    +0.000 C 
ATOM     19  C   UNL     1       6.090   3.457  11.905  0.00  0.00    +0.000 C 
ATOM     20  C   UNL     1       4.563   3.488  12.020  0.00  0.00    +0.000 C 
ENDBRANCH  17  19
ENDBRANCH  13  17
ENDBRANCH   7  14
ENDBRANCH   1  11
BRANCH   4  21
ATOM     21  C   UNL     1       0.666  11.008  19.364  0.00  0.00    +0.000 C 
BRANCH  21  22
ATOM     22  N   UNL     1      -0.438  10.946  20.361  0.00  0.00    +0.000 NA
ATOM     23  C   UNL     1       0.038  11.315  21.700  0.00  0.00    +0.000 C 
ATOM     24  C   UNL     1      -1.050  11.587  22.748  0.00  0.00    +0.000 C 
ATOM     25  C   UNL     1      -2.186  12.524  22.314  0.00  0.00    +0.000 C 
ATOM     26  C   UNL     1      -2.667  12.051  20.930  0.00  0.00    +0.000 C 
ATOM     27  C   UNL     1      -1.571  11.766  19.894  0.00  0.00    +0.000 C 
BRANCH  25  28
ATOM     28  N   UNL     1      -2.083  13.997  22.479  0.00  0.00    +0.000 NA
ATOM     29  C   UNL     1      -1.914  14.835  21.297  0.00  0.00    +0.000 C 
ATOM     30  C   UNL     1      -0.413  14.970  21.138  0.00  0.00    +0.000 C 
ATOM     31  C   UNL     1       0.044  15.163  22.570  0.00  0.00    +0.000 C 
ATOM     32  C   UNL     1      -1.009  14.428  23.403  0.00  0.00    +0.000 C 
ENDBRANCH  25  28
ENDBRANCH  21  22
ENDBRANCH   4  21
TORSDOF 7
ENDMDL
MODEL 8
REMARK VINA RESULT:      -7.9      3.881      6.028
REMARK  Name = 
REMARK  9 active torsions:
REMARK  status: ('A' for Active; 'I' for Inactive)
REMARK    1  A    between atoms: C_1  and  C_2
REMARK    2  A    between atoms: C_2  and  C_3
REMARK    3  A    between atoms: C_2  and  C_4
REMARK    4  A    between atoms: C_4  and  N_5
REMARK    5  A    between atoms: C_6  and  C_8
REMARK    6  A    between atoms: C_12  and  C_13
REMARK    7  A    between atoms: C_16  and  C_17
REMARK    8  A    between atoms: C_17  and  N_18
REMARK    9  A    between atoms: C_21  and  N_22
REMARK                            x       y       z     vdW  Elec       q    Type
REMARK                         _______ _______ _______ _____ _____    ______ ____
ROOT
ATOM      1  C   UNL     1       0.590   9.564  20.577  0.00  0.00    +0.000 A 
ATOM      2  C   UNL     1       0.055   9.055  21.772  0.00  0.00    +0.000 A 
ATOM      3  C   UNL     1      -0.709   9.859  22.657  0.00  0.00    +0.000 A 
ATOM      4  C   UNL     1      -0.924  11.217  22.386  0.00  0.00    +0.000 A 
ATOM      5  C   UNL     1      -0.419  11.724  21.186  0.00  0.00    +0.000 A 
ATOM      6  C   UNL     1       0.299  10.911  20.306  0.00  0.00    +0.000 A 
ENDROOT
BRANCH   1  11
ATOM      7  C   UNL     1       2.784   6.828  19.086  0.00  0.00    +0.000 A 
ATOM      8  C   UNL     1       3.116   7.444  17.892  0.00  0.00    +0.000 A 
ATOM      9  N   UNL     1       2.616   8.636  17.492  0.00  0.00    +0.000 NA
ATOM     10  C   UNL     1       1.787   9.271  18.361  0.00  0.00    +0.000 A 
ATOM     11  C   UNL     1       1.401   8.778  19.611  0.00  0.00    +0.000 A 
ATOM     12  C   UNL     1       1.906   7.500  19.942  0.00  0.00    +0.000 A 
BRANCH   7  14
ATOM     13  N   UNL     1       2.600   4.502  19.820  0.00  0.00    +0.000 N 
ATOM     14  C   UNL     1       3.420   5.541  19.429  0.00  0.00    +0.000 C 
ATOM     15  O   UNL     1       4.650   5.434  19.345  0.00  0.00    +0.000 OA
ATOM     16  H   UNL     1       1.596   4.607  19.747  0.00  0.00    +0.000 HD
BRANCH  13  17
ATOM     17  C   UNL     1       3.123   3.187  20.162  0.00  0.00    +0.000 C 
BRANCH  17  19
ATOM     18  C   UNL     1       1.083   2.387  18.886  0.00  0.00    +0.000 C 
ATOM     19  C   UNL     1       2.517   2.059  19.307  0.00  0.00    +0.000 C 
ATOM     20  C   UNL     1       3.371   1.809  18.060  0.00  0.00    +0.000 C 
ENDBRANCH  17  19
ENDBRANCH  13  17
ENDBRANCH   7  14
ENDBRANCH   1  11
BRANCH   4  21
ATOM     21  C   UNL     1      -1.740  12.136  23.286  0.00  0.00    +0.000 C 
BRANCH  21  22
ATOM     22  N   UNL     1      -3.221  12.045  23.160  0.00  0.00    +0.000 NA
ATOM     23  C   UNL     1      -3.888  12.659  24.314  0.00  0.00    +0.000 C 
ATOM     24  C   UNL     1      -5.396  12.905  24.165  0.00  0.00    +0.000 C 
ATOM     25  C   UNL     1      -5.843  13.594  22.867  0.00  0.00    +0.000 C 
ATOM     26  C   UNL     1      -5.145  12.871  21.701  0.00  0.00    +0.000 C 
ATOM     27  C   UNL     1      -3.641  12.615  21.866  0.00  0.00    +0.000 C 
BRANCH  25  28
ATOM     28  N   UNL     1      -5.895  15.074  22.753  0.00  0.00    +0.000 NA
ATOM     29  C   UNL     1      -4.812  15.775  22.073  0.00  0.00    +0.000 C 
ATOM     30  C   UNL     1      -3.830  16.117  23.177  0.00  0.00    +0.000 C 
ATOM     31  C   UNL     1      -4.749  16.553  24.299  0.00  0.00    +0.000 C 
ATOM     32  C   UNL     1      -6.043  15.776  24.049  0.00  0.00    +0.000 C 
ENDBRANCH  25  28
ENDBRANCH  21  22
ENDBRANCH   4  21
TORSDOF 7
ENDMDL
MODEL 9
REMARK VINA RESULT:      -7.9      1.536      1.861
REMARK  Name = 
REMARK  9 active torsions:
REMARK  status: ('A' for Active; 'I' for Inactive)
REMARK    1  A    between atoms: C_1  and  C_2
REMARK    2  A    between atoms: C_2  and  C_3
REMARK    3  A    between atoms: C_2  and  C_4
REMARK    4  A    between atoms: C_4  and  N_5
REMARK    5  A    between atoms: C_6  and  C_8
REMARK    6  A    between atoms: C_12  and  C_13
REMARK    7  A    between atoms: C_16  and  C_17
REMARK    8  A    between atoms: C_17  and  N_18
REMARK    9  A    between atoms: C_21  and  N_22
REMARK                            x       y       z     vdW  Elec       q    Type
REMARK                         _______ _______ _______ _____ _____    ______ ____
ROOT
ATOM      1  C   UNL     1       2.726   6.674  18.667  0.00  0.00    +0.000 A 
ATOM      2  C   UNL     1       2.273   6.782  19.993  0.00  0.00    +0.000 A 
ATOM      3  C   UNL     1       1.624   7.948  20.474  0.00  0.00    +0.000 A 
ATOM      4  C   UNL     1       1.448   9.063  19.644  0.00  0.00    +0.000 A 
ATOM      5  C   UNL     1       1.871   8.954  18.316  0.00  0.00    +0.000 A 
ATOM      6  C   UNL     1       2.474   7.785  17.846  0.00  0.00    +0.000 A 
ENDROOT
BRANCH   1  11
ATOM      7  C   UNL     1       5.040   4.499  16.560  0.00  0.00    +0.000 A 
ATOM      8  C   UNL     1       4.518   3.257  16.878  0.00  0.00    +0.000 A 
ATOM      9  N   UNL     1       3.535   3.062  17.787  0.00  0.00    +0.000 NA
ATOM     10  C   UNL     1       3.007   4.173  18.362  0.00  0.00    +0.000 A 
ATOM     11  C   UNL     1       3.416   5.484  18.103  0.00  0.00    +0.000 A 
ATOM     12  C   UNL     1       4.490   5.617  17.194  0.00  0.00    +0.000 A 
BRANCH   7  14
ATOM     13  N   UNL     1       5.820   4.056  14.284  0.00  0.00    +0.000 N 
ATOM     14  C   UNL     1       6.091   4.591  15.527  0.00  0.00    +0.000 C 
ATOM     15  O   UNL     1       7.161   5.147  15.803  0.00  0.00    +0.000 OA
ATOM     16  H   UNL     1       4.884   3.731  14.077  0.00  0.00    +0.000 HD
BRANCH  13  17
ATOM     17  C   UNL     1       6.779   4.110  13.190  0.00  0.00    +0.000 C 
BRANCH  17  19
ATOM     18  C   UNL     1       6.873   2.200  11.524  0.00  0.00    +0.000 C 
ATOM     19  C   UNL     1       6.221   3.540  11.873  0.00  0.00    +0.000 C 
ATOM     20  C   UNL     1       4.702   3.361  11.964  0.00  0.00    +0.000 C 
ENDBRANCH  17  19
ENDBRANCH  13  17
ENDBRANCH   7  14
ENDBRANCH   1  11
BRANCH   4  21
ATOM     21  C   UNL     1       0.754  10.343  20.091  0.00  0.00    +0.000 C 
BRANCH  21  22
ATOM     22  N   UNL     1       0.808  11.493  19.146  0.00  0.00    +0.000 NA
ATOM     23  C   UNL     1      -0.508  12.128  19.010  0.00  0.00    +0.000 C 
ATOM     24  C   UNL     1      -0.526  13.495  18.313  0.00  0.00    +0.000 C 
ATOM     25  C   UNL     1       0.507  14.519  18.809  0.00  0.00    +0.000 C 
ATOM     26  C   UNL     1       1.866  13.800  18.881  0.00  0.00    +0.000 C 
ATOM     27  C   UNL     1       1.870  12.426  19.565  0.00  0.00    +0.000 C 
BRANCH  25  28
ATOM     28  N   UNL     1       0.212  15.430  19.944  0.00  0.00    +0.000 NA
ATOM     29  C   UNL     1       0.843  15.186  21.237  0.00  0.00    +0.000 C 
ATOM     30  C   UNL     1      -0.141  14.303  21.979  0.00  0.00    +0.000 C 
ATOM     31  C   UNL     1      -1.470  14.936  21.623  0.00  0.00    +0.000 C 
ATOM     32  C   UNL     1      -1.231  15.568  20.250  0.00  0.00    +0.000 C 
ENDBRANCH  25  28
ENDBRANCH  21  22
ENDBRANCH   4  21
TORSDOF 7
ENDMDL
