MODEL 1
REMARK VINA RESULT:      -7.4      0.000      0.000
REMARK  Name = 
REMARK  8 active torsions:
REMARK  status: ('A' for Active; 'I' for Inactive)
REMARK    1  A    between atoms: C_1  and  C_2
REMARK    2  A    between atoms: C_2  and  C_3
REMARK    3  A    between atoms: N_6  and  C_7
REMARK    4  A    between atoms: C_8  and  C_9
REMARK    5  A    between atoms: C_9  and  C_10
REMARK    6  A    between atoms: N_15  and  O_16
REMARK    7  A    between atoms: O_16  and  C_17
REMARK    8  A    between atoms: N_19  and  C_20
REMARK                            x       y       z     vdW  Elec       q    Type
REMARK                         _______ _______ _______ _____ _____    ______ ____
ROOT
ATOM      1  C   UNL     1       4.234   5.428  17.482  0.00  0.00    +0.000 A 
ATOM      2  C   UNL     1       3.284   5.359  18.543  0.00  0.00    +0.000 A 
ATOM      3  C   UNL     1       3.013   4.022  18.771  0.00  0.00    +0.000 A 
ATOM      4  N   UNL     1       3.812   3.274  17.940  0.00  0.00    +0.000 N 
ATOM      5  C   UNL     1       3.814   1.830  17.831  0.00  0.00    +0.000 C 
ATOM      6  C   UNL     1       4.592   4.119  17.170  0.00  0.00    +0.000 A 
ATOM      7  C   UNL     1       2.003   3.499  19.741  0.00  0.00    +0.000 C 
ATOM      8  C   UNL     1       1.058   4.631  20.196  0.00  0.00    +0.000 C 
ATOM      9  C   UNL     1       1.793   5.946  20.506  0.00  0.00    +0.000 C 
ATOM     10  C   UNL     1       2.586   6.400  19.293  0.00  0.00    +0.000 C 
ATOM     11  N   UNL     1       2.729   7.610  18.857  0.00  0.00    +0.000 NA
ENDROOT
BRANCH   1  13
ATOM     12  C   UNL     1       6.141   7.018  17.234  0.00  0.00    +0.000 C 
ATOM     13  C   UNL     1       4.721   6.671  16.799  0.00  0.00    +0.000 C 
ENDBRANCH   1  13
BRANCH   6  14
ATOM     14  C   UNL     1       5.586   3.633  16.154  0.00  0.00    +0.000 C 
ATOM     15  C   UNL     1       5.337   4.228  14.775  0.00  0.00    +0.000 C 
ENDBRANCH   6  14
BRANCH  11  16
ATOM     16  O   UNL     1       2.040   8.602  19.572  0.00  0.00    +0.000 OA
BRANCH  16  17
ATOM     17  C   UNL     1       1.244   9.278  18.662  0.00  0.00    +0.000 C 
ATOM     18  O   UNL     1       1.664   9.716  17.598  0.00  0.00    +0.000 OA
ATOM     19  N   UNL     1      -0.034   9.421  19.160  0.00  0.00    +0.000 N 
ATOM     20  H   UNL     1      -0.143   9.139  20.123  0.00  0.00    +0.000 HD
BRANCH  19  21
ATOM     21  C   UNL     1      -1.091  10.125  18.545  0.00  0.00    +0.000 A 
ATOM     22  C   UNL     1      -1.624   9.772  17.301  0.00  0.00    +0.000 A 
ATOM     23  C   UNL     1      -2.652  10.522  16.723  0.00  0.00    +0.000 A 
ATOM     24  C   UNL     1      -3.159  11.635  17.384  0.00  0.00    +0.000 A 
ATOM     25  C   UNL     1      -2.648  11.989  18.631  0.00  0.00    +0.000 A 
ATOM     26  C   UNL     1      -1.626  11.233  19.214  0.00  0.00    +0.000 A 
ENDBRANCH  19  21
ENDBRANCH  16  17
ENDBRANCH  11  16
TORSDOF 5
ENDMDL
MODEL 2
REMARK VINA RESULT:      -7.3      3.821      7.402
REMARK  Name = 
REMARK  8 active torsions:
REMARK  status: ('A' for Active; 'I' for Inactive)
REMARK    1  A    between atoms: C_1  and  C_2
REMARK    2  A    between atoms: C_2  and  C_3
REMARK    3  A    between atoms: N_6  and  C_7
REMARK    4  A    between atoms: C_8  and  C_9
REMARK    5  A    between atoms: C_9  and  C_10
REMARK    6  A    between atoms: N_15  and  O_16
REMARK    7  A    between atoms: O_16  and  C_17
REMARK    8  A    between atoms: N_19  and  C_20
REMARK                            x       y       z     vdW  Elec       q    Type
REMARK                         _______ _______ _______ _____ _____    ______ ____
ROOT
ATOM      1  C   UNL     1       3.668   5.676  18.290  0.00  0.00    +0.000 A 
ATOM      2  C   UNL     1       4.633   5.321  17.302  0.00  0.00    +0.000 A 
ATOM      3  C   UNL     1       4.420   3.994  16.973  0.00  0.00    +0.000 A 
ATOM      4  N   UNL     1       3.322   3.550  17.668  0.00  0.00    +0.000 N 
ATOM      5  C   UNL     1       2.782   2.206  17.643  0.00  0.00    +0.000 C 
ATOM      6  C   UNL     1       2.827   4.578  18.451  0.00  0.00    +0.000 A 
ATOM      7  C   UNL     1       5.267   3.190  16.038  0.00  0.00    +0.000 C 
ATOM      8  C   UNL     1       6.600   3.915  15.763  0.00  0.00    +0.000 C 
ATOM      9  C   UNL     1       6.432   5.424  15.521  0.00  0.00    +0.000 C 
ATOM     10  C   UNL     1       5.736   6.070  16.707  0.00  0.00    +0.000 C 
ATOM     11  N   UNL     1       5.999   7.219  17.241  0.00  0.00    +0.000 NA
ENDROOT
BRANCH   1  13
ATOM     12  C   UNL     1       2.580   7.917  18.422  0.00  0.00    +0.000 C 
ATOM     13  C   UNL     1       3.598   6.970  19.046  0.00  0.00    +0.000 C 
ENDBRANCH   1  13
BRANCH   6  14
ATOM     14  C   UNL     1       1.623   4.438  19.340  0.00  0.00    +0.000 C 
ATOM     15  C   UNL     1       2.007   4.176  20.790  0.00  0.00    +0.000 C 
ENDBRANCH   6  14
BRANCH  11  16
ATOM     16  O   UNL     1       7.073   7.923  16.675  0.00  0.00    +0.000 OA
BRANCH  16  17
ATOM     17  C   UNL     1       7.920   8.274  17.713  0.00  0.00    +0.000 C 
ATOM     18  O   UNL     1       8.212   7.513  18.628  0.00  0.00    +0.000 OA
ATOM     19  N   UNL     1       8.317   9.588  17.582  0.00  0.00    +0.000 N 
ATOM     20  H   UNL     1       7.840  10.100  16.854  0.00  0.00    +0.000 HD
BRANCH  19  21
ATOM     21  C   UNL     1       9.115  10.309  18.496  0.00  0.00    +0.000 A 
ATOM     22  C   UNL     1      10.253  11.027  18.116  0.00  0.00    +0.000 A 
ATOM     23  C   UNL     1      11.026  11.701  19.066  0.00  0.00    +0.000 A 
ATOM     24  C   UNL     1      10.666  11.664  20.409  0.00  0.00    +0.000 A 
ATOM     25  C   UNL     1       9.526  10.966  20.799  0.00  0.00    +0.000 A 
ATOM     26  C   UNL     1       8.748  10.299  19.847  0.00  0.00    +0.000 A 
ENDBRANCH  19  21
ENDBRANCH  16  17
ENDBRANCH  11  16
TORSDOF 5
ENDMDL
MODEL 3
REMARK VINA RESULT:      -7.3      1.468      1.763
REMARK  Name = 
REMARK  8 active torsions:
REMARK  status: ('A' for Active; 'I' for Inactive)
REMARK    1  A    between atoms: C_1  and  C_2
REMARK    2  A    between atoms: C_2  and  C_3
REMARK    3  A    between atoms: N_6  and  C_7
REMARK    4  A    between atoms: C_8  and  C_9
REMARK    5  A    between atoms: C_9  and  C_10
REMARK    6  A    between atoms: N_15  and  O_16
REMARK    7  A    between atoms: O_16  and  C_17
REMARK    8  A    between atoms: N_19  and  C_20
REMARK                            x       y       z     vdW  Elec       q    Type
REMARK                         _______ _______ _______ _____ _____    ______ ____
ROOT
ATOM      1  C   UNL     1       4.137   5.249  17.648  0.00  0.00    +0.000 A 
ATOM      2  C   UNL     1       3.186   5.039  18.690  0.00  0.00    +0.000 A 
ATOM      3  C   UNL     1       2.992   3.674  18.805  0.00  0.00    +0.000 A 
ATOM      4  N   UNL     1       3.837   3.044  17.923  0.00  0.00    +0.000 N 
ATOM      5  C   UNL     1       3.923   1.616  17.696  0.00  0.00    +0.000 C 
ATOM      6  C   UNL     1       4.572   3.993  17.234  0.00  0.00    +0.000 A 
ATOM      7  C   UNL     1       2.007   3.016  19.717  0.00  0.00    +0.000 C 
ATOM      8  C   UNL     1       0.996   4.051  20.254  0.00  0.00    +0.000 C 
ATOM      9  C   UNL     1       1.652   5.376  20.678  0.00  0.00    +0.000 C 
ATOM     10  C   UNL     1       2.425   5.973  19.515  0.00  0.00    +0.000 C 
ATOM     11  N   UNL     1       2.501   7.221  19.181  0.00  0.00    +0.000 NA
ENDROOT
BRANCH   1  13
ATOM     12  C   UNL     1       6.003   6.891  17.432  0.00  0.00    +0.000 C 
ATOM     13  C   UNL     1       4.557   6.570  17.074  0.00  0.00    +0.000 C 
ENDBRANCH   1  13
BRANCH   6  14
ATOM     14  C   UNL     1       5.599   3.649  16.192  0.00  0.00    +0.000 C 
ATOM     15  C   UNL     1       5.255   4.238  14.831  0.00  0.00    +0.000 C 
ENDBRANCH   6  14
BRANCH  11  16
ATOM     16  O   UNL     1       1.751   8.109  19.967  0.00  0.00    +0.000 OA
BRANCH  16  17
ATOM     17  C   UNL     1       1.465   9.209  19.175  0.00  0.00    +0.000 C 
ATOM     18  O   UNL     1       1.730   9.263  17.981  0.00  0.00    +0.000 OA
ATOM     19  N   UNL     1       0.909  10.214  19.938  0.00  0.00    +0.000 N 
ATOM     20  H   UNL     1       0.922  10.043  20.933  0.00  0.00    +0.000 HD
BRANCH  19  21
ATOM     21  C   UNL     1       0.565  11.506  19.486  0.00  0.00    +0.000 A 
ATOM     22  C   UNL     1      -0.581  11.773  18.731  0.00  0.00    +0.000 A 
ATOM     23  C   UNL     1      -0.860  13.066  18.283  0.00  0.00    +0.000 A 
ATOM     24  C   UNL     1       0.007  14.111  18.586  0.00  0.00    +0.000 A 
ATOM     25  C   UNL     1       1.144  13.863  19.352  0.00  0.00    +0.000 A 
ATOM     26  C   UNL     1       1.418  12.569  19.808  0.00  0.00    +0.000 A 
ENDBRANCH  19  21
ENDBRANCH  16  17
ENDBRANCH  11  16
TORSDOF 5
ENDMDL
MODEL 4
REMARK VINA RESULT:      -7.3      0.573      1.175
REMARK  Name = 
REMARK  8 active torsions:
REMARK  status: ('A' for Active; 'I' for Inactive)
REMARK    1  A    between atoms: C_1  and  C_2
REMARK    2  A    between atoms: C_2  and  C_3
REMARK    3  A    between atoms: N_6  and  C_7
REMARK    4  A    between atoms: C_8  and  C_9
REMARK    5  A    between atoms: C_9  and  C_10
REMARK    6  A    between atoms: N_15  and  O_16
REMARK    7  A    between atoms: O_16  and  C_17
REMARK    8  A    between atoms: N_19  and  C_20
REMARK                            x       y       z     vdW  Elec       q    Type
REMARK                         _______ _______ _______ _____ _____    ______ ____
ROOT
ATOM      1  C   UNL     1       3.989   5.495  17.480  0.00  0.00    +0.000 A 
ATOM      2  C   UNL     1       3.144   5.334  18.618  0.00  0.00    +0.000 A 
ATOM      3  C   UNL     1       2.926   3.979  18.784  0.00  0.00    +0.000 A 
ATOM      4  N   UNL     1       3.659   3.306  17.837  0.00  0.00    +0.000 N 
ATOM      5  C   UNL     1       3.683   1.872  17.635  0.00  0.00    +0.000 C 
ATOM      6  C   UNL     1       4.345   4.218  17.054  0.00  0.00    +0.000 A 
ATOM      7  C   UNL     1       2.022   3.369  19.807  0.00  0.00    +0.000 C 
ATOM      8  C   UNL     1       1.099   4.443  20.419  0.00  0.00    +0.000 C 
ATOM      9  C   UNL     1       1.831   5.757  20.743  0.00  0.00    +0.000 C 
ATOM     10  C   UNL     1       2.497   6.307  19.494  0.00  0.00    +0.000 C 
ATOM     11  N   UNL     1       2.571   7.545  19.125  0.00  0.00    +0.000 NA
ENDROOT
BRANCH   1  13
ATOM     12  C   UNL     1       5.781   7.218  17.268  0.00  0.00    +0.000 C 
ATOM     13  C   UNL     1       4.383   6.791  16.836  0.00  0.00    +0.000 C 
ENDBRANCH   1  13
BRANCH   6  14
ATOM     14  C   UNL     1       5.250   3.824  15.921  0.00  0.00    +0.000 C 
ATOM     15  C   UNL     1       6.715   4.091  16.236  0.00  0.00    +0.000 C 
ENDBRANCH   6  14
BRANCH  11  16
ATOM     16  O   UNL     1       1.930   8.471  19.962  0.00  0.00    +0.000 OA
BRANCH  16  17
ATOM     17  C   UNL     1       1.114   9.249  19.157  0.00  0.00    +0.000 C 
ATOM     18  O   UNL     1       1.439   9.627  18.038  0.00  0.00    +0.000 OA
ATOM     19  N   UNL     1      -0.053   9.562  19.821  0.00  0.00    +0.000 N 
ATOM     20  H   UNL     1      -0.066   9.296  20.795  0.00  0.00    +0.000 HD
BRANCH  19  21
ATOM     21  C   UNL     1      -1.081  10.401  19.343  0.00  0.00    +0.000 A 
ATOM     22  C   UNL     1      -1.471  11.578  19.989  0.00  0.00    +0.000 A 
ATOM     23  C   UNL     1      -2.516  12.359  19.489  0.00  0.00    +0.000 A 
ATOM     24  C   UNL     1      -3.186  11.969  18.334  0.00  0.00    +0.000 A 
ATOM     25  C   UNL     1      -2.798  10.807  17.671  0.00  0.00    +0.000 A 
ATOM     26  C   UNL     1      -1.745  10.031  18.167  0.00  0.00    +0.000 A 
ENDBRANCH  19  21
ENDBRANCH  16  17
ENDBRANCH  11  16
TORSDOF 5
ENDMDL
MODEL 5
REMARK VINA RESULT:      -7.2      2.617      7.769
REMARK  Name = 
REMARK  8 active torsions:
REMARK  status: ('A' for Active; 'I' for Inactive)
REMARK    1  A    between atoms: C_1  and  C_2
REMARK    2  A    between atoms: C_2  and  C_3
REMARK    3  A    between atoms: N_6  and  C_7
REMARK    4  A    between atoms: C_8  and  C_9
REMARK    5  A    between atoms: C_9  and  C_10
REMARK    6  A    between atoms: N_15  and  O_16
REMARK    7  A    between atoms: O_16  and  C_17
REMARK    8  A    between atoms: N_19  and  C_20
REMARK                            x       y       z     vdW  Elec       q    Type
REMARK                         _______ _______ _______ _____ _____    ______ ____
ROOT
ATOM      1  C   UNL     1       1.099  10.748  19.418  0.00  0.00    +0.000 A 
ATOM      2  C   UNL     1       0.500  10.200  20.590  0.00  0.00    +0.000 A 
ATOM      3  C   UNL     1      -0.138  11.233  21.252  0.00  0.00    +0.000 A 
ATOM      4  N   UNL     1      -0.009  12.372  20.495  0.00  0.00    +0.000 N 
ATOM      5  C   UNL     1      -0.499  13.690  20.846  0.00  0.00    +0.000 C 
ATOM      6  C   UNL     1       0.713  12.084  19.351  0.00  0.00    +0.000 A 
ATOM      7  C   UNL     1      -0.821  11.118  22.578  0.00  0.00    +0.000 C 
ATOM      8  C   UNL     1      -0.425   9.799  23.274  0.00  0.00    +0.000 C 
ATOM      9  C   UNL     1      -0.413   8.591  22.322  0.00  0.00    +0.000 C 
ATOM     10  C   UNL     1       0.524   8.853  21.156  0.00  0.00    +0.000 C 
ATOM     11  N   UNL     1       1.331   8.013  20.593  0.00  0.00    +0.000 NA
ENDROOT
BRANCH   1  13
ATOM     12  C   UNL     1       1.224   9.107  17.543  0.00  0.00    +0.000 C 
ATOM     13  C   UNL     1       2.010  10.035  18.463  0.00  0.00    +0.000 C 
ENDBRANCH   1  13
BRANCH   6  14
ATOM     14  C   UNL     1       1.036  13.104  18.295  0.00  0.00    +0.000 C 
ATOM     15  C   UNL     1       2.440  13.669  18.452  0.00  0.00    +0.000 C 
ENDBRANCH   6  14
BRANCH  11  16
ATOM     16  O   UNL     1       1.362   6.727  21.155  0.00  0.00    +0.000 OA
BRANCH  16  17
ATOM     17  C   UNL     1       1.977   5.896  20.233  0.00  0.00    +0.000 C 
ATOM     18  O   UNL     1       1.559   4.780  19.951  0.00  0.00    +0.000 OA
ATOM     19  N   UNL     1       3.124   6.488  19.748  0.00  0.00    +0.000 N 
ATOM     20  H   UNL     1       3.391   7.339  20.223  0.00  0.00    +0.000 HD
BRANCH  19  21
ATOM     21  C   UNL     1       4.047   5.904  18.854  0.00  0.00    +0.000 A 
ATOM     22  C   UNL     1       5.136   5.135  19.274  0.00  0.00    +0.000 A 
ATOM     23  C   UNL     1       6.038   4.603  18.348  0.00  0.00    +0.000 A 
ATOM     24  C   UNL     1       5.859   4.836  16.989  0.00  0.00    +0.000 A 
ATOM     25  C   UNL     1       4.769   5.587  16.555  0.00  0.00    +0.000 A 
ATOM     26  C   UNL     1       3.861   6.111  17.482  0.00  0.00    +0.000 A 
ENDBRANCH  19  21
ENDBRANCH  16  17
ENDBRANCH  11  16
TORSDOF 5
ENDMDL
MODEL 6
REMARK VINA RESULT:      -7.2      2.870      8.092
REMARK  Name = 
REMARK  8 active torsions:
REMARK  status: ('A' for Active; 'I' for Inactive)
REMARK    1  A    between atoms: C_1  and  C_2
REMARK    2  A    between atoms: C_2  and  C_3
REMARK    3  A    between atoms: N_6  and  C_7
REMARK    4  A    between atoms: C_8  and  C_9
REMARK    5  A    between atoms: C_9  and  C_10
REMARK    6  A    between atoms: N_15  and  O_16
REMARK    7  A    between atoms: O_16  and  C_17
REMARK    8  A    between atoms: N_19  and  C_20
REMARK                            x       y       z     vdW  Elec       q    Type
REMARK                         _______ _______ _______ _____ _____    ______ ____
ROOT
ATOM      1  C   UNL     1       0.837  11.053  19.475  0.00  0.00    +0.000 A 
ATOM      2  C   UNL     1       0.299  10.454  20.652  0.00  0.00    +0.000 A 
ATOM      3  C   UNL     1      -0.373  11.442  21.349  0.00  0.00    +0.000 A 
ATOM      4  N   UNL     1      -0.324  12.599  20.610  0.00  0.00    +0.000 N 
ATOM      5  C   UNL     1      -0.871  13.883  20.997  0.00  0.00    +0.000 C 
ATOM      6  C   UNL     1       0.381  12.368  19.442  0.00  0.00    +0.000 A 
ATOM      7  C   UNL     1      -1.014  11.269  22.689  0.00  0.00    +0.000 C 
ATOM      8  C   UNL     1      -0.532   9.961  23.351  0.00  0.00    +0.000 C 
ATOM      9  C   UNL     1      -0.484   8.771  22.377  0.00  0.00    +0.000 C 
ATOM     10  C   UNL     1       0.407   9.101  21.192  0.00  0.00    +0.000 C 
ATOM     11  N   UNL     1       1.240   8.314  20.593  0.00  0.00    +0.000 NA
ENDROOT
BRANCH   1  13
ATOM     12  C   UNL     1       1.014   9.383  17.629  0.00  0.00    +0.000 C 
ATOM     13  C   UNL     1       1.757  10.404  18.483  0.00  0.00    +0.000 C 
ENDBRANCH   1  13
BRANCH   6  14
ATOM     14  C   UNL     1       0.622  13.421  18.397  0.00  0.00    +0.000 C 
ATOM     15  C   UNL     1       1.979  14.091  18.559  0.00  0.00    +0.000 C 
ENDBRANCH   6  14
BRANCH  11  16
ATOM     16  O   UNL     1       1.353   7.022  21.130  0.00  0.00    +0.000 OA
BRANCH  16  17
ATOM     17  C   UNL     1       2.082   6.268  20.225  0.00  0.00    +0.000 C 
ATOM     18  O   UNL     1       2.751   6.762  19.325  0.00  0.00    +0.000 OA
ATOM     19  N   UNL     1       1.890   4.923  20.460  0.00  0.00    +0.000 N 
ATOM     20  H   UNL     1       1.174   4.714  21.141  0.00  0.00    +0.000 HD
BRANCH  19  21
ATOM     21  C   UNL     1       2.410   3.863  19.688  0.00  0.00    +0.000 A 
ATOM     22  C   UNL     1       3.470   3.056  20.111  0.00  0.00    +0.000 A 
ATOM     23  C   UNL     1       3.966   2.037  19.294  0.00  0.00    +0.000 A 
ATOM     24  C   UNL     1       3.406   1.813  18.041  0.00  0.00    +0.000 A 
ATOM     25  C   UNL     1       2.339   2.600  17.612  0.00  0.00    +0.000 A 
ATOM     26  C   UNL     1       1.836   3.614  18.435  0.00  0.00    +0.000 A 
ENDBRANCH  19  21
ENDBRANCH  16  17
ENDBRANCH  11  16
TORSDOF 5
ENDMDL
MODEL 7
REMARK VINA RESULT:      -7.0      1.708      3.779
REMARK  Name = 
REMARK  8 active torsions:
REMARK  status: ('A' for Active; 'I' for Inactive)
REMARK    1  A    between atoms: C_1  and  C_2
REMARK    2  A    between atoms: C_2  and  C_3
REMARK    3  A    between atoms: N_6  and  C_7
REMARK    4  A    between atoms: C_8  and  C_9
REMARK    5  A    between atoms: C_9  and  C_10
REMARK    6  A    between atoms: N_15  and  O_16
REMARK    7  A    between atoms: O_16  and  C_17
REMARK    8  A    between atoms: N_19  and  C_20
REMARK                            x       y       z     vdW  Elec       q    Type
REMARK                         _______ _______ _______ _____ _____    ______ ____
ROOT
ATOM      1  C   UNL     1       2.309   5.678  19.914  0.00  0.00    +0.000 A 
ATOM      2  C   UNL     1       3.147   6.031  18.815  0.00  0.00    +0.000 A 
ATOM      3  C   UNL     1       4.127   5.060  18.712  0.00  0.00    +0.000 A 
ATOM      4  N   UNL     1       3.878   4.096  19.659  0.00  0.00    +0.000 N 
ATOM      5  C   UNL     1       4.688   2.923  19.917  0.00  0.00    +0.000 C 
ATOM      6  C   UNL     1       2.747   4.440  20.378  0.00  0.00    +0.000 A 
ATOM      7  C   UNL     1       5.270   5.085  17.748  0.00  0.00    +0.000 C 
ATOM      8  C   UNL     1       5.419   6.490  17.127  0.00  0.00    +0.000 C 
ATOM      9  C   UNL     1       4.075   7.119  16.723  0.00  0.00    +0.000 C 
ATOM     10  C   UNL     1       3.147   7.188  17.924  0.00  0.00    +0.000 C 
ATOM     11  N   UNL     1       2.342   8.150  18.239  0.00  0.00    +0.000 NA
ENDROOT
BRANCH   1  13
ATOM     12  C   UNL     1       1.741   7.622  21.370  0.00  0.00    +0.000 C 
ATOM     13  C   UNL     1       1.197   6.503  20.489  0.00  0.00    +0.000 C 
ENDBRANCH   1  13
BRANCH   6  14
ATOM     14  C   UNL     1       2.186   3.602  21.492  0.00  0.00    +0.000 C 
ATOM     15  C   UNL     1       0.989   2.775  21.043  0.00  0.00    +0.000 C 
ENDBRANCH   6  14
BRANCH  11  16
ATOM     16  O   UNL     1       2.362   9.267  17.389  0.00  0.00    +0.000 OA
BRANCH  16  17
ATOM     17  C   UNL     1       1.806  10.322  18.093  0.00  0.00    +0.000 C 
ATOM     18  O   UNL     1       2.302  11.442  18.125  0.00  0.00    +0.000 OA
ATOM     19  N   UNL     1       0.680   9.904  18.769  0.00  0.00    +0.000 N 
ATOM     20  H   UNL     1       0.525   8.907  18.751  0.00  0.00    +0.000 HD
BRANCH  19  21
ATOM     21  C   UNL     1      -0.098  10.686  19.650  0.00  0.00    +0.000 A 
ATOM     22  C   UNL     1       0.178  10.802  21.016  0.00  0.00    +0.000 A 
ATOM     23  C   UNL     1      -0.642  11.566  21.850  0.00  0.00    +0.000 A 
ATOM     24  C   UNL     1      -1.750  12.223  21.326  0.00  0.00    +0.000 A 
ATOM     25  C   UNL     1      -2.028  12.128  19.964  0.00  0.00    +0.000 A 
ATOM     26  C   UNL     1      -1.201  11.371  19.128  0.00  0.00    +0.000 A 
ENDBRANCH  19  21
ENDBRANCH  16  17
ENDBRANCH  11  16
TORSDOF 5
ENDMDL
MODEL 8
REMARK VINA RESULT:      -7.0      2.646      8.322
REMARK  Name = 
REMARK  8 active torsions:
REMARK  status: ('A' for Active; 'I' for Inactive)
REMARK    1  A    between atoms: C_1  and  C_2
REMARK    2  A    between atoms: C_2  and  C_3
REMARK    3  A    between atoms: N_6  and  C_7
REMARK    4  A    between atoms: C_8  and  C_9
REMARK    5  A    between atoms: C_9  and  C_10
REMARK    6  A    between atoms: N_15  and  O_16
REMARK    7  A    between atoms: O_16  and  C_17
REMARK    8  A    between atoms: N_19  and  C_20
REMARK                            x       y       z     vdW  Elec       q    Type
REMARK                         _______ _______ _______ _____ _____    ______ ____
ROOT
ATOM      1  C   UNL     1       0.069  12.021  19.766  0.00  0.00    +0.000 A 
ATOM      2  C   UNL     1      -0.102  11.002  20.749  0.00  0.00    +0.000 A 
ATOM      3  C   UNL     1      -0.808  11.557  21.801  0.00  0.00    +0.000 A 
ATOM      4  N   UNL     1      -1.133  12.849  21.467  0.00  0.00    +0.000 N 
ATOM      5  C   UNL     1      -1.838  13.796  22.306  0.00  0.00    +0.000 C 
ATOM      6  C   UNL     1      -0.635  13.137  20.208  0.00  0.00    +0.000 A 
ATOM      7  C   UNL     1      -1.130  10.862  23.086  0.00  0.00    +0.000 C 
ATOM      8  C   UNL     1      -0.280   9.583  23.234  0.00  0.00    +0.000 C 
ATOM      9  C   UNL     1      -0.186   8.765  21.935  0.00  0.00    +0.000 C 
ATOM     10  C   UNL     1       0.375   9.623  20.814  0.00  0.00    +0.000 C 
ATOM     11  N   UNL     1       1.216   9.267  19.899  0.00  0.00    +0.000 NA
ENDROOT
BRANCH   1  13
ATOM     12  C   UNL     1       2.267  12.549  18.709  0.00  0.00    +0.000 C 
ATOM     13  C   UNL     1       0.890  11.924  18.514  0.00  0.00    +0.000 C 
ENDBRANCH   1  13
BRANCH   6  14
ATOM     14  C   UNL     1      -0.814  14.466  19.530  0.00  0.00    +0.000 C 
ATOM     15  C   UNL     1       0.312  15.435  19.859  0.00  0.00    +0.000 C 
ENDBRANCH   6  14
BRANCH  11  16
ATOM     16  O   UNL     1       1.684   7.946  19.980  0.00  0.00    +0.000 OA
BRANCH  16  17
ATOM     17  C   UNL     1       2.221   7.629  18.743  0.00  0.00    +0.000 C 
ATOM     18  O   UNL     1       1.842   8.139  17.696  0.00  0.00    +0.000 OA
ATOM     19  N   UNL     1       3.174   6.641  18.876  0.00  0.00    +0.000 N 
ATOM     20  H   UNL     1       3.229   6.232  19.797  0.00  0.00    +0.000 HD
BRANCH  19  21
ATOM     21  C   UNL     1       3.873   6.014  17.822  0.00  0.00    +0.000 A 
ATOM     22  C   UNL     1       3.695   4.670  17.480  0.00  0.00    +0.000 A 
ATOM     23  C   UNL     1       4.435   4.090  16.447  0.00  0.00    +0.000 A 
ATOM     24  C   UNL     1       5.363   4.850  15.742  0.00  0.00    +0.000 A 
ATOM     25  C   UNL     1       5.539   6.194  16.062  0.00  0.00    +0.000 A 
ATOM     26  C   UNL     1       4.791   6.777  17.091  0.00  0.00    +0.000 A 
ENDBRANCH  19  21
ENDBRANCH  16  17
ENDBRANCH  11  16
TORSDOF 5
ENDMDL
MODEL 9
REMARK VINA RESULT:      -7.0      1.692      2.254
REMARK  Name = 
REMARK  8 active torsions:
REMARK  status: ('A' for Active; 'I' for Inactive)
REMARK    1  A    between atoms: C_1  and  C_2
REMARK    2  A    between atoms: C_2  and  C_3
REMARK    3  A    between atoms: N_6  and  C_7
REMARK    4  A    between atoms: C_8  and  C_9
REMARK    5  A    between atoms: C_9  and  C_10
REMARK    6  A    between atoms: N_15  and  O_16
REMARK    7  A    between atoms: O_16  and  C_17
REMARK    8  A    between atoms: N_19  and  C_20
REMARK                            x       y       z     vdW  Elec       q    Type
REMARK                         _______ _______ _______ _____ _____    ______ ____
ROOT
ATOM      1  C   UNL     1       3.660   6.295  17.997  0.00  0.00    +0.000 A 
ATOM      2  C   UNL     1       2.910   5.593  18.986  0.00  0.00    +0.000 A 
ATOM      3  C   UNL     1       2.957   4.249  18.666  0.00  0.00    +0.000 A 
ATOM      4  N   UNL     1       3.762   4.098  17.563  0.00  0.00    +0.000 N 
ATOM      5  C   UNL     1       4.047   2.855  16.877  0.00  0.00    +0.000 C 
ATOM      6  C   UNL     1       4.231   5.338  17.164  0.00  0.00    +0.000 A 
ATOM      7  C   UNL     1       2.229   3.162  19.390  0.00  0.00    +0.000 C 
ATOM      8  C   UNL     1       1.148   3.762  20.313  0.00  0.00    +0.000 C 
ATOM      9  C   UNL     1       1.633   4.997  21.092  0.00  0.00    +0.000 C 
ATOM     10  C   UNL     1       2.130   6.061  20.129  0.00  0.00    +0.000 C 
ATOM     11  N   UNL     1       1.955   7.340  20.215  0.00  0.00    +0.000 NA
ENDROOT
BRANCH   1  13
ATOM     12  C   UNL     1       2.484   8.387  17.313  0.00  0.00    +0.000 C 
ATOM     13  C   UNL     1       3.776   7.784  17.854  0.00  0.00    +0.000 C 
ENDBRANCH   1  13
BRANCH   6  14
ATOM     14  C   UNL     1       5.145   5.539  15.988  0.00  0.00    +0.000 C 
ATOM     15  C   UNL     1       6.607   5.622  16.404  0.00  0.00    +0.000 C 
ENDBRANCH   6  14
BRANCH  11  16
ATOM     16  O   UNL     1       1.188   7.780  21.305  0.00  0.00    +0.000 OA
BRANCH  16  17
ATOM     17  C   UNL     1       1.030   9.148  21.164  0.00  0.00    +0.000 C 
ATOM     18  O   UNL     1       1.162   9.938  22.090  0.00  0.00    +0.000 OA
ATOM     19  N   UNL     1       0.656   9.455  19.873  0.00  0.00    +0.000 N 
ATOM     20  H   UNL     1       0.437   8.654  19.298  0.00  0.00    +0.000 HD
BRANCH  19  21
ATOM     21  C   UNL     1       0.329  10.738  19.385  0.00  0.00    +0.000 A 
ATOM     22  C   UNL     1       1.290  11.705  19.073  0.00  0.00    +0.000 A 
ATOM     23  C   UNL     1       0.911  12.972  18.621  0.00  0.00    +0.000 A 
ATOM     24  C   UNL     1      -0.436  13.286  18.476  0.00  0.00    +0.000 A 
ATOM     25  C   UNL     1      -1.403  12.327  18.768  0.00  0.00    +0.000 A 
ATOM     26  C   UNL     1      -1.024  11.056  19.212  0.00  0.00    +0.000 A 
ENDBRANCH  19  21
ENDBRANCH  16  17
ENDBRANCH  11  16
TORSDOF 5
ENDMDL
