MODEL 1
REMARK VINA RESULT:      -7.0      0.000      0.000
REMARK  Name = 
REMARK  7 active torsions:
REMARK  status: ('A' for Active; 'I' for Inactive)
REMARK    1  A    between atoms: C_1  and  N_2
REMARK    2  A    between atoms: C_7  and  C_8
REMARK    3  A    between atoms: C_8  and  O_9
REMARK    4  A    between atoms: O_9  and  C_10
REMARK    5  A    between atoms: C_10  and  C_11
REMARK    6  A    between atoms: N_15  and  S_16
REMARK    7  A    between atoms: S_16  and  C_17
REMARK                            x       y       z     vdW  Elec       q    Type
REMARK                         _______ _______ _______ _____ _____    ______ ____
ROOT
ATOM      1  C   UNL     1       2.361   3.674  20.872  0.00  0.00    +0.000 C 
ATOM      2  N   UNL     1       2.925   3.400  19.571  0.00  0.00    +0.000 N 
ATOM      3  N   UNL     1       2.894   2.124  19.125  0.00  0.00    +0.000 NA
ATOM      4  C   UNL     1       3.578   2.159  17.981  0.00  0.00    +0.000 A 
ATOM      5  C   UNL     1       4.030   3.450  17.675  0.00  0.00    +0.000 A 
ATOM      6  C   UNL     1       3.554   4.248  18.697  0.00  0.00    +0.000 A 
ATOM      7  C   UNL     1       3.815   5.723  18.827  0.00  0.00    +0.000 C 
ATOM      8  C   UNL     1       4.669   6.227  17.617  0.00  0.00    +0.000 C 
ATOM      9  N   UNL     1       5.502   5.191  16.960  0.00  0.00    +0.000 NA
ATOM     10  C   UNL     1       4.864   3.928  16.550  0.00  0.00    +0.000 C 
ENDROOT
BRANCH   9  11
ATOM     11  S   UNL     1       7.133   5.428  16.716  0.00  0.00    +0.000 S 
ATOM     12  C   UNL     1       7.371   6.985  17.539  0.00  0.00    +0.000 C 
ATOM     13  O   UNL     1       7.872   4.419  17.439  0.00  0.00    +0.000 OA
ATOM     14  O   UNL     1       7.343   5.643  15.298  0.00  0.00    +0.000 OA
ENDBRANCH   9  11
BRANCH   7  15
ATOM     15  C   UNL     1       2.528   6.569  18.844  0.00  0.00    +0.000 C 
BRANCH  15  16
ATOM     16  O   UNL     1       2.185   6.969  20.167  0.00  0.00    +0.000 OA
BRANCH  16  17
ATOM     17  C   UNL     1       1.636   8.286  20.192  0.00  0.00    +0.000 C 
BRANCH  17  18
ATOM     18  C   UNL     1       0.651   8.368  21.315  0.00  0.00    +0.000 C 
ATOM     19  C   UNL     1       0.883   9.292  22.484  0.00  0.00    +0.000 C 
ATOM     20  C   UNL     1      -0.206   9.595  21.494  0.00  0.00    +0.000 C 
ENDBRANCH  17  18
ENDBRANCH  16  17
ENDBRANCH  15  16
ENDBRANCH   7  15
TORSDOF 5
ENDMDL
MODEL 2
REMARK VINA RESULT:      -6.9      1.494      1.789
REMARK  Name = 
REMARK  7 active torsions:
REMARK  status: ('A' for Active; 'I' for Inactive)
REMARK    1  A    between atoms: C_1  and  N_2
REMARK    2  A    between atoms: C_7  and  C_8
REMARK    3  A    between atoms: C_8  and  O_9
REMARK    4  A    between atoms: O_9  and  C_10
REMARK    5  A    between atoms: C_10  and  C_11
REMARK    6  A    between atoms: N_15  and  S_16
REMARK    7  A    between atoms: S_16  and  C_17
REMARK                            x       y       z     vdW  Elec       q    Type
REMARK                         _______ _______ _______ _____ _____    ______ ____
ROOT
ATOM      1  C   UNL     1       1.995   4.265  20.463  0.00  0.00    +0.000 C 
ATOM      2  N   UNL     1       2.665   3.884  19.243  0.00  0.00    +0.000 N 
ATOM      3  N   UNL     1       2.708   2.570  18.928  0.00  0.00    +0.000 NA
ATOM      4  C   UNL     1       3.477   2.516  17.840  0.00  0.00    +0.000 A 
ATOM      5  C   UNL     1       3.911   3.787  17.437  0.00  0.00    +0.000 A 
ATOM      6  C   UNL     1       3.333   4.664  18.335  0.00  0.00    +0.000 A 
ATOM      7  C   UNL     1       3.539   6.154  18.332  0.00  0.00    +0.000 C 
ATOM      8  C   UNL     1       4.468   6.566  17.143  0.00  0.00    +0.000 C 
ATOM      9  N   UNL     1       5.380   5.503  16.658  0.00  0.00    +0.000 NA
ATOM     10  C   UNL     1       4.814   4.181  16.335  0.00  0.00    +0.000 C 
ENDROOT
BRANCH   9  11
ATOM     11  S   UNL     1       7.017   5.776  16.512  0.00  0.00    +0.000 S 
ATOM     12  C   UNL     1       7.652   4.651  17.733  0.00  0.00    +0.000 C 
ATOM     13  O   UNL     1       7.459   5.326  15.213  0.00  0.00    +0.000 OA
ATOM     14  O   UNL     1       7.285   7.123  16.974  0.00  0.00    +0.000 OA
ENDBRANCH   9  11
BRANCH   7  15
ATOM     15  C   UNL     1       2.230   6.948  18.167  0.00  0.00    +0.000 C 
BRANCH  15  16
ATOM     16  O   UNL     1       2.333   8.247  18.742  0.00  0.00    +0.000 OA
BRANCH  16  17
ATOM     17  C   UNL     1       1.897   9.259  17.835  0.00  0.00    +0.000 C 
BRANCH  17  18
ATOM     18  C   UNL     1       1.089  10.263  18.596  0.00  0.00    +0.000 C 
ATOM     19  C   UNL     1      -0.414  10.293  18.484  0.00  0.00    +0.000 C 
ATOM     20  C   UNL     1       0.234   9.834  19.760  0.00  0.00    +0.000 C 
ENDBRANCH  17  18
ENDBRANCH  16  17
ENDBRANCH  15  16
ENDBRANCH   7  15
TORSDOF 5
ENDMDL
MODEL 3
REMARK VINA RESULT:      -6.9      1.090      1.273
REMARK  Name = 
REMARK  7 active torsions:
REMARK  status: ('A' for Active; 'I' for Inactive)
REMARK    1  A    between atoms: C_1  and  N_2
REMARK    2  A    between atoms: C_7  and  C_8
REMARK    3  A    between atoms: C_8  and  O_9
REMARK    4  A    between atoms: O_9  and  C_10
REMARK    5  A    between atoms: C_10  and  C_11
REMARK    6  A    between atoms: N_15  and  S_16
REMARK    7  A    between atoms: S_16  and  C_17
REMARK                            x       y       z     vdW  Elec       q    Type
REMARK                         _______ _______ _______ _____ _____    ______ ____
ROOT
ATOM      1  C   UNL     1       1.405   2.902  20.698  0.00  0.00    +0.000 C 
ATOM      2  N   UNL     1       2.324   2.916  19.585  0.00  0.00    +0.000 N 
ATOM      3  N   UNL     1       2.444   1.787  18.850  0.00  0.00    +0.000 NA
ATOM      4  C   UNL     1       3.428   2.056  17.992  0.00  0.00    +0.000 A 
ATOM      5  C   UNL     1       3.929   3.356  18.153  0.00  0.00    +0.000 A 
ATOM      6  C   UNL     1       3.166   3.911  19.162  0.00  0.00    +0.000 A 
ATOM      7  C   UNL     1       3.356   5.295  19.718  0.00  0.00    +0.000 C 
ATOM      8  C   UNL     1       4.515   6.024  18.963  0.00  0.00    +0.000 C 
ATOM      9  N   UNL     1       5.518   5.131  18.335  0.00  0.00    +0.000 NA
ATOM     10  C   UNL     1       5.045   4.040  17.465  0.00  0.00    +0.000 C 
ENDROOT
BRANCH   9  11
ATOM     11  S   UNL     1       7.146   5.326  18.630  0.00  0.00    +0.000 S 
ATOM     12  C   UNL     1       7.450   6.875  17.813  0.00  0.00    +0.000 C 
ATOM     13  O   UNL     1       7.352   5.516  20.046  0.00  0.00    +0.000 OA
ATOM     14  O   UNL     1       7.856   4.296  17.897  0.00  0.00    +0.000 OA
ENDBRANCH   9  11
BRANCH   7  15
ATOM     15  C   UNL     1       2.107   6.184  19.576  0.00  0.00    +0.000 C 
BRANCH  15  16
ATOM     16  O   UNL     1       1.756   6.791  20.816  0.00  0.00    +0.000 OA
BRANCH  16  17
ATOM     17  C   UNL     1       1.511   8.189  20.667  0.00  0.00    +0.000 C 
BRANCH  17  18
ATOM     18  C   UNL     1       0.273   8.539  21.431  0.00  0.00    +0.000 C 
ATOM     19  C   UNL     1       0.352   9.331  22.712  0.00  0.00    +0.000 C 
ATOM     20  C   UNL     1      -0.223   9.961  21.476  0.00  0.00    +0.000 C 
ENDBRANCH  17  18
ENDBRANCH  16  17
ENDBRANCH  15  16
ENDBRANCH   7  15
TORSDOF 5
ENDMDL
MODEL 4
REMARK VINA RESULT:      -6.9      1.454      1.725
REMARK  Name = 
REMARK  7 active torsions:
REMARK  status: ('A' for Active; 'I' for Inactive)
REMARK    1  A    between atoms: C_1  and  N_2
REMARK    2  A    between atoms: C_7  and  C_8
REMARK    3  A    between atoms: C_8  and  O_9
REMARK    4  A    between atoms: O_9  and  C_10
REMARK    5  A    between atoms: C_10  and  C_11
REMARK    6  A    between atoms: N_15  and  S_16
REMARK    7  A    between atoms: S_16  and  C_17
REMARK                            x       y       z     vdW  Elec       q    Type
REMARK                         _______ _______ _______ _____ _____    ______ ____
ROOT
ATOM      1  C   UNL     1       2.020   2.860  20.966  0.00  0.00    +0.000 C 
ATOM      2  N   UNL     1       2.687   2.830  19.686  0.00  0.00    +0.000 N 
ATOM      3  N   UNL     1       2.628   1.685  18.969  0.00  0.00    +0.000 NA
ATOM      4  C   UNL     1       3.417   1.913  17.919  0.00  0.00    +0.000 A 
ATOM      5  C   UNL     1       3.966   3.203  17.941  0.00  0.00    +0.000 A 
ATOM      6  C   UNL     1       3.441   3.796  19.073  0.00  0.00    +0.000 A 
ATOM      7  C   UNL     1       3.770   5.186  19.544  0.00  0.00    +0.000 C 
ATOM      8  C   UNL     1       4.760   5.872  18.546  0.00  0.00    +0.000 C 
ATOM      9  N   UNL     1       5.592   4.942  17.745  0.00  0.00    +0.000 NA
ATOM     10  C   UNL     1       4.927   3.847  17.019  0.00  0.00    +0.000 C 
ENDROOT
BRANCH   9  11
ATOM     11  S   UNL     1       7.250   5.104  17.690  0.00  0.00    +0.000 S 
ATOM     12  C   UNL     1       7.405   6.852  17.406  0.00  0.00    +0.000 C 
ATOM     13  O   UNL     1       7.799   4.808  18.993  0.00  0.00    +0.000 OA
ATOM     14  O   UNL     1       7.722   4.422  16.502  0.00  0.00    +0.000 OA
ENDBRANCH   9  11
BRANCH   7  15
ATOM     15  C   UNL     1       2.536   6.102  19.644  0.00  0.00    +0.000 C 
BRANCH  15  16
ATOM     16  O   UNL     1       2.665   7.242  18.800  0.00  0.00    +0.000 OA
BRANCH  16  17
ATOM     17  C   UNL     1       1.990   8.377  19.343  0.00  0.00    +0.000 C 
BRANCH  17  18
ATOM     18  C   UNL     1       1.604   9.284  18.217  0.00  0.00    +0.000 C 
ATOM     19  C   UNL     1       0.184   9.767  18.064  0.00  0.00    +0.000 C 
ATOM     20  C   UNL     1       1.262  10.728  18.480  0.00  0.00    +0.000 C 
ENDBRANCH  17  18
ENDBRANCH  16  17
ENDBRANCH  15  16
ENDBRANCH   7  15
TORSDOF 5
ENDMDL
MODEL 5
REMARK VINA RESULT:      -6.9      1.183      1.447
REMARK  Name = 
REMARK  7 active torsions:
REMARK  status: ('A' for Active; 'I' for Inactive)
REMARK    1  A    between atoms: C_1  and  N_2
REMARK    2  A    between atoms: C_7  and  C_8
REMARK    3  A    between atoms: C_8  and  O_9
REMARK    4  A    between atoms: O_9  and  C_10
REMARK    5  A    between atoms: C_10  and  C_11
REMARK    6  A    between atoms: N_15  and  S_16
REMARK    7  A    between atoms: S_16  and  C_17
REMARK                            x       y       z     vdW  Elec       q    Type
REMARK                         _______ _______ _______ _____ _____    ______ ____
ROOT
ATOM      1  C   UNL     1       1.999   2.871  21.284  0.00  0.00    +0.000 C 
ATOM      2  N   UNL     1       2.368   2.897  19.888  0.00  0.00    +0.000 N 
ATOM      3  N   UNL     1       2.108   1.798  19.144  0.00  0.00    +0.000 NA
ATOM      4  C   UNL     1       2.656   2.066  17.959  0.00  0.00    +0.000 A 
ATOM      5  C   UNL     1       3.248   3.336  17.925  0.00  0.00    +0.000 A 
ATOM      6  C   UNL     1       3.007   3.876  19.174  0.00  0.00    +0.000 A 
ATOM      7  C   UNL     1       3.487   5.226  19.631  0.00  0.00    +0.000 C 
ATOM      8  C   UNL     1       4.262   5.942  18.476  0.00  0.00    +0.000 C 
ATOM      9  N   UNL     1       4.860   5.038  17.465  0.00  0.00    +0.000 NA
ATOM     10  C   UNL     1       4.009   4.006  16.848  0.00  0.00    +0.000 C 
ENDROOT
BRANCH   9  11
ATOM     11  S   UNL     1       6.471   5.156  17.053  0.00  0.00    +0.000 S 
ATOM     12  C   UNL     1       6.549   4.022  15.687  0.00  0.00    +0.000 C 
ATOM     13  O   UNL     1       6.736   6.484  16.551  0.00  0.00    +0.000 OA
ATOM     14  O   UNL     1       7.248   4.592  18.138  0.00  0.00    +0.000 OA
ENDBRANCH   9  11
BRANCH   7  15
ATOM     15  C   UNL     1       2.343   6.169  20.048  0.00  0.00    +0.000 C 
BRANCH  15  16
ATOM     16  O   UNL     1       2.186   7.238  19.121  0.00  0.00    +0.000 OA
BRANCH  16  17
ATOM     17  C   UNL     1       1.754   8.435  19.766  0.00  0.00    +0.000 C 
BRANCH  17  18
ATOM     18  C   UNL     1       1.236   8.082  21.125  0.00  0.00    +0.000 C 
ATOM     19  C   UNL     1       1.093   9.133  22.197  0.00  0.00    +0.000 C 
ATOM     20  C   UNL     1      -0.133   8.536  21.565  0.00  0.00    +0.000 C 
ENDBRANCH  17  18
ENDBRANCH  16  17
ENDBRANCH  15  16
ENDBRANCH   7  15
TORSDOF 5
ENDMDL
MODEL 6
REMARK VINA RESULT:      -6.8      1.421      1.515
REMARK  Name = 
REMARK  7 active torsions:
REMARK  status: ('A' for Active; 'I' for Inactive)
REMARK    1  A    between atoms: C_1  and  N_2
REMARK    2  A    between atoms: C_7  and  C_8
REMARK    3  A    between atoms: C_8  and  O_9
REMARK    4  A    between atoms: O_9  and  C_10
REMARK    5  A    between atoms: C_10  and  C_11
REMARK    6  A    between atoms: N_15  and  S_16
REMARK    7  A    between atoms: S_16  and  C_17
REMARK                            x       y       z     vdW  Elec       q    Type
REMARK                         _______ _______ _______ _____ _____    ______ ____
ROOT
ATOM      1  C   UNL     1       2.021   4.706  20.617  0.00  0.00    +0.000 C 
ATOM      2  N   UNL     1       2.676   4.157  19.453  0.00  0.00    +0.000 N 
ATOM      3  N   UNL     1       2.641   2.816  19.282  0.00  0.00    +0.000 NA
ATOM      4  C   UNL     1       3.414   2.600  18.217  0.00  0.00    +0.000 A 
ATOM      5  C   UNL     1       3.928   3.792  17.687  0.00  0.00    +0.000 A 
ATOM      6  C   UNL     1       3.398   4.794  18.478  0.00  0.00    +0.000 A 
ATOM      7  C   UNL     1       3.694   6.260  18.318  0.00  0.00    +0.000 C 
ATOM      8  C   UNL     1       4.656   6.486  17.106  0.00  0.00    +0.000 C 
ATOM      9  N   UNL     1       5.505   5.324  16.750  0.00  0.00    +0.000 NA
ATOM     10  C   UNL     1       4.862   4.011  16.561  0.00  0.00    +0.000 C 
ENDROOT
BRANCH   9  11
ATOM     11  S   UNL     1       7.157   5.481  16.599  0.00  0.00    +0.000 S 
ATOM     12  C   UNL     1       7.424   7.019  17.449  0.00  0.00    +0.000 C 
ATOM     13  O   UNL     1       7.804   4.432  17.353  0.00  0.00    +0.000 OA
ATOM     14  O   UNL     1       7.456   5.695  15.198  0.00  0.00    +0.000 OA
ENDBRANCH   9  11
BRANCH   7  15
ATOM     15  C   UNL     1       2.437   7.108  18.051  0.00  0.00    +0.000 C 
BRANCH  15  16
ATOM     16  O   UNL     1       2.724   8.501  18.126  0.00  0.00    +0.000 OA
BRANCH  16  17
ATOM     17  C   UNL     1       1.576   9.292  17.819  0.00  0.00    +0.000 C 
BRANCH  17  18
ATOM     18  C   UNL     1       0.992   9.801  19.099  0.00  0.00    +0.000 C 
ATOM     19  C   UNL     1       0.616  11.252  19.255  0.00  0.00    +0.000 C 
ATOM     20  C   UNL     1      -0.458  10.205  19.173  0.00  0.00    +0.000 C 
ENDBRANCH  17  18
ENDBRANCH  16  17
ENDBRANCH  15  16
ENDBRANCH   7  15
TORSDOF 5
ENDMDL
MODEL 7
REMARK VINA RESULT:      -6.7      1.442      1.820
REMARK  Name = 
REMARK  7 active torsions:
REMARK  status: ('A' for Active; 'I' for Inactive)
REMARK    1  A    between atoms: C_1  and  N_2
REMARK    2  A    between atoms: C_7  and  C_8
REMARK    3  A    between atoms: C_8  and  O_9
REMARK    4  A    between atoms: O_9  and  C_10
REMARK    5  A    between atoms: C_10  and  C_11
REMARK    6  A    between atoms: N_15  and  S_16
REMARK    7  A    between atoms: S_16  and  C_17
REMARK                            x       y       z     vdW  Elec       q    Type
REMARK                         _______ _______ _______ _____ _____    ______ ____
ROOT
ATOM      1  C   UNL     1       1.982   3.861  20.849  0.00  0.00    +0.000 C 
ATOM      2  N   UNL     1       2.499   3.621  19.523  0.00  0.00    +0.000 N 
ATOM      3  N   UNL     1       2.276   2.409  18.966  0.00  0.00    +0.000 NA
ATOM      4  C   UNL     1       2.958   2.442  17.821  0.00  0.00    +0.000 A 
ATOM      5  C   UNL     1       3.600   3.673  17.624  0.00  0.00    +0.000 A 
ATOM      6  C   UNL     1       3.249   4.439  18.719  0.00  0.00    +0.000 A 
ATOM      7  C   UNL     1       3.731   5.840  18.975  0.00  0.00    +0.000 C 
ATOM      8  C   UNL     1       4.653   6.315  17.803  0.00  0.00    +0.000 C 
ATOM      9  N   UNL     1       5.319   5.228  17.046  0.00  0.00    +0.000 NA
ATOM     10  C   UNL     1       4.498   4.117  16.536  0.00  0.00    +0.000 C 
ENDROOT
BRANCH   9  11
ATOM     11  S   UNL     1       6.968   5.236  16.804  0.00  0.00    +0.000 S 
ATOM     12  C   UNL     1       7.075   4.432  15.222  0.00  0.00    +0.000 C 
ATOM     13  O   UNL     1       7.417   6.599  16.646  0.00  0.00    +0.000 OA
ATOM     14  O   UNL     1       7.565   4.355  17.786  0.00  0.00    +0.000 OA
ENDBRANCH   9  11
BRANCH   7  15
ATOM     15  C   UNL     1       2.588   6.866  19.082  0.00  0.00    +0.000 C 
BRANCH  15  16
ATOM     16  O   UNL     1       2.373   7.537  17.844  0.00  0.00    +0.000 OA
BRANCH  16  17
ATOM     17  C   UNL     1       2.313   8.953  18.017  0.00  0.00    +0.000 C 
BRANCH  17  18
ATOM     18  C   UNL     1       0.914   9.328  18.391  0.00  0.00    +0.000 C 
ATOM     19  C   UNL     1       0.583   9.786  19.789  0.00  0.00    +0.000 C 
ATOM     20  C   UNL     1       0.550  10.767  18.651  0.00  0.00    +0.000 C 
ENDBRANCH  17  18
ENDBRANCH  16  17
ENDBRANCH  15  16
ENDBRANCH   7  15
TORSDOF 5
ENDMDL
MODEL 8
REMARK VINA RESULT:      -6.6      1.169      1.528
REMARK  Name = 
REMARK  7 active torsions:
REMARK  status: ('A' for Active; 'I' for Inactive)
REMARK    1  A    between atoms: C_1  and  N_2
REMARK    2  A    between atoms: C_7  and  C_8
REMARK    3  A    between atoms: C_8  and  O_9
REMARK    4  A    between atoms: O_9  and  C_10
REMARK    5  A    between atoms: C_10  and  C_11
REMARK    6  A    between atoms: N_15  and  S_16
REMARK    7  A    between atoms: S_16  and  C_17
REMARK                            x       y       z     vdW  Elec       q    Type
REMARK                         _______ _______ _______ _____ _____    ______ ____
ROOT
ATOM      1  C   UNL     1       1.479   4.814  20.541  0.00  0.00    +0.000 C 
ATOM      2  N   UNL     1       2.108   4.323  19.338  0.00  0.00    +0.000 N 
ATOM      3  N   UNL     1       1.878   3.038  18.983  0.00  0.00    +0.000 NA
ATOM      4  C   UNL     1       2.668   2.842  17.928  0.00  0.00    +0.000 A 
ATOM      5  C   UNL     1       3.389   3.995  17.585  0.00  0.00    +0.000 A 
ATOM      6  C   UNL     1       2.973   4.957  18.486  0.00  0.00    +0.000 A 
ATOM      7  C   UNL     1       3.499   6.365  18.540  0.00  0.00    +0.000 C 
ATOM      8  C   UNL     1       4.552   6.591  17.405  0.00  0.00    +0.000 C 
ATOM      9  N   UNL     1       5.232   5.364  16.925  0.00  0.00    +0.000 NA
ATOM     10  C   UNL     1       4.408   4.207  16.535  0.00  0.00    +0.000 C 
ENDROOT
BRANCH   9  11
ATOM     11  S   UNL     1       6.895   5.274  16.858  0.00  0.00    +0.000 S 
ATOM     12  C   UNL     1       7.119   4.392  15.331  0.00  0.00    +0.000 C 
ATOM     13  O   UNL     1       7.435   6.603  16.693  0.00  0.00    +0.000 OA
ATOM     14  O   UNL     1       7.336   4.409  17.933  0.00  0.00    +0.000 OA
ENDBRANCH   9  11
BRANCH   7  15
ATOM     15  C   UNL     1       2.404   7.431  18.346  0.00  0.00    +0.000 C 
BRANCH  15  16
ATOM     16  O   UNL     1       2.046   8.041  19.582  0.00  0.00    +0.000 OA
BRANCH  16  17
ATOM     17  C   UNL     1       1.228   9.193  19.382  0.00  0.00    +0.000 C 
BRANCH  17  18
ATOM     18  C   UNL     1       0.765   9.685  20.717  0.00  0.00    +0.000 C 
ATOM     19  C   UNL     1      -0.307   8.951  21.483  0.00  0.00    +0.000 C 
ATOM     20  C   UNL     1       1.113   8.930  21.974  0.00  0.00    +0.000 C 
ENDBRANCH  17  18
ENDBRANCH  16  17
ENDBRANCH  15  16
ENDBRANCH   7  15
TORSDOF 5
ENDMDL
MODEL 9
REMARK VINA RESULT:      -6.6      0.854      1.002
REMARK  Name = 
REMARK  7 active torsions:
REMARK  status: ('A' for Active; 'I' for Inactive)
REMARK    1  A    between atoms: C_1  and  N_2
REMARK    2  A    between atoms: C_7  and  C_8
REMARK    3  A    between atoms: C_8  and  O_9
REMARK    4  A    between atoms: O_9  and  C_10
REMARK    5  A    between atoms: C_10  and  C_11
REMARK    6  A    between atoms: N_15  and  S_16
REMARK    7  A    between atoms: S_16  and  C_17
REMARK                            x       y       z     vdW  Elec       q    Type
REMARK                         _______ _______ _______ _____ _____    ______ ____
ROOT
ATOM      1  C   UNL     1       2.118   3.960  20.604  0.00  0.00    +0.000 C 
ATOM      2  N   UNL     1       2.711   3.718  19.311  0.00  0.00    +0.000 N 
ATOM      3  N   UNL     1       2.690   2.454  18.831  0.00  0.00    +0.000 NA
ATOM      4  C   UNL     1       3.401   2.517  17.705  0.00  0.00    +0.000 A 
ATOM      5  C   UNL     1       3.861   3.815  17.442  0.00  0.00    +0.000 A 
ATOM      6  C   UNL     1       3.361   4.587  18.474  0.00  0.00    +0.000 A 
ATOM      7  C   UNL     1       3.621   6.058  18.647  0.00  0.00    +0.000 C 
ATOM      8  C   UNL     1       4.504   6.591  17.470  0.00  0.00    +0.000 C 
ATOM      9  N   UNL     1       5.350   5.571  16.806  0.00  0.00    +0.000 NA
ATOM     10  C   UNL     1       4.721   4.320  16.350  0.00  0.00    +0.000 C 
ENDROOT
BRANCH   9  11
ATOM     11  S   UNL     1       6.987   5.811  16.607  0.00  0.00    +0.000 S 
ATOM     12  C   UNL     1       7.641   4.609  17.741  0.00  0.00    +0.000 C 
ATOM     13  O   UNL     1       7.364   5.419  15.269  0.00  0.00    +0.000 OA
ATOM     14  O   UNL     1       7.310   7.125  17.125  0.00  0.00    +0.000 OA
ENDBRANCH   9  11
BRANCH   7  15
ATOM     15  C   UNL     1       2.335   6.906  18.655  0.00  0.00    +0.000 C 
BRANCH  15  16
ATOM     16  O   UNL     1       1.825   7.065  19.975  0.00  0.00    +0.000 OA
BRANCH  16  17
ATOM     17  C   UNL     1       1.583   8.437  20.283  0.00  0.00    +0.000 C 
BRANCH  17  18
ATOM     18  C   UNL     1       0.532   8.508  21.346  0.00  0.00    +0.000 C 
ATOM     19  C   UNL     1       0.668   9.459  22.508  0.00  0.00    +0.000 C 
ATOM     20  C   UNL     1      -0.371   9.710  21.452  0.00  0.00    +0.000 C 
ENDBRANCH  17  18
ENDBRANCH  16  17
ENDBRANCH  15  16
ENDBRANCH   7  15
TORSDOF 5
ENDMDL
