MODEL 1
REMARK VINA RESULT:      -7.3      0.000      0.000
REMARK  Name = 
REMARK  10 active torsions:
REMARK  status: ('A' for Active; 'I' for Inactive)
REMARK    1  A    between atoms: C_1  and  C_2
REMARK    2  A    between atoms: N_4  and  C_5
REMARK    3  A    between atoms: C_5  and  C_6
REMARK    4  A    between atoms: C_9  and  S_10
REMARK    5  A    between atoms: S_10  and  C_11
REMARK    6  A    between atoms: C_11  and  C_12
REMARK    7  A    between atoms: C_12  and  C_14
REMARK    8  A    between atoms: N_21  and  C_22
REMARK    9  A    between atoms: C_23  and  C_24
REMARK   10  A    between atoms: C_25  and  N_26
REMARK                            x       y       z     vdW  Elec       q    Type
REMARK                         _______ _______ _______ _____ _____    ______ ____
ROOT
ATOM      1  C   UNL     1       2.019   5.894  19.009  0.00  0.00    +0.000 A 
ATOM      2  N   UNL     1       1.679   5.706  17.746  0.00  0.00    +0.000 NA
ATOM      3  N   UNL     1       1.452   4.361  17.558  0.00  0.00    +0.000 NA
ATOM      4  C   UNL     1       1.640   3.762  18.711  0.00  0.00    +0.000 A 
ATOM      5  N   UNL     1       1.902   4.693  19.677  0.00  0.00    +0.000 N 
ATOM      6  C   UNL     1       2.069   4.491  21.094  0.00  0.00    +0.000 C 
ENDROOT
BRANCH   1   7
ATOM      7  C   UNL     1       2.621   7.132  19.575  0.00  0.00    +0.000 C 
BRANCH   7  11
ATOM      8  C   UNL     1       0.006   9.489  22.896  0.00  0.00    +0.000 C 
ATOM      9  C   UNL     1       0.591   9.195  21.561  0.00  0.00    +0.000 A 
ATOM     10  N   UNL     1       1.266   8.052  21.359  0.00  0.00    +0.000 NA
ATOM     11  N   UNL     1       1.637   8.101  20.056  0.00  0.00    +0.000 N 
ATOM     12  C   UNL     1       1.186   9.233  19.412  0.00  0.00    +0.000 A 
ATOM     13  C   UNL     1       1.413   9.512  17.967  0.00  0.00    +0.000 C 
ATOM     14  C   UNL     1       0.547   9.989  20.388  0.00  0.00    +0.000 A 
BRANCH  14  15
ATOM     15  N   UNL     1      -0.028  11.302  20.239  0.00  0.00    +0.000 N 
ATOM     16  O   UNL     1       0.616  12.258  20.687  0.00  0.00    +0.000 OA
ATOM     17  O   UNL     1      -1.114  11.390  19.652  0.00  0.00    +0.000 OA
ENDBRANCH  14  15
ENDBRANCH   7  11
ENDBRANCH   1   7
BRANCH   4  18
ATOM     18  S   UNL     1       1.606   2.056  18.982  0.00  0.00    +0.000 S 
BRANCH  18  19
ATOM     19  C   UNL     1       3.278   1.578  18.448  0.00  0.00    +0.000 C 
BRANCH  19  20
ATOM     20  C   UNL     1       4.387   2.284  19.221  0.00  0.00    +0.000 C 
ATOM     21  O   UNL     1       4.842   1.875  20.286  0.00  0.00    +0.000 OA
BRANCH  20  22
ATOM     22  C   UNL     1       4.952   3.552  18.639  0.00  0.00    +0.000 A 
ATOM     23  C   UNL     1       4.928   3.831  17.263  0.00  0.00    +0.000 A 
ATOM     24  C   UNL     1       5.488   5.018  16.771  0.00  0.00    +0.000 A 
ATOM     25  C   UNL     1       6.063   5.934  17.651  0.00  0.00    +0.000 A 
ATOM     26 CL   UNL     1       6.747   7.390  17.037  0.00  0.00    +0.000 Cl
ATOM     27  C   UNL     1       6.091   5.676  19.015  0.00  0.00    +0.000 A 
ATOM     28  C   UNL     1       5.538   4.488  19.509  0.00  0.00    +0.000 A 
ENDBRANCH  20  22
ENDBRANCH  19  20
ENDBRANCH  18  19
ENDBRANCH   4  18
TORSDOF 7
ENDMDL
MODEL 2
REMARK VINA RESULT:      -7.2      5.385      7.673
REMARK  Name = 
REMARK  10 active torsions:
REMARK  status: ('A' for Active; 'I' for Inactive)
REMARK    1  A    between atoms: C_1  and  C_2
REMARK    2  A    between atoms: N_4  and  C_5
REMARK    3  A    between atoms: C_5  and  C_6
REMARK    4  A    between atoms: C_9  and  S_10
REMARK    5  A    between atoms: S_10  and  C_11
REMARK    6  A    between atoms: C_11  and  C_12
REMARK    7  A    between atoms: C_12  and  C_14
REMARK    8  A    between atoms: N_21  and  C_22
REMARK    9  A    between atoms: C_23  and  C_24
REMARK   10  A    between atoms: C_25  and  N_26
REMARK                            x       y       z     vdW  Elec       q    Type
REMARK                         _______ _______ _______ _____ _____    ______ ____
ROOT
ATOM      1  C   UNL     1       5.543   5.628  16.627  0.00  0.00    +0.000 A 
ATOM      2  N   UNL     1       5.347   6.821  16.095  0.00  0.00    +0.000 NA
ATOM      3  N   UNL     1       6.290   7.682  16.611  0.00  0.00    +0.000 NA
ATOM      4  C   UNL     1       7.051   6.993  17.429  0.00  0.00    +0.000 A 
ATOM      5  N   UNL     1       6.685   5.675  17.400  0.00  0.00    +0.000 N 
ATOM      6  C   UNL     1       7.310   4.557  18.059  0.00  0.00    +0.000 C 
ENDROOT
BRANCH   1   7
ATOM      7  C   UNL     1       4.595   4.482  16.574  0.00  0.00    +0.000 C 
BRANCH   7  11
ATOM      8  C   UNL     1       1.848   5.974  20.269  0.00  0.00    +0.000 C 
ATOM      9  C   UNL     1       2.487   5.014  19.329  0.00  0.00    +0.000 A 
ATOM     10  N   UNL     1       3.414   5.442  18.457  0.00  0.00    +0.000 NA
ATOM     11  N   UNL     1       3.788   4.327  17.783  0.00  0.00    +0.000 N 
ATOM     12  C   UNL     1       3.146   3.191  18.227  0.00  0.00    +0.000 A 
ATOM     13  C   UNL     1       3.406   1.827  17.690  0.00  0.00    +0.000 C 
ATOM     14  C   UNL     1       2.251   3.623  19.198  0.00  0.00    +0.000 A 
BRANCH  14  15
ATOM     15  N   UNL     1       1.284   2.827  19.913  0.00  0.00    +0.000 N 
ATOM     16  O   UNL     1       0.298   2.430  19.281  0.00  0.00    +0.000 OA
ATOM     17  O   UNL     1       1.517   2.572  21.101  0.00  0.00    +0.000 OA
ENDBRANCH  14  15
ENDBRANCH   7  11
ENDBRANCH   1   7
BRANCH   4  18
ATOM     18  S   UNL     1       8.303   7.636  18.431  0.00  0.00    +0.000 S 
BRANCH  18  19
ATOM     19  C   UNL     1       8.288   9.387  17.936  0.00  0.00    +0.000 C 
BRANCH  19  20
ATOM     20  C   UNL     1       9.067  10.292  18.884  0.00  0.00    +0.000 C 
ATOM     21  O   UNL     1       9.235  10.046  20.077  0.00  0.00    +0.000 OA
BRANCH  20  22
ATOM     22  C   UNL     1       9.661  11.555  18.321  0.00  0.00    +0.000 A 
ATOM     23  C   UNL     1      10.989  11.632  17.872  0.00  0.00    +0.000 A 
ATOM     24  C   UNL     1      11.500  12.839  17.376  0.00  0.00    +0.000 A 
ATOM     25  C   UNL     1      10.685  13.969  17.316  0.00  0.00    +0.000 A 
ATOM     26 CL   UNL     1      11.321  15.446  16.704  0.00  0.00    +0.000 Cl
ATOM     27  C   UNL     1       9.368  13.908  17.752  0.00  0.00    +0.000 A 
ATOM     28  C   UNL     1       8.856  12.705  18.254  0.00  0.00    +0.000 A 
ENDBRANCH  20  22
ENDBRANCH  19  20
ENDBRANCH  18  19
ENDBRANCH   4  18
TORSDOF 7
ENDMDL
MODEL 3
REMARK VINA RESULT:      -7.2      0.074      1.088
REMARK  Name = 
REMARK  10 active torsions:
REMARK  status: ('A' for Active; 'I' for Inactive)
REMARK    1  A    between atoms: C_1  and  C_2
REMARK    2  A    between atoms: N_4  and  C_5
REMARK    3  A    between atoms: C_5  and  C_6
REMARK    4  A    between atoms: C_9  and  S_10
REMARK    5  A    between atoms: S_10  and  C_11
REMARK    6  A    between atoms: C_11  and  C_12
REMARK    7  A    between atoms: C_12  and  C_14
REMARK    8  A    between atoms: N_21  and  C_22
REMARK    9  A    between atoms: C_23  and  C_24
REMARK   10  A    between atoms: C_25  and  N_26
REMARK                            x       y       z     vdW  Elec       q    Type
REMARK                         _______ _______ _______ _____ _____    ______ ____
ROOT
ATOM      1  C   UNL     1       1.994   5.913  19.007  0.00  0.00    +0.000 A 
ATOM      2  N   UNL     1       1.645   5.724  17.747  0.00  0.00    +0.000 NA
ATOM      3  N   UNL     1       1.416   4.379  17.562  0.00  0.00    +0.000 NA
ATOM      4  C   UNL     1       1.612   3.781  18.713  0.00  0.00    +0.000 A 
ATOM      5  N   UNL     1       1.881   4.713  19.677  0.00  0.00    +0.000 N 
ATOM      6  C   UNL     1       2.056   4.512  21.093  0.00  0.00    +0.000 C 
ENDROOT
BRANCH   1   7
ATOM      7  C   UNL     1       2.600   7.151  19.568  0.00  0.00    +0.000 C 
BRANCH   7  11
ATOM      8  C   UNL     1       0.037   9.452  22.968  0.00  0.00    +0.000 C 
ATOM      9  C   UNL     1       0.599   9.178  21.618  0.00  0.00    +0.000 A 
ATOM     10  N   UNL     1       1.275   8.041  21.389  0.00  0.00    +0.000 NA
ATOM     11  N   UNL     1       1.622   8.109  20.080  0.00  0.00    +0.000 N 
ATOM     12  C   UNL     1       1.154   9.247  19.460  0.00  0.00    +0.000 A 
ATOM     13  C   UNL     1       1.353   9.547  18.015  0.00  0.00    +0.000 C 
ATOM     14  C   UNL     1       0.530   9.987  20.457  0.00  0.00    +0.000 A 
BRANCH  14  15
ATOM     15  N   UNL     1      -0.054  11.300  20.337  0.00  0.00    +0.000 N 
ATOM     16  O   UNL     1      -1.162  11.380  19.793  0.00  0.00    +0.000 OA
ATOM     17  O   UNL     1       0.578  12.254  20.807  0.00  0.00    +0.000 OA
ENDBRANCH  14  15
ENDBRANCH   7  11
ENDBRANCH   1   7
BRANCH   4  18
ATOM     18  S   UNL     1       1.578   2.075  18.987  0.00  0.00    +0.000 S 
BRANCH  18  19
ATOM     19  C   UNL     1       3.246   1.596  18.442  0.00  0.00    +0.000 C 
BRANCH  19  20
ATOM     20  C   UNL     1       4.360   2.259  19.245  0.00  0.00    +0.000 C 
ATOM     21  O   UNL     1       4.804   1.806  20.299  0.00  0.00    +0.000 OA
BRANCH  20  22
ATOM     22  C   UNL     1       4.947   3.537  18.711  0.00  0.00    +0.000 A 
ATOM     23  C   UNL     1       5.543   4.502  19.540  0.00  0.00    +0.000 A 
ATOM     24  C   UNL     1       6.055   5.686  18.992  0.00  0.00    +0.000 A 
ATOM     25  C   UNL     1       5.986   5.906  17.618  0.00  0.00    +0.000 A 
ATOM     26 CL   UNL     1       6.620   7.363  16.955  0.00  0.00    +0.000 Cl
ATOM     27  C   UNL     1       5.405   4.960  16.783  0.00  0.00    +0.000 A 
ATOM     28  C   UNL     1       4.885   3.779  17.328  0.00  0.00    +0.000 A 
ENDBRANCH  20  22
ENDBRANCH  19  20
ENDBRANCH  18  19
ENDBRANCH   4  18
TORSDOF 7
ENDMDL
MODEL 4
REMARK VINA RESULT:      -7.1      4.160      8.517
REMARK  Name = 
REMARK  10 active torsions:
REMARK  status: ('A' for Active; 'I' for Inactive)
REMARK    1  A    between atoms: C_1  and  C_2
REMARK    2  A    between atoms: N_4  and  C_5
REMARK    3  A    between atoms: C_5  and  C_6
REMARK    4  A    between atoms: C_9  and  S_10
REMARK    5  A    between atoms: S_10  and  C_11
REMARK    6  A    between atoms: C_11  and  C_12
REMARK    7  A    between atoms: C_12  and  C_14
REMARK    8  A    between atoms: N_21  and  C_22
REMARK    9  A    between atoms: C_23  and  C_24
REMARK   10  A    between atoms: C_25  and  N_26
REMARK                            x       y       z     vdW  Elec       q    Type
REMARK                         _______ _______ _______ _____ _____    ______ ____
ROOT
ATOM      1  C   UNL     1       2.318   7.878  18.348  0.00  0.00    +0.000 A 
ATOM      2  N   UNL     1       2.281   8.934  17.554  0.00  0.00    +0.000 NA
ATOM      3  N   UNL     1       1.604   9.939  18.208  0.00  0.00    +0.000 NA
ATOM      4  C   UNL     1       1.260   9.483  19.390  0.00  0.00    +0.000 A 
ATOM      5  N   UNL     1       1.770   8.227  19.565  0.00  0.00    +0.000 N 
ATOM      6  C   UNL     1       1.725   7.399  20.743  0.00  0.00    +0.000 C 
ENDROOT
BRANCH   1   7
ATOM      7  C   UNL     1       2.693   6.496  17.945  0.00  0.00    +0.000 C 
BRANCH   7  11
ATOM      8  C   UNL     1       7.319   7.659  17.125  0.00  0.00    +0.000 C 
ATOM      9  C   UNL     1       6.169   6.860  17.627  0.00  0.00    +0.000 A 
ATOM     10  N   UNL     1       4.915   7.197  17.287  0.00  0.00    +0.000 NA
ATOM     11  N   UNL     1       4.136   6.267  17.891  0.00  0.00    +0.000 N 
ATOM     12  C   UNL     1       4.865   5.323  18.581  0.00  0.00    +0.000 A 
ATOM     13  C   UNL     1       4.259   4.165  19.294  0.00  0.00    +0.000 C 
ATOM     14  C   UNL     1       6.192   5.720  18.469  0.00  0.00    +0.000 A 
BRANCH  14  15
ATOM     15  N   UNL     1       7.343   5.108  19.085  0.00  0.00    +0.000 N 
ATOM     16  O   UNL     1       7.540   5.349  20.282  0.00  0.00    +0.000 OA
ATOM     17  O   UNL     1       8.041   4.365  18.385  0.00  0.00    +0.000 OA
ENDBRANCH  14  15
ENDBRANCH   7  11
ENDBRANCH   1   7
BRANCH   4  18
ATOM     18  S   UNL     1       0.280  10.311  20.548  0.00  0.00    +0.000 S 
BRANCH  18  19
ATOM     19  C   UNL     1      -0.379  11.676  19.543  0.00  0.00    +0.000 C 
BRANCH  19  20
ATOM     20  C   UNL     1      -1.894  11.629  19.375  0.00  0.00    +0.000 C 
ATOM     21  O   UNL     1      -2.688  11.952  20.256  0.00  0.00    +0.000 OA
BRANCH  20  22
ATOM     22  C   UNL     1      -2.441  11.163  18.053  0.00  0.00    +0.000 A 
ATOM     23  C   UNL     1      -1.770  10.234  17.241  0.00  0.00    +0.000 A 
ATOM     24  C   UNL     1      -2.314   9.850  16.007  0.00  0.00    +0.000 A 
ATOM     25  C   UNL     1      -3.532  10.381  15.586  0.00  0.00    +0.000 A 
ATOM     26 CL   UNL     1      -4.192   9.901  14.071  0.00  0.00    +0.000 Cl
ATOM     27  C   UNL     1      -4.211  11.296  16.380  0.00  0.00    +0.000 A 
ATOM     28  C   UNL     1      -3.667  11.688  17.610  0.00  0.00    +0.000 A 
ENDBRANCH  20  22
ENDBRANCH  19  20
ENDBRANCH  18  19
ENDBRANCH   4  18
TORSDOF 7
ENDMDL
MODEL 5
REMARK VINA RESULT:      -7.0      4.302      8.665
REMARK  Name = 
REMARK  10 active torsions:
REMARK  status: ('A' for Active; 'I' for Inactive)
REMARK    1  A    between atoms: C_1  and  C_2
REMARK    2  A    between atoms: N_4  and  C_5
REMARK    3  A    between atoms: C_5  and  C_6
REMARK    4  A    between atoms: C_9  and  S_10
REMARK    5  A    between atoms: S_10  and  C_11
REMARK    6  A    between atoms: C_11  and  C_12
REMARK    7  A    between atoms: C_12  and  C_14
REMARK    8  A    between atoms: N_21  and  C_22
REMARK    9  A    between atoms: C_23  and  C_24
REMARK   10  A    between atoms: C_25  and  N_26
REMARK                            x       y       z     vdW  Elec       q    Type
REMARK                         _______ _______ _______ _____ _____    ______ ____
ROOT
ATOM      1  C   UNL     1       2.483   7.524  18.602  0.00  0.00    +0.000 A 
ATOM      2  N   UNL     1       2.382   8.489  17.704  0.00  0.00    +0.000 NA
ATOM      3  N   UNL     1       1.536   9.453  18.202  0.00  0.00    +0.000 NA
ATOM      4  C   UNL     1       1.153   9.067  19.397  0.00  0.00    +0.000 A 
ATOM      5  N   UNL     1       1.797   7.909  19.735  0.00  0.00    +0.000 N 
ATOM      6  C   UNL     1       1.756   7.194  20.985  0.00  0.00    +0.000 C 
ENDROOT
BRANCH   1   7
ATOM      7  C   UNL     1       3.057   6.172  18.368  0.00  0.00    +0.000 C 
BRANCH   7  11
ATOM      8  C   UNL     1       7.532   7.785  17.479  0.00  0.00    +0.000 C 
ATOM      9  C   UNL     1       6.368   6.860  17.431  0.00  0.00    +0.000 A 
ATOM     10  N   UNL     1       5.182   7.245  17.928  0.00  0.00    +0.000 NA
ATOM     11  N   UNL     1       4.361   6.189  17.708  0.00  0.00    +0.000 N 
ATOM     12  C   UNL     1       4.987   5.151  17.053  0.00  0.00    +0.000 A 
ATOM     13  C   UNL     1       4.303   3.892  16.649  0.00  0.00    +0.000 C 
ATOM     14  C   UNL     1       6.313   5.543  16.911  0.00  0.00    +0.000 A 
BRANCH  14  15
ATOM     15  N   UNL     1       7.399   4.773  16.359  0.00  0.00    +0.000 N 
ATOM     16  O   UNL     1       8.163   4.217  17.158  0.00  0.00    +0.000 OA
ATOM     17  O   UNL     1       7.481   4.696  15.127  0.00  0.00    +0.000 OA
ENDBRANCH  14  15
ENDBRANCH   7  11
ENDBRANCH   1   7
BRANCH   4  18
ATOM     18  S   UNL     1      -0.014   9.862  20.393  0.00  0.00    +0.000 S 
BRANCH  18  19
ATOM     19  C   UNL     1      -0.369  11.348  19.405  0.00  0.00    +0.000 C 
BRANCH  19  20
ATOM     20  C   UNL     1      -1.859  11.616  19.226  0.00  0.00    +0.000 C 
ATOM     21  O   UNL     1      -2.565  12.144  20.084  0.00  0.00    +0.000 OA
BRANCH  20  22
ATOM     22  C   UNL     1      -2.495  11.213  17.924  0.00  0.00    +0.000 A 
ATOM     23  C   UNL     1      -3.740  11.707  17.503  0.00  0.00    +0.000 A 
ATOM     24  C   UNL     1      -4.298  11.282  16.289  0.00  0.00    +0.000 A 
ATOM     25  C   UNL     1      -3.610  10.373  15.487  0.00  0.00    +0.000 A 
ATOM     26 CL   UNL     1      -4.302   9.858  13.997  0.00  0.00    +0.000 Cl
ATOM     27  C   UNL     1      -2.375   9.878  15.886  0.00  0.00    +0.000 A 
ATOM     28  C   UNL     1      -1.818  10.295  17.101  0.00  0.00    +0.000 A 
ENDBRANCH  20  22
ENDBRANCH  19  20
ENDBRANCH  18  19
ENDBRANCH   4  18
TORSDOF 7
ENDMDL
MODEL 6
REMARK VINA RESULT:      -6.8      5.700      7.968
REMARK  Name = 
REMARK  10 active torsions:
REMARK  status: ('A' for Active; 'I' for Inactive)
REMARK    1  A    between atoms: C_1  and  C_2
REMARK    2  A    between atoms: N_4  and  C_5
REMARK    3  A    between atoms: C_5  and  C_6
REMARK    4  A    between atoms: C_9  and  S_10
REMARK    5  A    between atoms: S_10  and  C_11
REMARK    6  A    between atoms: C_11  and  C_12
REMARK    7  A    between atoms: C_12  and  C_14
REMARK    8  A    between atoms: N_21  and  C_22
REMARK    9  A    between atoms: C_23  and  C_24
REMARK   10  A    between atoms: C_25  and  N_26
REMARK                            x       y       z     vdW  Elec       q    Type
REMARK                         _______ _______ _______ _____ _____    ______ ____
ROOT
ATOM      1  C   UNL     1       6.339   5.312  18.386  0.00  0.00    +0.000 A 
ATOM      2  N   UNL     1       7.396   5.230  19.174  0.00  0.00    +0.000 NA
ATOM      3  N   UNL     1       8.138   6.379  19.019  0.00  0.00    +0.000 NA
ATOM      4  C   UNL     1       7.511   7.144  18.157  0.00  0.00    +0.000 A 
ATOM      5  N   UNL     1       6.324   6.563  17.803  0.00  0.00    +0.000 N 
ATOM      6  C   UNL     1       5.280   7.097  16.967  0.00  0.00    +0.000 C 
ENDROOT
BRANCH   1   7
ATOM      7  C   UNL     1       5.430   4.191  18.024  0.00  0.00    +0.000 C 
BRANCH   7  11
ATOM      8  C   UNL     1       1.752   5.821  20.714  0.00  0.00    +0.000 C 
ATOM      9  C   UNL     1       2.583   4.836  19.972  0.00  0.00    +0.000 A 
ATOM     10  N   UNL     1       3.778   5.198  19.480  0.00  0.00    +0.000 NA
ATOM     11  N   UNL     1       4.259   4.075  18.891  0.00  0.00    +0.000 N 
ATOM     12  C   UNL     1       3.413   2.995  19.024  0.00  0.00    +0.000 A 
ATOM     13  C   UNL     1       3.720   1.632  18.511  0.00  0.00    +0.000 C 
ATOM     14  C   UNL     1       2.287   3.481  19.678  0.00  0.00    +0.000 A 
BRANCH  14  15
ATOM     15  N   UNL     1       1.075   2.762  19.984  0.00  0.00    +0.000 N 
ATOM     16  O   UNL     1       0.336   2.468  19.037  0.00  0.00    +0.000 OA
ATOM     17  O   UNL     1       0.867   2.466  21.167  0.00  0.00    +0.000 OA
ENDBRANCH  14  15
ENDBRANCH   7  11
ENDBRANCH   1   7
BRANCH   4  18
ATOM     18  S   UNL     1       8.093   8.641  17.521  0.00  0.00    +0.000 S 
BRANCH  18  19
ATOM     19  C   UNL     1       8.884   9.366  18.990  0.00  0.00    +0.000 C 
BRANCH  19  20
ATOM     20  C   UNL     1       9.551  10.710  18.719  0.00  0.00    +0.000 C 
ATOM     21  O   UNL     1      10.110  10.993  17.661  0.00  0.00    +0.000 OA
BRANCH  20  22
ATOM     22  C   UNL     1       9.517  11.745  19.811  0.00  0.00    +0.000 A 
ATOM     23  C   UNL     1       9.226  11.427  21.147  0.00  0.00    +0.000 A 
ATOM     24  C   UNL     1       9.186  12.433  22.122  0.00  0.00    +0.000 A 
ATOM     25  C   UNL     1       9.447  13.756  21.769  0.00  0.00    +0.000 A 
ATOM     26 CL   UNL     1       9.398  14.985  22.974  0.00  0.00    +0.000 Cl
ATOM     27  C   UNL     1       9.742  14.087  20.453  0.00  0.00    +0.000 A 
ATOM     28  C   UNL     1       9.776  13.085  19.475  0.00  0.00    +0.000 A 
ENDBRANCH  20  22
ENDBRANCH  19  20
ENDBRANCH  18  19
ENDBRANCH   4  18
TORSDOF 7
ENDMDL
MODEL 7
REMARK VINA RESULT:      -6.7      4.453      9.452
REMARK  Name = 
REMARK  10 active torsions:
REMARK  status: ('A' for Active; 'I' for Inactive)
REMARK    1  A    between atoms: C_1  and  C_2
REMARK    2  A    between atoms: N_4  and  C_5
REMARK    3  A    between atoms: C_5  and  C_6
REMARK    4  A    between atoms: C_9  and  S_10
REMARK    5  A    between atoms: S_10  and  C_11
REMARK    6  A    between atoms: C_11  and  C_12
REMARK    7  A    between atoms: C_12  and  C_14
REMARK    8  A    between atoms: N_21  and  C_22
REMARK    9  A    between atoms: C_23  and  C_24
REMARK   10  A    between atoms: C_25  and  N_26
REMARK                            x       y       z     vdW  Elec       q    Type
REMARK                         _______ _______ _______ _____ _____    ______ ____
ROOT
ATOM      1  C   UNL     1       1.907   7.763  19.655  0.00  0.00    +0.000 A 
ATOM      2  N   UNL     1       1.583   7.555  20.919  0.00  0.00    +0.000 NA
ATOM      3  N   UNL     1       1.087   8.732  21.434  0.00  0.00    +0.000 NA
ATOM      4  C   UNL     1       1.101   9.624  20.471  0.00  0.00    +0.000 A 
ATOM      5  N   UNL     1       1.515   9.039  19.307  0.00  0.00    +0.000 N 
ATOM      6  C   UNL     1       1.582   9.617  17.989  0.00  0.00    +0.000 C 
ENDROOT
BRANCH   1   7
ATOM      7  C   UNL     1       2.733   6.861  18.806  0.00  0.00    +0.000 C 
BRANCH   7  11
ATOM      8  C   UNL     1       1.014   2.528  20.108  0.00  0.00    +0.000 C 
ATOM      9  C   UNL     1       2.030   3.557  19.759  0.00  0.00    +0.000 A 
ATOM     10  N   UNL     1       1.661   4.838  19.594  0.00  0.00    +0.000 NA
ATOM     11  N   UNL     1       2.815   5.490  19.307  0.00  0.00    +0.000 N 
ATOM     12  C   UNL     1       3.916   4.662  19.316  0.00  0.00    +0.000 A 
ATOM     13  C   UNL     1       5.309   5.130  19.080  0.00  0.00    +0.000 C 
ATOM     14  C   UNL     1       3.422   3.385  19.556  0.00  0.00    +0.000 A 
BRANCH  14  15
ATOM     15  N   UNL     1       4.165   2.150  19.582  0.00  0.00    +0.000 N 
ATOM     16  O   UNL     1       4.934   1.971  20.534  0.00  0.00    +0.000 OA
ATOM     17  O   UNL     1       3.967   1.341  18.667  0.00  0.00    +0.000 OA
ENDBRANCH  14  15
ENDBRANCH   7  11
ENDBRANCH   1   7
BRANCH   4  18
ATOM     18  S   UNL     1       0.700  11.297  20.635  0.00  0.00    +0.000 S 
BRANCH  18  19
ATOM     19  C   UNL     1      -1.032  11.194  21.180  0.00  0.00    +0.000 C 
BRANCH  19  20
ATOM     20  C   UNL     1      -1.197  11.268  22.694  0.00  0.00    +0.000 C 
ATOM     21  O   UNL     1      -0.767  10.417  23.470  0.00  0.00    +0.000 OA
BRANCH  20  22
ATOM     22  C   UNL     1      -1.928  12.453  23.265  0.00  0.00    +0.000 A 
ATOM     23  C   UNL     1      -3.257  12.381  23.712  0.00  0.00    +0.000 A 
ATOM     24  C   UNL     1      -3.898  13.522  24.215  0.00  0.00    +0.000 A 
ATOM     25  C   UNL     1      -3.212  14.733  24.285  0.00  0.00    +0.000 A 
ATOM     26 CL   UNL     1      -4.006  16.128  24.907  0.00  0.00    +0.000 Cl
ATOM     27  C   UNL     1      -1.895  14.821  23.852  0.00  0.00    +0.000 A 
ATOM     28  C   UNL     1      -1.254  13.685  23.342  0.00  0.00    +0.000 A 
ENDBRANCH  20  22
ENDBRANCH  19  20
ENDBRANCH  18  19
ENDBRANCH   4  18
TORSDOF 7
ENDMDL
MODEL 8
REMARK VINA RESULT:      -6.7      4.597      9.581
REMARK  Name = 
REMARK  10 active torsions:
REMARK  status: ('A' for Active; 'I' for Inactive)
REMARK    1  A    between atoms: C_1  and  C_2
REMARK    2  A    between atoms: N_4  and  C_5
REMARK    3  A    between atoms: C_5  and  C_6
REMARK    4  A    between atoms: C_9  and  S_10
REMARK    5  A    between atoms: S_10  and  C_11
REMARK    6  A    between atoms: C_11  and  C_12
REMARK    7  A    between atoms: C_12  and  C_14
REMARK    8  A    between atoms: N_21  and  C_22
REMARK    9  A    between atoms: C_23  and  C_24
REMARK   10  A    between atoms: C_25  and  N_26
REMARK                            x       y       z     vdW  Elec       q    Type
REMARK                         _______ _______ _______ _____ _____    ______ ____
ROOT
ATOM      1  C   UNL     1       1.829   7.896  19.709  0.00  0.00    +0.000 A 
ATOM      2  N   UNL     1       1.596   7.769  21.004  0.00  0.00    +0.000 NA
ATOM      3  N   UNL     1       1.138   8.978  21.478  0.00  0.00    +0.000 NA
ATOM      4  C   UNL     1       1.086   9.809  20.463  0.00  0.00    +0.000 A 
ATOM      5  N   UNL     1       1.416   9.151  19.311  0.00  0.00    +0.000 N 
ATOM      6  C   UNL     1       1.390   9.646  17.958  0.00  0.00    +0.000 C 
ENDROOT
BRANCH   1   7
ATOM      7  C   UNL     1       2.592   6.940  18.863  0.00  0.00    +0.000 C 
BRANCH   7  11
ATOM      8  C   UNL     1       1.228   2.858  21.078  0.00  0.00    +0.000 C 
ATOM      9  C   UNL     1       2.126   3.796  20.351  0.00  0.00    +0.000 A 
ATOM     10  N   UNL     1       1.745   5.066  20.141  0.00  0.00    +0.000 NA
ATOM     11  N   UNL     1       2.787   5.629  19.480  0.00  0.00    +0.000 N 
ATOM     12  C   UNL     1       3.837   4.757  19.292  0.00  0.00    +0.000 A 
ATOM     13  C   UNL     1       5.120   5.132  18.638  0.00  0.00    +0.000 C 
ATOM     14  C   UNL     1       3.408   3.538  19.803  0.00  0.00    +0.000 A 
BRANCH  14  15
ATOM     15  N   UNL     1       4.112   2.280  19.775  0.00  0.00    +0.000 N 
ATOM     16  O   UNL     1       3.826   1.491  18.867  0.00  0.00    +0.000 OA
ATOM     17  O   UNL     1       4.972   2.084  20.643  0.00  0.00    +0.000 OA
ENDBRANCH  14  15
ENDBRANCH   7  11
ENDBRANCH   1   7
BRANCH   4  18
ATOM     18  S   UNL     1       0.699  11.491  20.551  0.00  0.00    +0.000 S 
BRANCH  18  19
ATOM     19  C   UNL     1      -1.085  11.427  20.898  0.00  0.00    +0.000 C 
BRANCH  19  20
ATOM     20  C   UNL     1      -1.426  11.637  22.369  0.00  0.00    +0.000 C 
ATOM     21  O   UNL     1      -0.660  11.365  23.292  0.00  0.00    +0.000 OA
BRANCH  20  22
ATOM     22  C   UNL     1      -2.775  12.213  22.704  0.00  0.00    +0.000 A 
ATOM     23  C   UNL     1      -3.287  12.234  24.011  0.00  0.00    +0.000 A 
ATOM     24  C   UNL     1      -4.560  12.763  24.265  0.00  0.00    +0.000 A 
ATOM     25  C   UNL     1      -5.320  13.282  23.218  0.00  0.00    +0.000 A 
ATOM     26 CL   UNL     1      -6.882  13.931  23.540  0.00  0.00    +0.000 Cl
ATOM     27  C   UNL     1      -4.827  13.273  21.920  0.00  0.00    +0.000 A 
ATOM     28  C   UNL     1      -3.558  12.739  21.662  0.00  0.00    +0.000 A 
ENDBRANCH  20  22
ENDBRANCH  19  20
ENDBRANCH  18  19
ENDBRANCH   4  18
TORSDOF 7
ENDMDL
MODEL 9
REMARK VINA RESULT:      -6.7      5.713      7.798
REMARK  Name = 
REMARK  10 active torsions:
REMARK  status: ('A' for Active; 'I' for Inactive)
REMARK    1  A    between atoms: C_1  and  C_2
REMARK    2  A    between atoms: N_4  and  C_5
REMARK    3  A    between atoms: C_5  and  C_6
REMARK    4  A    between atoms: C_9  and  S_10
REMARK    5  A    between atoms: S_10  and  C_11
REMARK    6  A    between atoms: C_11  and  C_12
REMARK    7  A    between atoms: C_12  and  C_14
REMARK    8  A    between atoms: N_21  and  C_22
REMARK    9  A    between atoms: C_23  and  C_24
REMARK   10  A    between atoms: C_25  and  N_26
REMARK                            x       y       z     vdW  Elec       q    Type
REMARK                         _______ _______ _______ _____ _____    ______ ____
ROOT
ATOM      1  C   UNL     1       6.465   5.739  17.480  0.00  0.00    +0.000 A 
ATOM      2  N   UNL     1       6.395   6.610  16.489  0.00  0.00    +0.000 NA
ATOM      3  N   UNL     1       7.189   7.689  16.809  0.00  0.00    +0.000 NA
ATOM      4  C   UNL     1       7.740   7.445  17.975  0.00  0.00    +0.000 A 
ATOM      5  N   UNL     1       7.395   6.189  18.394  0.00  0.00    +0.000 N 
ATOM      6  C   UNL     1       7.853   5.477  19.559  0.00  0.00    +0.000 C 
ENDROOT
BRANCH   1   7
ATOM      7  C   UNL     1       5.559   4.577  17.686  0.00  0.00    +0.000 C 
BRANCH   7  11
ATOM      8  C   UNL     1       2.090   6.938  20.097  0.00  0.00    +0.000 C 
ATOM      9  C   UNL     1       2.966   5.801  19.710  0.00  0.00    +0.000 A 
ATOM     10  N   UNL     1       3.987   5.996  18.861  0.00  0.00    +0.000 NA
ATOM     11  N   UNL     1       4.572   4.778  18.746  0.00  0.00    +0.000 N 
ATOM     12  C   UNL     1       3.968   3.817  19.527  0.00  0.00    +0.000 A 
ATOM     13  C   UNL     1       4.440   2.408  19.623  0.00  0.00    +0.000 C 
ATOM     14  C   UNL     1       2.883   4.448  20.124  0.00  0.00    +0.000 A 
BRANCH  14  15
ATOM     15  N   UNL     1       1.884   3.851  20.974  0.00  0.00    +0.000 N 
ATOM     16  O   UNL     1       2.236   3.507  22.109  0.00  0.00    +0.000 OA
ATOM     17  O   UNL     1       0.736   3.745  20.524  0.00  0.00    +0.000 OA
ENDBRANCH  14  15
ENDBRANCH   7  11
ENDBRANCH   1   7
BRANCH   4  18
ATOM     18  S   UNL     1       8.723   8.541  18.879  0.00  0.00    +0.000 S 
BRANCH  18  19
ATOM     19  C   UNL     1       8.454  10.092  17.969  0.00  0.00    +0.000 C 
BRANCH  19  20
ATOM     20  C   UNL     1       9.536  11.137  18.218  0.00  0.00    +0.000 C 
ATOM     21  O   UNL     1      10.531  11.271  17.508  0.00  0.00    +0.000 OA
BRANCH  20  22
ATOM     22  C   UNL     1       9.369  12.056  19.398  0.00  0.00    +0.000 A 
ATOM     23  C   UNL     1       8.898  13.373  19.272  0.00  0.00    +0.000 A 
ATOM     24  C   UNL     1       8.781  14.194  20.402  0.00  0.00    +0.000 A 
ATOM     25  C   UNL     1       9.122  13.700  21.661  0.00  0.00    +0.000 A 
ATOM     26 CL   UNL     1       8.973  14.716  23.043  0.00  0.00    +0.000 Cl
ATOM     27  C   UNL     1       9.584  12.398  21.803  0.00  0.00    +0.000 A 
ATOM     28  C   UNL     1       9.709  11.578  20.675  0.00  0.00    +0.000 A 
ENDBRANCH  20  22
ENDBRANCH  19  20
ENDBRANCH  18  19
ENDBRANCH   4  18
TORSDOF 7
ENDMDL
