MODEL 1
REMARK VINA RESULT:      -9.1      0.000      0.000
REMARK  Name = 
REMARK  7 active torsions:
REMARK  status: ('A' for Active; 'I' for Inactive)
REMARK    1  A    between atoms: C_1  and  O_2
REMARK    2  A    between atoms: O_2  and  C_3
REMARK    3  A    between atoms: C_6  and  C_7
REMARK    4  A    between atoms: C_7  and  C_8
REMARK    5  A    between atoms: C_9  and  O_10
REMARK    6  A    between atoms: O_10  and  C_11
REMARK    7  A    between atoms: N_13  and  C_14
REMARK                            x       y       z     vdW  Elec       q    Type
REMARK                         _______ _______ _______ _____ _____    ______ ____
ROOT
ATOM      1  C   UNL     1       3.395   3.859  19.054  0.00  0.00    +0.000 C 
ATOM      2  C   UNL     1       2.219   4.837  19.423  0.00  0.00    +0.000 C 
ATOM      3  C   UNL     1       1.082   4.031  20.097  0.00  0.00    +0.000 C 
ATOM      4  C   UNL     1       0.578   3.015  19.059  0.00  0.00    +0.000 C 
ATOM      5  C   UNL     1       1.753   2.124  18.620  0.00  0.00    +0.000 C 
ATOM      6  N   UNL     1       2.999   2.447  19.358  0.00  0.00    +0.000 NA
ATOM      7  C   UNL     1       2.747   2.284  20.802  0.00  0.00    +0.000 C 
ATOM      8  C   UNL     1       1.625   3.214  21.283  0.00  0.00    +0.000 C 
ENDROOT
BRANCH   1   9
ATOM      9  C   UNL     1       4.750   4.336  19.652  0.00  0.00    +0.000 C 
BRANCH   9  13
ATOM     10  C   UNL     1       7.181   7.234  17.547  0.00  0.00    +0.000 A 
ATOM     11  C   UNL     1       7.749   6.485  18.578  0.00  0.00    +0.000 A 
ATOM     12  C   UNL     1       7.016   5.488  19.233  0.00  0.00    +0.000 A 
ATOM     13  C   UNL     1       5.686   5.249  18.888  0.00  0.00    +0.000 A 
ATOM     14  C   UNL     1       5.145   5.961  17.802  0.00  0.00    +0.000 A 
ATOM     15  C   UNL     1       5.882   6.947  17.140  0.00  0.00    +0.000 A 
BRANCH  10  17
ATOM     16  C   UNL     1       8.305   9.289  17.931  0.00  0.00    +0.000 C 
ATOM     17  O   UNL     1       7.978   8.226  17.045  0.00  0.00    +0.000 OA
ENDBRANCH  10  17
ENDBRANCH   9  13
ENDBRANCH   1   9
BRANCH   2  18
ATOM     18  O   UNL     1       2.653   5.914  20.284  0.00  0.00    +0.000 OA
BRANCH  18  19
ATOM     19  C   UNL     1       2.089   7.134  20.046  0.00  0.00    +0.000 C 
ATOM     20  O   UNL     1       2.176   7.726  18.981  0.00  0.00    +0.000 OA
ATOM     21  N   UNL     1       1.500   7.595  21.195  0.00  0.00    +0.000 N 
ATOM     22  H   UNL     1       1.681   7.038  22.018  0.00  0.00    +0.000 HD
BRANCH  21  23
ATOM     23  C   UNL     1       0.799   8.813  21.353  0.00  0.00    +0.000 A 
ATOM     24  C   UNL     1       0.634   9.738  20.318  0.00  0.00    +0.000 A 
ATOM     25  C   UNL     1      -0.071  10.929  20.526  0.00  0.00    +0.000 A 
ATOM     26  C   UNL     1      -0.608  11.210  21.778  0.00  0.00    +0.000 A 
ATOM     27 BR   UNL     1      -1.535  12.832  22.060  0.00  0.00    +0.000 Br
ATOM     28  C   UNL     1      -0.459  10.299  22.821  0.00  0.00    +0.000 A 
ATOM     29  C   UNL     1       0.234   9.097  22.602  0.00  0.00    +0.000 A 
ENDBRANCH  21  23
ENDBRANCH  18  19
ENDBRANCH   2  18
TORSDOF 6
ENDMDL
MODEL 2
REMARK VINA RESULT:      -9.0      1.582      1.851
REMARK  Name = 
REMARK  7 active torsions:
REMARK  status: ('A' for Active; 'I' for Inactive)
REMARK    1  A    between atoms: C_1  and  O_2
REMARK    2  A    between atoms: O_2  and  C_3
REMARK    3  A    between atoms: C_6  and  C_7
REMARK    4  A    between atoms: C_7  and  C_8
REMARK    5  A    between atoms: C_9  and  O_10
REMARK    6  A    between atoms: O_10  and  C_11
REMARK    7  A    between atoms: N_13  and  C_14
REMARK                            x       y       z     vdW  Elec       q    Type
REMARK                         _______ _______ _______ _____ _____    ______ ____
ROOT
ATOM      1  C   UNL     1       3.209   3.904  18.918  0.00  0.00    +0.000 C 
ATOM      2  C   UNL     1       2.169   4.953  19.460  0.00  0.00    +0.000 C 
ATOM      3  C   UNL     1       1.261   4.270  20.512  0.00  0.00    +0.000 C 
ATOM      4  C   UNL     1       0.505   3.145  19.787  0.00  0.00    +0.000 C 
ATOM      5  C   UNL     1       1.525   2.174  19.168  0.00  0.00    +0.000 C 
ATOM      6  N   UNL     1       2.921   2.554  19.497  0.00  0.00    +0.000 NA
ATOM      7  C   UNL     1       3.069   2.582  20.964  0.00  0.00    +0.000 C 
ATOM      8  C   UNL     1       2.110   3.595  21.605  0.00  0.00    +0.000 C 
ENDROOT
BRANCH   1   9
ATOM      9  C   UNL     1       4.671   4.417  19.064  0.00  0.00    +0.000 C 
BRANCH   9  13
ATOM     10  C   UNL     1       6.949   5.077  15.443  0.00  0.00    +0.000 A 
ATOM     11  C   UNL     1       7.332   5.723  16.620  0.00  0.00    +0.000 A 
ATOM     12  C   UNL     1       6.665   5.478  17.825  0.00  0.00    +0.000 A 
ATOM     13  C   UNL     1       5.577   4.606  17.866  0.00  0.00    +0.000 A 
ATOM     14  C   UNL     1       5.244   3.909  16.691  0.00  0.00    +0.000 A 
ATOM     15  C   UNL     1       5.918   4.144  15.489  0.00  0.00    +0.000 A 
BRANCH  10  17
ATOM     16  C   UNL     1       7.316   4.779  13.117  0.00  0.00    +0.000 C 
ATOM     17  O   UNL     1       7.632   5.463  14.322  0.00  0.00    +0.000 OA
ENDBRANCH  10  17
ENDBRANCH   9  13
ENDBRANCH   1   9
BRANCH   2  18
ATOM     18  O   UNL     1       2.810   6.119  20.026  0.00  0.00    +0.000 OA
BRANCH  18  19
ATOM     19  C   UNL     1       2.141   7.299  19.880  0.00  0.00    +0.000 C 
ATOM     20  O   UNL     1       2.090   7.925  18.833  0.00  0.00    +0.000 OA
ATOM     21  N   UNL     1       1.626   7.683  21.091  0.00  0.00    +0.000 N 
ATOM     22  H   UNL     1       1.919   7.118  21.876  0.00  0.00    +0.000 HD
BRANCH  21  23
ATOM     23  C   UNL     1       0.856   8.841  21.351  0.00  0.00    +0.000 A 
ATOM     24  C   UNL     1       0.622   9.831  20.394  0.00  0.00    +0.000 A 
ATOM     25  C   UNL     1      -0.149  10.959  20.702  0.00  0.00    +0.000 A 
ATOM     26  C   UNL     1      -0.683  11.109  21.977  0.00  0.00    +0.000 A 
ATOM     27 BR   UNL     1      -1.699  12.646  22.395  0.00  0.00    +0.000 Br
ATOM     28  C   UNL     1      -0.464  10.131  22.945  0.00  0.00    +0.000 A 
ATOM     29  C   UNL     1       0.295   8.993  22.624  0.00  0.00    +0.000 A 
ENDBRANCH  21  23
ENDBRANCH  18  19
ENDBRANCH   2  18
TORSDOF 6
ENDMDL
MODEL 3
REMARK VINA RESULT:      -8.8      1.817      2.268
REMARK  Name = 
REMARK  7 active torsions:
REMARK  status: ('A' for Active; 'I' for Inactive)
REMARK    1  A    between atoms: C_1  and  O_2
REMARK    2  A    between atoms: O_2  and  C_3
REMARK    3  A    between atoms: C_6  and  C_7
REMARK    4  A    between atoms: C_7  and  C_8
REMARK    5  A    between atoms: C_9  and  O_10
REMARK    6  A    between atoms: O_10  and  C_11
REMARK    7  A    between atoms: N_13  and  C_14
REMARK                            x       y       z     vdW  Elec       q    Type
REMARK                         _______ _______ _______ _____ _____    ______ ____
ROOT
ATOM      1  C   UNL     1       3.200   3.742  18.681  0.00  0.00    +0.000 C 
ATOM      2  C   UNL     1       2.261   4.874  19.241  0.00  0.00    +0.000 C 
ATOM      3  C   UNL     1       1.400   4.295  20.391  0.00  0.00    +0.000 C 
ATOM      4  C   UNL     1       0.532   3.181  19.782  0.00  0.00    +0.000 C 
ATOM      5  C   UNL     1       1.450   2.124  19.143  0.00  0.00    +0.000 C 
ATOM      6  N   UNL     1       2.884   2.440  19.349  0.00  0.00    +0.000 NA
ATOM      7  C   UNL     1       3.144   2.530  20.799  0.00  0.00    +0.000 C 
ATOM      8  C   UNL     1       2.292   3.626  21.453  0.00  0.00    +0.000 C 
ENDROOT
BRANCH   1   9
ATOM      9  C   UNL     1       4.694   4.177  18.693  0.00  0.00    +0.000 C 
BRANCH   9  13
ATOM     10  C   UNL     1       6.748   4.887  14.950  0.00  0.00    +0.000 A 
ATOM     11  C   UNL     1       7.468   4.935  16.145  0.00  0.00    +0.000 A 
ATOM     12  C   UNL     1       6.854   4.640  17.368  0.00  0.00    +0.000 A 
ATOM     13  C   UNL     1       5.496   4.324  17.418  0.00  0.00    +0.000 A 
ATOM     14  C   UNL     1       4.798   4.210  16.202  0.00  0.00    +0.000 A 
ATOM     15  C   UNL     1       5.414   4.493  14.980  0.00  0.00    +0.000 A 
BRANCH  10  17
ATOM     16  C   UNL     1       7.216   4.524  12.651  0.00  0.00    +0.000 C 
ATOM     17  O   UNL     1       7.446   5.272  13.838  0.00  0.00    +0.000 OA
ENDBRANCH  10  17
ENDBRANCH   9  13
ENDBRANCH   1   9
BRANCH   2  18
ATOM     18  O   UNL     1       3.004   6.026  19.698  0.00  0.00    +0.000 OA
BRANCH  18  19
ATOM     19  C   UNL     1       2.350   7.222  19.636  0.00  0.00    +0.000 C 
ATOM     20  O   UNL     1       2.365   7.955  18.658  0.00  0.00    +0.000 OA
ATOM     21  N   UNL     1       1.763   7.484  20.847  0.00  0.00    +0.000 N 
ATOM     22  H   UNL     1       2.005   6.837  21.585  0.00  0.00    +0.000 HD
BRANCH  21  23
ATOM     23  C   UNL     1       0.983   8.616  21.179  0.00  0.00    +0.000 A 
ATOM     24  C   UNL     1       0.611   8.928  22.489  0.00  0.00    +0.000 A 
ATOM     25  C   UNL     1      -0.161  10.062  22.766  0.00  0.00    +0.000 A 
ATOM     26  C   UNL     1      -0.577  10.890  21.728  0.00  0.00    +0.000 A 
ATOM     27 BR   UNL     1      -1.641  12.404  22.103  0.00  0.00    +0.000 Br
ATOM     28  C   UNL     1      -0.213  10.599  20.415  0.00  0.00    +0.000 A 
ATOM     29  C   UNL     1       0.578   9.469  20.146  0.00  0.00    +0.000 A 
ENDBRANCH  21  23
ENDBRANCH  18  19
ENDBRANCH   2  18
TORSDOF 6
ENDMDL
MODEL 4
REMARK VINA RESULT:      -8.8      1.547      2.170
REMARK  Name = 
REMARK  7 active torsions:
REMARK  status: ('A' for Active; 'I' for Inactive)
REMARK    1  A    between atoms: C_1  and  O_2
REMARK    2  A    between atoms: O_2  and  C_3
REMARK    3  A    between atoms: C_6  and  C_7
REMARK    4  A    between atoms: C_7  and  C_8
REMARK    5  A    between atoms: C_9  and  O_10
REMARK    6  A    between atoms: O_10  and  C_11
REMARK    7  A    between atoms: N_13  and  C_14
REMARK                            x       y       z     vdW  Elec       q    Type
REMARK                         _______ _______ _______ _____ _____    ______ ____
ROOT
ATOM      1  C   UNL     1       3.084   3.857  18.898  0.00  0.00    +0.000 C 
ATOM      2  C   UNL     1       2.101   4.940  19.477  0.00  0.00    +0.000 C 
ATOM      3  C   UNL     1       1.256   4.304  20.609  0.00  0.00    +0.000 C 
ATOM      4  C   UNL     1       0.433   3.173  19.970  0.00  0.00    +0.000 C 
ATOM      5  C   UNL     1       1.392   2.165  19.312  0.00  0.00    +0.000 C 
ATOM      6  N   UNL     1       2.813   2.529  19.535  0.00  0.00    +0.000 NA
ATOM      7  C   UNL     1       3.061   2.596  20.987  0.00  0.00    +0.000 C 
ATOM      8  C   UNL     1       2.166   3.644  21.661  0.00  0.00    +0.000 C 
ENDROOT
BRANCH   1   9
ATOM      9  C   UNL     1       4.561   4.345  18.929  0.00  0.00    +0.000 C 
BRANCH   9  13
ATOM     10  C   UNL     1       6.974   5.366  15.483  0.00  0.00    +0.000 A 
ATOM     11  C   UNL     1       5.800   4.633  15.304  0.00  0.00    +0.000 A 
ATOM     12  C   UNL     1       4.957   4.347  16.384  0.00  0.00    +0.000 A 
ATOM     13  C   UNL     1       5.295   4.761  17.672  0.00  0.00    +0.000 A 
ATOM     14  C   UNL     1       6.443   5.558  17.831  0.00  0.00    +0.000 A 
ATOM     15  C   UNL     1       7.278   5.855  16.750  0.00  0.00    +0.000 A 
BRANCH  10  17
ATOM     16  C   UNL     1       7.322   4.800  13.205  0.00  0.00    +0.000 C 
ATOM     17  O   UNL     1       7.744   5.509  14.362  0.00  0.00    +0.000 OA
ENDBRANCH  10  17
ENDBRANCH   9  13
ENDBRANCH   1   9
BRANCH   2  18
ATOM     18  O   UNL     1       2.799   6.108  19.964  0.00  0.00    +0.000 OA
BRANCH  18  19
ATOM     19  C   UNL     1       2.111   7.285  19.901  0.00  0.00    +0.000 C 
ATOM     20  O   UNL     1       1.987   7.945  18.881  0.00  0.00    +0.000 OA
ATOM     21  N   UNL     1       1.670   7.623  21.155  0.00  0.00    +0.000 N 
ATOM     22  H   UNL     1       2.018   7.036  21.900  0.00  0.00    +0.000 HD
BRANCH  21  23
ATOM     23  C   UNL     1       0.907   8.763  21.502  0.00  0.00    +0.000 A 
ATOM     24  C   UNL     1       0.139   8.840  22.666  0.00  0.00    +0.000 A 
ATOM     25  C   UNL     1      -0.598   9.993  22.964  0.00  0.00    +0.000 A 
ATOM     26  C   UNL     1      -0.578  11.075  22.091  0.00  0.00    +0.000 A 
ATOM     27 BR   UNL     1      -1.596  12.618  22.485  0.00  0.00    +0.000 Br
ATOM     28  C   UNL     1       0.185  11.019  20.927  0.00  0.00    +0.000 A 
ATOM     29  C   UNL     1       0.936   9.867  20.642  0.00  0.00    +0.000 A 
ENDBRANCH  21  23
ENDBRANCH  18  19
ENDBRANCH   2  18
TORSDOF 6
ENDMDL
MODEL 5
REMARK VINA RESULT:      -8.4      1.942      2.435
REMARK  Name = 
REMARK  7 active torsions:
REMARK  status: ('A' for Active; 'I' for Inactive)
REMARK    1  A    between atoms: C_1  and  O_2
REMARK    2  A    between atoms: O_2  and  C_3
REMARK    3  A    between atoms: C_6  and  C_7
REMARK    4  A    between atoms: C_7  and  C_8
REMARK    5  A    between atoms: C_9  and  O_10
REMARK    6  A    between atoms: O_10  and  C_11
REMARK    7  A    between atoms: N_13  and  C_14
REMARK                            x       y       z     vdW  Elec       q    Type
REMARK                         _______ _______ _______ _____ _____    ______ ____
ROOT
ATOM      1  C   UNL     1       3.148   3.746  18.821  0.00  0.00    +0.000 C 
ATOM      2  C   UNL     1       2.081   4.815  19.264  0.00  0.00    +0.000 C 
ATOM      3  C   UNL     1       1.195   4.212  20.382  0.00  0.00    +0.000 C 
ATOM      4  C   UNL     1       0.467   3.002  19.772  0.00  0.00    +0.000 C 
ATOM      5  C   UNL     1       1.512   2.004  19.245  0.00  0.00    +0.000 C 
ATOM      6  N   UNL     1       2.898   2.451  19.529  0.00  0.00    +0.000 NA
ATOM      7  C   UNL     1       3.048   2.624  20.986  0.00  0.00    +0.000 C 
ATOM      8  C   UNL     1       2.065   3.668  21.530  0.00  0.00    +0.000 C 
ENDROOT
BRANCH   1   9
ATOM      9  C   UNL     1       4.597   4.309  18.910  0.00  0.00    +0.000 C 
BRANCH   9  13
ATOM     10  C   UNL     1       6.936   5.021  15.338  0.00  0.00    +0.000 A 
ATOM     11  C   UNL     1       7.588   4.853  16.560  0.00  0.00    +0.000 A 
ATOM     12  C   UNL     1       6.871   4.549  17.723  0.00  0.00    +0.000 A 
ATOM     13  C   UNL     1       5.480   4.443  17.688  0.00  0.00    +0.000 A 
ATOM     14  C   UNL     1       4.841   4.545  16.439  0.00  0.00    +0.000 A 
ATOM     15  C   UNL     1       5.558   4.836  15.276  0.00  0.00    +0.000 A 
BRANCH  10  17
ATOM     16  C   UNL     1       7.401   4.882  13.014  0.00  0.00    +0.000 C 
ATOM     17  O   UNL     1       7.743   5.391  14.297  0.00  0.00    +0.000 OA
ENDBRANCH  10  17
ENDBRANCH   9  13
ENDBRANCH   1   9
BRANCH   2  18
ATOM     18  O   UNL     1       2.692   6.046  19.713  0.00  0.00    +0.000 OA
BRANCH  18  19
ATOM     19  C   UNL     1       2.284   7.182  19.077  0.00  0.00    +0.000 C 
ATOM     20  O   UNL     1       2.473   7.401  17.891  0.00  0.00    +0.000 OA
ATOM     21  N   UNL     1       1.718   8.035  19.989  0.00  0.00    +0.000 N 
ATOM     22  H   UNL     1       1.806   7.746  20.953  0.00  0.00    +0.000 HD
BRANCH  21  23
ATOM     23  C   UNL     1       1.161   9.308  19.720  0.00  0.00    +0.000 A 
ATOM     24  C   UNL     1      -0.069   9.725  20.234  0.00  0.00    +0.000 A 
ATOM     25  C   UNL     1      -0.576  10.997  19.938  0.00  0.00    +0.000 A 
ATOM     26  C   UNL     1       0.142  11.857  19.115  0.00  0.00    +0.000 A 
ATOM     27 BR   UNL     1      -0.559  13.561  18.698  0.00  0.00    +0.000 Br
ATOM     28  C   UNL     1       1.373  11.461  18.596  0.00  0.00    +0.000 A 
ATOM     29  C   UNL     1       1.885  10.191  18.911  0.00  0.00    +0.000 A 
ENDBRANCH  21  23
ENDBRANCH  18  19
ENDBRANCH   2  18
TORSDOF 6
ENDMDL
MODEL 6
REMARK VINA RESULT:      -8.3      0.203      1.298
REMARK  Name = 
REMARK  7 active torsions:
REMARK  status: ('A' for Active; 'I' for Inactive)
REMARK    1  A    between atoms: C_1  and  O_2
REMARK    2  A    between atoms: O_2  and  C_3
REMARK    3  A    between atoms: C_6  and  C_7
REMARK    4  A    between atoms: C_7  and  C_8
REMARK    5  A    between atoms: C_9  and  O_10
REMARK    6  A    between atoms: O_10  and  C_11
REMARK    7  A    between atoms: N_13  and  C_14
REMARK                            x       y       z     vdW  Elec       q    Type
REMARK                         _______ _______ _______ _____ _____    ______ ____
ROOT
ATOM      1  C   UNL     1       3.339   3.720  18.944  0.00  0.00    +0.000 C 
ATOM      2  C   UNL     1       2.235   4.779  19.312  0.00  0.00    +0.000 C 
ATOM      3  C   UNL     1       1.072   4.066  20.045  0.00  0.00    +0.000 C 
ATOM      4  C   UNL     1       0.478   3.050  19.055  0.00  0.00    +0.000 C 
ATOM      5  C   UNL     1       1.583   2.075  18.614  0.00  0.00    +0.000 C 
ATOM      6  N   UNL     1       2.867   2.345  19.306  0.00  0.00    +0.000 NA
ATOM      7  C   UNL     1       2.649   2.244  20.761  0.00  0.00    +0.000 C 
ATOM      8  C   UNL     1       1.600   3.255  21.242  0.00  0.00    +0.000 C 
ENDROOT
BRANCH   1   9
ATOM      9  C   UNL     1       4.737   4.132  19.487  0.00  0.00    +0.000 C 
BRANCH   9  13
ATOM     10  C   UNL     1       7.257   7.154  17.682  0.00  0.00    +0.000 A 
ATOM     11  C   UNL     1       5.946   6.996  17.229  0.00  0.00    +0.000 A 
ATOM     12  C   UNL     1       5.080   6.080  17.836  0.00  0.00    +0.000 A 
ATOM     13  C   UNL     1       5.523   5.279  18.889  0.00  0.00    +0.000 A 
ATOM     14  C   UNL     1       6.822   5.495  19.383  0.00  0.00    +0.000 A 
ATOM     15  C   UNL     1       7.684   6.419  18.784  0.00  0.00    +0.000 A 
BRANCH  10  17
ATOM     16  C   UNL     1       8.291   9.286  17.550  0.00  0.00    +0.000 C 
ATOM     17  O   UNL     1       8.021   8.024  16.954  0.00  0.00    +0.000 OA
ENDBRANCH  10  17
ENDBRANCH   9  13
ENDBRANCH   1   9
BRANCH   2  18
ATOM     18  O   UNL     1       2.759   5.855  20.124  0.00  0.00    +0.000 OA
BRANCH  18  19
ATOM     19  C   UNL     1       2.152   7.067  19.973  0.00  0.00    +0.000 C 
ATOM     20  O   UNL     1       2.127   7.687  18.921  0.00  0.00    +0.000 OA
ATOM     21  N   UNL     1       1.667   7.488  21.184  0.00  0.00    +0.000 N 
ATOM     22  H   UNL     1       1.935   6.915  21.972  0.00  0.00    +0.000 HD
BRANCH  21  23
ATOM     23  C   UNL     1       0.961   8.687  21.440  0.00  0.00    +0.000 A 
ATOM     24  C   UNL     1       0.290   8.936  22.640  0.00  0.00    +0.000 A 
ATOM     25  C   UNL     1      -0.393  10.141  22.843  0.00  0.00    +0.000 A 
ATOM     26  C   UNL     1      -0.418  11.104  21.840  0.00  0.00    +0.000 A 
ATOM     27 BR   UNL     1      -1.365  12.717  22.109  0.00  0.00    +0.000 Br
ATOM     28  C   UNL     1       0.248  10.877  20.637  0.00  0.00    +0.000 A 
ATOM     29  C   UNL     1       0.947   9.673  20.446  0.00  0.00    +0.000 A 
ENDBRANCH  21  23
ENDBRANCH  18  19
ENDBRANCH   2  18
TORSDOF 6
ENDMDL
MODEL 7
REMARK VINA RESULT:      -8.2      2.025      2.385
REMARK  Name = 
REMARK  7 active torsions:
REMARK  status: ('A' for Active; 'I' for Inactive)
REMARK    1  A    between atoms: C_1  and  O_2
REMARK    2  A    between atoms: O_2  and  C_3
REMARK    3  A    between atoms: C_6  and  C_7
REMARK    4  A    between atoms: C_7  and  C_8
REMARK    5  A    between atoms: C_9  and  O_10
REMARK    6  A    between atoms: O_10  and  C_11
REMARK    7  A    between atoms: N_13  and  C_14
REMARK                            x       y       z     vdW  Elec       q    Type
REMARK                         _______ _______ _______ _____ _____    ______ ____
ROOT
ATOM      1  C   UNL     1       3.194   3.687  18.423  0.00  0.00    +0.000 C 
ATOM      2  C   UNL     1       2.277   4.836  18.984  0.00  0.00    +0.000 C 
ATOM      3  C   UNL     1       1.541   4.325  20.247  0.00  0.00    +0.000 C 
ATOM      4  C   UNL     1       0.654   3.150  19.804  0.00  0.00    +0.000 C 
ATOM      5  C   UNL     1       1.540   2.069  19.161  0.00  0.00    +0.000 C 
ATOM      6  N   UNL     1       2.978   2.431  19.210  0.00  0.00    +0.000 NA
ATOM      7  C   UNL     1       3.365   2.636  20.619  0.00  0.00    +0.000 C 
ATOM      8  C   UNL     1       2.544   3.758  21.268  0.00  0.00    +0.000 C 
ENDROOT
BRANCH   1   9
ATOM      9  C   UNL     1       4.670   4.154  18.266  0.00  0.00    +0.000 C 
BRANCH   9  13
ATOM     10  C   UNL     1       6.671   4.675  14.463  0.00  0.00    +0.000 A 
ATOM     11  C   UNL     1       5.299   4.421  14.485  0.00  0.00    +0.000 A 
ATOM     12  C   UNL     1       4.605   4.319  15.696  0.00  0.00    +0.000 A 
ATOM     13  C   UNL     1       5.281   4.435  16.910  0.00  0.00    +0.000 A 
ATOM     14  C   UNL     1       6.650   4.761  16.876  0.00  0.00    +0.000 A 
ATOM     15  C   UNL     1       7.341   4.875  15.667  0.00  0.00    +0.000 A 
BRANCH  10  17
ATOM     16  C   UNL     1       8.299   5.599  13.003  0.00  0.00    +0.000 C 
ATOM     17  O   UNL     1       7.241   4.674  13.219  0.00  0.00    +0.000 OA
ENDBRANCH  10  17
ENDBRANCH   9  13
ENDBRANCH   1   9
BRANCH   2  18
ATOM     18  O   UNL     1       3.024   6.036  19.285  0.00  0.00    +0.000 OA
BRANCH  18  19
ATOM     19  C   UNL     1       2.304   7.194  19.328  0.00  0.00    +0.000 C 
ATOM     20  O   UNL     1       2.108   7.907  18.357  0.00  0.00    +0.000 OA
ATOM     21  N   UNL     1       1.924   7.446  20.621  0.00  0.00    +0.000 N 
ATOM     22  H   UNL     1       2.327   6.827  21.311  0.00  0.00    +0.000 HD
BRANCH  21  23
ATOM     23  C   UNL     1       1.152   8.541  21.075  0.00  0.00    +0.000 A 
ATOM     24  C   UNL     1       1.242   9.819  20.518  0.00  0.00    +0.000 A 
ATOM     25  C   UNL     1       0.454  10.870  21.004  0.00  0.00    +0.000 A 
ATOM     26  C   UNL     1      -0.423  10.651  22.060  0.00  0.00    +0.000 A 
ATOM     27 BR   UNL     1      -1.463  12.079  22.729  0.00  0.00    +0.000 Br
ATOM     28  C   UNL     1      -0.530   9.382  22.627  0.00  0.00    +0.000 A 
ATOM     29  C   UNL     1       0.250   8.327  22.123  0.00  0.00    +0.000 A 
ENDBRANCH  21  23
ENDBRANCH  18  19
ENDBRANCH   2  18
TORSDOF 6
ENDMDL
MODEL 8
REMARK VINA RESULT:      -8.1      1.099      1.351
REMARK  Name = 
REMARK  7 active torsions:
REMARK  status: ('A' for Active; 'I' for Inactive)
REMARK    1  A    between atoms: C_1  and  O_2
REMARK    2  A    between atoms: O_2  and  C_3
REMARK    3  A    between atoms: C_6  and  C_7
REMARK    4  A    between atoms: C_7  and  C_8
REMARK    5  A    between atoms: C_9  and  O_10
REMARK    6  A    between atoms: O_10  and  C_11
REMARK    7  A    between atoms: N_13  and  C_14
REMARK                            x       y       z     vdW  Elec       q    Type
REMARK                         _______ _______ _______ _____ _____    ______ ____
ROOT
ATOM      1  C   UNL     1       3.766   3.800  18.699  0.00  0.00    +0.000 C 
ATOM      2  C   UNL     1       2.552   4.714  19.108  0.00  0.00    +0.000 C 
ATOM      3  C   UNL     1       1.423   3.827  19.688  0.00  0.00    +0.000 C 
ATOM      4  C   UNL     1       0.977   2.879  18.562  0.00  0.00    +0.000 C 
ATOM      5  C   UNL     1       2.190   2.057  18.091  0.00  0.00    +0.000 C 
ATOM      6  N   UNL     1       3.405   2.359  18.886  0.00  0.00    +0.000 NA
ATOM      7  C   UNL     1       3.122   2.080  20.306  0.00  0.00    +0.000 C 
ATOM      8  C   UNL     1       1.960   2.938  20.824  0.00  0.00    +0.000 C 
ENDROOT
BRANCH   1   9
ATOM      9  C   UNL     1       5.090   4.269  19.369  0.00  0.00    +0.000 C 
BRANCH   9  13
ATOM     10  C   UNL     1       7.409   7.457  17.580  0.00  0.00    +0.000 A 
ATOM     11  C   UNL     1       7.955   6.722  18.633  0.00  0.00    +0.000 A 
ATOM     12  C   UNL     1       7.265   5.638  19.189  0.00  0.00    +0.000 A 
ATOM     13  C   UNL     1       5.998   5.292  18.720  0.00  0.00    +0.000 A 
ATOM     14  C   UNL     1       5.488   5.994  17.613  0.00  0.00    +0.000 A 
ATOM     15  C   UNL     1       6.182   7.069  17.050  0.00  0.00    +0.000 A 
BRANCH  10  17
ATOM     16  C   UNL     1       8.468   9.493  18.183  0.00  0.00    +0.000 C 
ATOM     17  O   UNL     1       8.149   8.536  17.182  0.00  0.00    +0.000 OA
ENDBRANCH  10  17
ENDBRANCH   9  13
ENDBRANCH   1   9
BRANCH   2  18
ATOM     18  O   UNL     1       2.931   5.735  20.059  0.00  0.00    +0.000 OA
BRANCH  18  19
ATOM     19  C   UNL     1       1.988   6.684  20.325  0.00  0.00    +0.000 C 
ATOM     20  O   UNL     1       1.109   6.552  21.162  0.00  0.00    +0.000 OA
ATOM     21  N   UNL     1       2.147   7.738  19.462  0.00  0.00    +0.000 N 
ATOM     22  H   UNL     1       2.825   7.588  18.728  0.00  0.00    +0.000 HD
BRANCH  21  23
ATOM     23  C   UNL     1       1.375   8.923  19.428  0.00  0.00    +0.000 A 
ATOM     24  C   UNL     1       0.981   9.542  18.239  0.00  0.00    +0.000 A 
ATOM     25  C   UNL     1       0.216  10.715  18.260  0.00  0.00    +0.000 A 
ATOM     26  C   UNL     1      -0.152  11.283  19.475  0.00  0.00    +0.000 A 
ATOM     27 BR   UNL     1      -1.161  12.880  19.497  0.00  0.00    +0.000 Br
ATOM     28  C   UNL     1       0.227  10.679  20.671  0.00  0.00    +0.000 A 
ATOM     29  C   UNL     1       0.980   9.492  20.644  0.00  0.00    +0.000 A 
ENDBRANCH  21  23
ENDBRANCH  18  19
ENDBRANCH   2  18
TORSDOF 6
ENDMDL
MODEL 9
REMARK VINA RESULT:      -8.0      1.795      2.467
REMARK  Name = 
REMARK  7 active torsions:
REMARK  status: ('A' for Active; 'I' for Inactive)
REMARK    1  A    between atoms: C_1  and  O_2
REMARK    2  A    between atoms: O_2  and  C_3
REMARK    3  A    between atoms: C_6  and  C_7
REMARK    4  A    between atoms: C_7  and  C_8
REMARK    5  A    between atoms: C_9  and  O_10
REMARK    6  A    between atoms: O_10  and  C_11
REMARK    7  A    between atoms: N_13  and  C_14
REMARK                            x       y       z     vdW  Elec       q    Type
REMARK                         _______ _______ _______ _____ _____    ______ ____
ROOT
ATOM      1  C   UNL     1       2.818   4.442  18.951  0.00  0.00    +0.000 C 
ATOM      2  C   UNL     1       1.686   5.041  19.865  0.00  0.00    +0.000 C 
ATOM      3  C   UNL     1       1.136   3.925  20.787  0.00  0.00    +0.000 C 
ATOM      4  C   UNL     1       0.523   2.851  19.872  0.00  0.00    +0.000 C 
ATOM      5  C   UNL     1       1.607   2.338  18.908  0.00  0.00    +0.000 C 
ATOM      6  N   UNL     1       2.925   2.964  19.173  0.00  0.00    +0.000 NA
ATOM      7  C   UNL     1       3.309   2.681  20.569  0.00  0.00    +0.000 C 
ATOM      8  C   UNL     1       2.281   3.244  21.558  0.00  0.00    +0.000 C 
ENDROOT
BRANCH   1   9
ATOM      9  C   UNL     1       4.142   5.251  19.070  0.00  0.00    +0.000 C 
BRANCH   9  13
ATOM     10  C   UNL     1       6.947   5.241  15.773  0.00  0.00    +0.000 A 
ATOM     11  C   UNL     1       5.683   5.806  15.594  0.00  0.00    +0.000 A 
ATOM     12  C   UNL     1       4.776   5.893  16.657  0.00  0.00    +0.000 A 
ATOM     13  C   UNL     1       5.108   5.382  17.912  0.00  0.00    +0.000 A 
ATOM     14  C   UNL     1       6.408   4.878  18.098  0.00  0.00    +0.000 A 
ATOM     15  C   UNL     1       7.318   4.803  17.040  0.00  0.00    +0.000 A 
BRANCH  10  17
ATOM     16  C   UNL     1       7.037   4.713  13.460  0.00  0.00    +0.000 C 
ATOM     17  O   UNL     1       7.705   5.147  14.638  0.00  0.00    +0.000 OA
ENDBRANCH  10  17
ENDBRANCH   9  13
ENDBRANCH   1   9
BRANCH   2  18
ATOM     18  O   UNL     1       2.152   6.161  20.651  0.00  0.00    +0.000 OA
BRANCH  18  19
ATOM     19  C   UNL     1       1.271   7.191  20.804  0.00  0.00    +0.000 C 
ATOM     20  O   UNL     1       0.217   7.098  21.414  0.00  0.00    +0.000 OA
ATOM     21  N   UNL     1       1.724   8.284  20.111  0.00  0.00    +0.000 N 
ATOM     22  H   UNL     1       2.532   8.113  19.529  0.00  0.00    +0.000 HD
BRANCH  21  23
ATOM     23  C   UNL     1       1.100   9.552  20.035  0.00  0.00    +0.000 A 
ATOM     24  C   UNL     1       0.991  10.415  21.128  0.00  0.00    +0.000 A 
ATOM     25  C   UNL     1       0.365  11.661  20.998  0.00  0.00    +0.000 A 
ATOM     26  C   UNL     1      -0.167  12.048  19.773  0.00  0.00    +0.000 A 
ATOM     27 BR   UNL     1      -1.034  13.718  19.611  0.00  0.00    +0.000 Br
ATOM     28  C   UNL     1      -0.064  11.203  18.670  0.00  0.00    +0.000 A 
ATOM     29  C   UNL     1       0.581   9.962  18.801  0.00  0.00    +0.000 A 
ENDBRANCH  21  23
ENDBRANCH  18  19
ENDBRANCH   2  18
TORSDOF 6
ENDMDL
