MODEL 1
REMARK VINA RESULT:      -8.9      0.000      0.000
REMARK  Name = 
REMARK  5 active torsions:
REMARK  status: ('A' for Active; 'I' for Inactive)
REMARK    1  A    between atoms: N_7  and  C_8
REMARK    2  A    between atoms: C_8  and  C_9
REMARK    3  A    between atoms: C_9  and  C_10
REMARK    4  A    between atoms: C_10  and  C_11
REMARK    5  A    between atoms: C_11  and  N_12
REMARK                            x       y       z     vdW  Elec       q    Type
REMARK                         _______ _______ _______ _____ _____    ______ ____
ROOT
ATOM      1  C   UNL     1       7.627   8.492  17.571  0.00  0.00    +0.000 C 
ENDROOT
BRANCH   1   2
ATOM      2  C   UNL     1       7.634   6.966  17.503  0.00  0.00    +0.000 C 
BRANCH   2   9
ATOM      3  O   UNL     1       6.796   5.349  19.887  0.00  0.00    +0.000 OA
ATOM      4  C   UNL     1       6.203   5.427  18.829  0.00  0.00    +0.000 C 
ATOM      5  C   UNL     1       5.208   4.482  18.260  0.00  0.00    +0.000 C 
ATOM      6  C   UNL     1       4.227   5.516  17.724  0.00  0.00    +0.000 C 
ATOM      7  C   UNL     1       5.259   6.277  16.904  0.00  0.00    +0.000 C 
ATOM      8  O   UNL     1       5.135   6.712  15.788  0.00  0.00    +0.000 OA
ATOM      9  N   UNL     1       6.353   6.345  17.782  0.00  0.00    +0.000 N 
ATOM     10  C   UNL     1       2.977   4.659  17.508  0.00  0.00    +0.000 C 
ATOM     11  C   UNL     1       2.266   4.624  18.897  0.00  0.00    +0.000 C 
ATOM     12  C   UNL     1       3.291   3.884  19.792  0.00  0.00    +0.000 C 
ATOM     13  C   UNL     1       4.328   3.376  18.788  0.00  0.00    +0.000 C 
ATOM     14  C   UNL     1       3.476   3.202  17.507  0.00  0.00    +0.000 C 
ENDBRANCH   2   9
ENDBRANCH   1   2
BRANCH   1  15
ATOM     15  C   UNL     1       8.628   9.029  18.611  0.00  0.00    +0.000 C 
BRANCH  15  16
ATOM     16  C   UNL     1       9.186  10.459  18.391  0.00  0.00    +0.000 C 
BRANCH  16  17
ATOM     17  N   UNL     1      10.076  10.982  19.441  0.00  0.00    +0.000 NA
ATOM     18  C   UNL     1      11.269  11.661  18.895  0.00  0.00    +0.000 C 
ATOM     19  C   UNL     1      10.942  12.963  18.145  0.00  0.00    +0.000 C 
ATOM     20  N   UNL     1      10.324  13.912  19.070  0.00  0.00    +0.000 N 
ATOM     21  C   UNL     1      10.293  15.207  18.570  0.00  0.00    +0.000 A 
ATOM     22  N   UNL     1      10.655  15.390  17.282  0.00  0.00    +0.000 NA
ATOM     23  C   UNL     1      10.988  16.625  16.879  0.00  0.00    +0.000 A 
ATOM     24  C   UNL     1      10.964  17.709  17.708  0.00  0.00    +0.000 A 
ATOM     25  C   UNL     1      10.498  17.457  18.977  0.00  0.00    +0.000 A 
ATOM     26  N   UNL     1      10.139  16.231  19.423  0.00  0.00    +0.000 NA
ATOM     27  C   UNL     1       9.121  13.410  19.743  0.00  0.00    +0.000 C 
ATOM     28  C   UNL     1       9.384  11.976  20.327  0.00  0.00    +0.000 C 
ENDBRANCH  16  17
ENDBRANCH  15  16
ENDBRANCH   1  15
TORSDOF 5
ENDMDL
MODEL 2
REMARK VINA RESULT:      -8.7      0.690      1.873
REMARK  Name = 
REMARK  5 active torsions:
REMARK  status: ('A' for Active; 'I' for Inactive)
REMARK    1  A    between atoms: N_7  and  C_8
REMARK    2  A    between atoms: C_8  and  C_9
REMARK    3  A    between atoms: C_9  and  C_10
REMARK    4  A    between atoms: C_10  and  C_11
REMARK    5  A    between atoms: C_11  and  N_12
REMARK                            x       y       z     vdW  Elec       q    Type
REMARK                         _______ _______ _______ _____ _____    ______ ____
ROOT
ATOM      1  C   UNL     1       7.618   8.511  17.606  0.00  0.00    +0.000 C 
ENDROOT
BRANCH   1   2
ATOM      2  C   UNL     1       7.746   6.999  17.427  0.00  0.00    +0.000 C 
BRANCH   2   9
ATOM      3  O   UNL     1       5.156   6.765  15.932  0.00  0.00    +0.000 OA
ATOM      4  C   UNL     1       5.350   6.437  17.085  0.00  0.00    +0.000 C 
ATOM      5  C   UNL     1       4.352   6.255  18.171  0.00  0.00    +0.000 C 
ATOM      6  C   UNL     1       4.938   4.987  18.778  0.00  0.00    +0.000 C 
ATOM      7  C   UNL     1       6.334   5.560  18.979  0.00  0.00    +0.000 C 
ATOM      8  O   UNL     1       7.052   5.427  19.936  0.00  0.00    +0.000 OA
ATOM      9  N   UNL     1       6.555   6.248  17.774  0.00  0.00    +0.000 N 
ATOM     10  C   UNL     1       3.760   4.484  19.616  0.00  0.00    +0.000 C 
ATOM     11  C   UNL     1       2.877   3.667  18.621  0.00  0.00    +0.000 C 
ATOM     12  C   UNL     1       2.411   4.741  17.607  0.00  0.00    +0.000 C 
ATOM     13  C   UNL     1       2.860   6.052  18.257  0.00  0.00    +0.000 C 
ATOM     14  C   UNL     1       2.819   5.694  19.763  0.00  0.00    +0.000 C 
ENDBRANCH   2   9
ENDBRANCH   1   2
BRANCH   1  15
ATOM     15  C   UNL     1       8.647   9.064  18.609  0.00  0.00    +0.000 C 
BRANCH  15  16
ATOM     16  C   UNL     1       9.075  10.545  18.447  0.00  0.00    +0.000 C 
BRANCH  16  17
ATOM     17  N   UNL     1      10.394  10.909  18.991  0.00  0.00    +0.000 NA
ATOM     18  C   UNL     1      11.226  11.657  18.026  0.00  0.00    +0.000 C 
ATOM     19  C   UNL     1      10.675  13.055  17.699  0.00  0.00    +0.000 C 
ATOM     20  N   UNL     1      10.647  13.860  18.919  0.00  0.00    +0.000 N 
ATOM     21  C   UNL     1      10.474  15.214  18.665  0.00  0.00    +0.000 A 
ATOM     22  N   UNL     1      10.188  15.582  17.397  0.00  0.00    +0.000 NA
ATOM     23  C   UNL     1      10.375  16.862  17.043  0.00  0.00    +0.000 A 
ATOM     24  C   UNL     1      10.830  17.814  17.909  0.00  0.00    +0.000 A 
ATOM     25  C   UNL     1      11.012  17.381  19.201  0.00  0.00    +0.000 A 
ATOM     26  N   UNL     1      10.822  16.104  19.607  0.00  0.00    +0.000 NA
ATOM     27  C   UNL     1       9.880  13.269  20.021  0.00  0.00    +0.000 C 
ATOM     28  C   UNL     1      10.285  11.764  20.218  0.00  0.00    +0.000 C 
ENDBRANCH  16  17
ENDBRANCH  15  16
ENDBRANCH   1  15
TORSDOF 5
ENDMDL
MODEL 3
REMARK VINA RESULT:      -8.4      2.590     10.874
REMARK  Name = 
REMARK  5 active torsions:
REMARK  status: ('A' for Active; 'I' for Inactive)
REMARK    1  A    between atoms: N_7  and  C_8
REMARK    2  A    between atoms: C_8  and  C_9
REMARK    3  A    between atoms: C_9  and  C_10
REMARK    4  A    between atoms: C_10  and  C_11
REMARK    5  A    between atoms: C_11  and  N_12
REMARK                            x       y       z     vdW  Elec       q    Type
REMARK                         _______ _______ _______ _____ _____    ______ ____
ROOT
ATOM      1  C   UNL     1       8.411   9.582  18.208  0.00  0.00    +0.000 C 
ENDROOT
BRANCH   1   2
ATOM      2  C   UNL     1       9.418  10.055  19.254  0.00  0.00    +0.000 C 
BRANCH   2   9
ATOM      3  O   UNL     1       8.312  12.198  17.470  0.00  0.00    +0.000 OA
ATOM      4  C   UNL     1       9.388  12.219  18.034  0.00  0.00    +0.000 C 
ATOM      5  C   UNL     1      10.589  13.026  17.696  0.00  0.00    +0.000 C 
ATOM      6  C   UNL     1      10.980  13.416  19.115  0.00  0.00    +0.000 C 
ATOM      7  C   UNL     1      11.022  11.990  19.647  0.00  0.00    +0.000 C 
ATOM      8  O   UNL     1      11.844  11.503  20.378  0.00  0.00    +0.000 OA
ATOM      9  N   UNL     1       9.867  11.423  19.081  0.00  0.00    +0.000 N 
ATOM     10  C   UNL     1      11.934  14.584  18.853  0.00  0.00    +0.000 C 
ATOM     11  C   UNL     1      11.011  15.834  18.704  0.00  0.00    +0.000 C 
ATOM     12  C   UNL     1      10.183  15.505  17.437  0.00  0.00    +0.000 C 
ATOM     13  C   UNL     1      10.878  14.261  16.879  0.00  0.00    +0.000 C 
ATOM     14  C   UNL     1      12.333  14.459  17.371  0.00  0.00    +0.000 C 
ENDBRANCH   2   9
ENDBRANCH   1   2
BRANCH   1  15
ATOM     15  C   UNL     1       8.198   8.057  18.257  0.00  0.00    +0.000 C 
BRANCH  15  16
ATOM     16  C   UNL     1       7.061   7.468  17.383  0.00  0.00    +0.000 C 
BRANCH  16  17
ATOM     17  N   UNL     1       7.071   6.007  17.194  0.00  0.00    +0.000 NA
ATOM     18  C   UNL     1       6.906   5.264  18.460  0.00  0.00    +0.000 C 
ATOM     19  C   UNL     1       5.519   5.444  19.099  0.00  0.00    +0.000 C 
ATOM     20  N   UNL     1       4.498   4.925  18.190  0.00  0.00    +0.000 N 
ATOM     21  C   UNL     1       3.267   4.750  18.809  0.00  0.00    +0.000 A 
ATOM     22  N   UNL     1       3.124   5.226  20.064  0.00  0.00    +0.000 NA
ATOM     23  C   UNL     1       2.111   4.766  20.813  0.00  0.00    +0.000 A 
ATOM     24  C   UNL     1       1.208   3.849  20.358  0.00  0.00    +0.000 A 
ATOM     25  C   UNL     1       1.368   3.482  19.043  0.00  0.00    +0.000 A 
ATOM     26  N   UNL     1       2.367   3.930  18.247  0.00  0.00    +0.000 NA
ATOM     27  C   UNL     1       4.512   5.528  16.853  0.00  0.00    +0.000 C 
ATOM     28  C   UNL     1       5.974   5.547  16.280  0.00  0.00    +0.000 C 
ENDBRANCH  16  17
ENDBRANCH  15  16
ENDBRANCH   1  15
TORSDOF 5
ENDMDL
MODEL 4
REMARK VINA RESULT:      -8.3      6.007      9.001
REMARK  Name = 
REMARK  5 active torsions:
REMARK  status: ('A' for Active; 'I' for Inactive)
REMARK    1  A    between atoms: N_7  and  C_8
REMARK    2  A    between atoms: C_8  and  C_9
REMARK    3  A    between atoms: C_9  and  C_10
REMARK    4  A    between atoms: C_10  and  C_11
REMARK    5  A    between atoms: C_11  and  N_12
REMARK                            x       y       z     vdW  Elec       q    Type
REMARK                         _______ _______ _______ _____ _____    ______ ____
ROOT
ATOM      1  C   UNL     1       0.872   4.720  20.418  0.00  0.00    +0.000 C 
ENDROOT
BRANCH   1   2
ATOM      2  C   UNL     1       2.031   5.652  20.766  0.00  0.00    +0.000 C 
BRANCH   2   9
ATOM      3  O   UNL     1       1.317   8.261  22.064  0.00  0.00    +0.000 OA
ATOM      4  C   UNL     1       1.363   8.043  20.869  0.00  0.00    +0.000 C 
ATOM      5  C   UNL     1       0.703   8.794  19.771  0.00  0.00    +0.000 C 
ATOM      6  C   UNL     1       1.866   8.785  18.788  0.00  0.00    +0.000 C 
ATOM      7  C   UNL     1       2.055   7.275  18.807  0.00  0.00    +0.000 C 
ATOM      8  O   UNL     1       2.263   6.549  17.870  0.00  0.00    +0.000 OA
ATOM      9  N   UNL     1       1.940   6.973  20.174  0.00  0.00    +0.000 N 
ATOM     10  C   UNL     1       1.444   9.889  17.815  0.00  0.00    +0.000 C 
ATOM     11  C   UNL     1       1.936  11.217  18.471  0.00  0.00    +0.000 C 
ATOM     12  C   UNL     1       1.105  11.287  19.776  0.00  0.00    +0.000 C 
ATOM     13  C   UNL     1       0.085  10.160  19.601  0.00  0.00    +0.000 C 
ATOM     14  C   UNL     1      -0.062  10.095  18.061  0.00  0.00    +0.000 C 
ENDBRANCH   2   9
ENDBRANCH   1   2
BRANCH   1  15
ATOM     15  C   UNL     1       1.337   3.264  20.229  0.00  0.00    +0.000 C 
BRANCH  15  16
ATOM     16  C   UNL     1       1.644   2.797  18.783  0.00  0.00    +0.000 C 
BRANCH  16  17
ATOM     17  N   UNL     1       2.905   2.061  18.586  0.00  0.00    +0.000 NA
ATOM     18  C   UNL     1       3.639   2.493  17.380  0.00  0.00    +0.000 C 
ATOM     19  C   UNL     1       4.178   3.931  17.474  0.00  0.00    +0.000 C 
ATOM     20  N   UNL     1       5.130   4.018  18.580  0.00  0.00    +0.000 N 
ATOM     21  C   UNL     1       5.897   5.175  18.536  0.00  0.00    +0.000 A 
ATOM     22  N   UNL     1       5.564   6.115  17.626  0.00  0.00    +0.000 NA
ATOM     23  C   UNL     1       6.472   7.049  17.307  0.00  0.00    +0.000 A 
ATOM     24  C   UNL     1       7.714   7.101  17.870  0.00  0.00    +0.000 A 
ATOM     25  C   UNL     1       7.944   6.166  18.852  0.00  0.00    +0.000 A 
ATOM     26  N   UNL     1       7.053   5.215  19.216  0.00  0.00    +0.000 NA
ATOM     27  C   UNL     1       4.591   3.603  19.879  0.00  0.00    +0.000 C 
ATOM     28  C   UNL     1       3.844   2.229  19.744  0.00  0.00    +0.000 C 
ENDBRANCH  16  17
ENDBRANCH  15  16
ENDBRANCH   1  15
TORSDOF 5
ENDMDL
MODEL 5
REMARK VINA RESULT:      -8.3      1.328      2.181
REMARK  Name = 
REMARK  5 active torsions:
REMARK  status: ('A' for Active; 'I' for Inactive)
REMARK    1  A    between atoms: N_7  and  C_8
REMARK    2  A    between atoms: C_8  and  C_9
REMARK    3  A    between atoms: C_9  and  C_10
REMARK    4  A    between atoms: C_10  and  C_11
REMARK    5  A    between atoms: C_11  and  N_12
REMARK                            x       y       z     vdW  Elec       q    Type
REMARK                         _______ _______ _______ _____ _____    ______ ____
ROOT
ATOM      1  C   UNL     1       7.300   7.644  17.209  0.00  0.00    +0.000 C 
ENDROOT
BRANCH   1   2
ATOM      2  C   UNL     1       7.408   6.121  17.156  0.00  0.00    +0.000 C 
BRANCH   2   9
ATOM      3  O   UNL     1       4.975   5.268  15.623  0.00  0.00    +0.000 OA
ATOM      4  C   UNL     1       5.083   5.307  16.832  0.00  0.00    +0.000 C 
ATOM      5  C   UNL     1       4.003   5.377  17.851  0.00  0.00    +0.000 C 
ATOM      6  C   UNL     1       4.597   4.389  18.847  0.00  0.00    +0.000 C 
ATOM      7  C   UNL     1       5.939   5.098  18.964  0.00  0.00    +0.000 C 
ATOM      8  O   UNL     1       6.575   5.305  19.965  0.00  0.00    +0.000 OA
ATOM      9  N   UNL     1       6.230   5.418  17.628  0.00  0.00    +0.000 N 
ATOM     10  C   UNL     1       3.377   4.066  19.712  0.00  0.00    +0.000 C 
ATOM     11  C   UNL     1       2.628   2.930  18.947  0.00  0.00    +0.000 C 
ATOM     12  C   UNL     1       2.199   3.623  17.630  0.00  0.00    +0.000 C 
ATOM     13  C   UNL     1       2.521   5.096  17.890  0.00  0.00    +0.000 C 
ATOM     14  C   UNL     1       2.366   5.193  19.428  0.00  0.00    +0.000 C 
ENDBRANCH   2   9
ENDBRANCH   1   2
BRANCH   1  15
ATOM     15  C   UNL     1       8.244   8.255  18.262  0.00  0.00    +0.000 C 
BRANCH  15  16
ATOM     16  C   UNL     1       8.430   9.794  18.245  0.00  0.00    +0.000 C 
BRANCH  16  17
ATOM     17  N   UNL     1       9.735  10.301  18.703  0.00  0.00    +0.000 NA
ATOM     18  C   UNL     1      10.274  11.365  17.832  0.00  0.00    +0.000 C 
ATOM     19  C   UNL     1       9.451  12.664  17.874  0.00  0.00    +0.000 C 
ATOM     20  N   UNL     1       9.469  13.204  19.232  0.00  0.00    +0.000 N 
ATOM     21  C   UNL     1       9.034  14.521  19.292  0.00  0.00    +0.000 A 
ATOM     22  N   UNL     1       8.503  15.057  18.172  0.00  0.00    +0.000 NA
ATOM     23  C   UNL     1       8.416  16.392  18.080  0.00  0.00    +0.000 A 
ATOM     24  C   UNL     1       8.826  17.235  19.072  0.00  0.00    +0.000 A 
ATOM     25  C   UNL     1       9.270  16.611  20.214  0.00  0.00    +0.000 A 
ATOM     26  N   UNL     1       9.362  15.268  20.357  0.00  0.00    +0.000 NA
ATOM     27  C   UNL     1       8.987  12.277  20.261  0.00  0.00    +0.000 C 
ATOM     28  C   UNL     1       9.666  10.872  20.088  0.00  0.00    +0.000 C 
ENDBRANCH  16  17
ENDBRANCH  15  16
ENDBRANCH   1  15
TORSDOF 5
ENDMDL
MODEL 6
REMARK VINA RESULT:      -8.2      2.736     10.991
REMARK  Name = 
REMARK  5 active torsions:
REMARK  status: ('A' for Active; 'I' for Inactive)
REMARK    1  A    between atoms: N_7  and  C_8
REMARK    2  A    between atoms: C_8  and  C_9
REMARK    3  A    between atoms: C_9  and  C_10
REMARK    4  A    between atoms: C_10  and  C_11
REMARK    5  A    between atoms: C_11  and  N_12
REMARK                            x       y       z     vdW  Elec       q    Type
REMARK                         _______ _______ _______ _____ _____    ______ ____
ROOT
ATOM      1  C   UNL     1       8.660   9.788  18.230  0.00  0.00    +0.000 C 
ENDROOT
BRANCH   1   2
ATOM      2  C   UNL     1       9.354  10.333  19.477  0.00  0.00    +0.000 C 
BRANCH   2   9
ATOM      3  O   UNL     1       8.357  13.090  20.116  0.00  0.00    +0.000 OA
ATOM      4  C   UNL     1       9.315  12.817  19.420  0.00  0.00    +0.000 C 
ATOM      5  C   UNL     1       9.971  13.658  18.386  0.00  0.00    +0.000 C 
ATOM      6  C   UNL     1      11.415  13.327  18.736  0.00  0.00    +0.000 C 
ATOM      7  C   UNL     1      11.241  11.818  18.637  0.00  0.00    +0.000 C 
ATOM      8  O   UNL     1      11.992  11.024  18.131  0.00  0.00    +0.000 OA
ATOM      9  N   UNL     1      10.014  11.611  19.289  0.00  0.00    +0.000 N 
ATOM     10  C   UNL     1      12.163  14.457  18.026  0.00  0.00    +0.000 C 
ATOM     11  C   UNL     1      12.135  15.653  19.029  0.00  0.00    +0.000 C 
ATOM     12  C   UNL     1      10.625  15.978  19.139  0.00  0.00    +0.000 C 
ATOM     13  C   UNL     1      10.003  15.125  18.032  0.00  0.00    +0.000 C 
ATOM     14  C   UNL     1      11.161  15.033  17.008  0.00  0.00    +0.000 C 
ENDBRANCH   2   9
ENDBRANCH   1   2
BRANCH   1  15
ATOM     15  C   UNL     1       8.302   8.297  18.372  0.00  0.00    +0.000 C 
BRANCH  15  16
ATOM     16  C   UNL     1       7.246   7.722  17.393  0.00  0.00    +0.000 C 
BRANCH  16  17
ATOM     17  N   UNL     1       7.510   6.373  16.865  0.00  0.00    +0.000 NA
ATOM     18  C   UNL     1       7.551   5.341  17.921  0.00  0.00    +0.000 C 
ATOM     19  C   UNL     1       6.191   5.104  18.597  0.00  0.00    +0.000 C 
ATOM     20  N   UNL     1       5.233   4.625  17.602  0.00  0.00    +0.000 N 
ATOM     21  C   UNL     1       4.090   4.084  18.174  0.00  0.00    +0.000 A 
ATOM     22  N   UNL     1       3.930   4.223  19.507  0.00  0.00    +0.000 NA
ATOM     23  C   UNL     1       3.058   3.421  20.135  0.00  0.00    +0.000 A 
ATOM     24  C   UNL     1       2.313   2.479  19.486  0.00  0.00    +0.000 A 
ATOM     25  C   UNL     1       2.466   2.461  18.120  0.00  0.00    +0.000 A 
ATOM     26  N   UNL     1       3.323   3.261  17.443  0.00  0.00    +0.000 NA
ATOM     27  C   UNL     1       5.066   5.511  16.445  0.00  0.00    +0.000 C 
ATOM     28  C   UNL     1       6.467   5.936  15.878  0.00  0.00    +0.000 C 
ENDBRANCH  16  17
ENDBRANCH  15  16
ENDBRANCH   1  15
TORSDOF 5
ENDMDL
MODEL 7
REMARK VINA RESULT:      -8.2      2.699     11.029
REMARK  Name = 
REMARK  5 active torsions:
REMARK  status: ('A' for Active; 'I' for Inactive)
REMARK    1  A    between atoms: N_7  and  C_8
REMARK    2  A    between atoms: C_8  and  C_9
REMARK    3  A    between atoms: C_9  and  C_10
REMARK    4  A    between atoms: C_10  and  C_11
REMARK    5  A    between atoms: C_11  and  N_12
REMARK                            x       y       z     vdW  Elec       q    Type
REMARK                         _______ _______ _______ _____ _____    ______ ____
ROOT
ATOM      1  C   UNL     1       8.720   9.805  18.220  0.00  0.00    +0.000 C 
ENDROOT
BRANCH   1   2
ATOM      2  C   UNL     1       9.408  10.461  19.416  0.00  0.00    +0.000 C 
BRANCH   2   9
ATOM      3  O   UNL     1      11.485  11.640  17.600  0.00  0.00    +0.000 OA
ATOM      4  C   UNL     1      10.918  12.213  18.508  0.00  0.00    +0.000 C 
ATOM      5  C   UNL     1      11.352  13.430  19.241  0.00  0.00    +0.000 C 
ATOM      6  C   UNL     1       9.996  14.121  19.313  0.00  0.00    +0.000 C 
ATOM      7  C   UNL     1       9.272  12.944  19.950  0.00  0.00    +0.000 C 
ATOM      8  O   UNL     1       8.471  12.974  20.848  0.00  0.00    +0.000 OA
ATOM      9  N   UNL     1       9.765  11.852  19.216  0.00  0.00    +0.000 N 
ATOM     10  C   UNL     1      10.408  15.554  19.658  0.00  0.00    +0.000 C 
ATOM     11  C   UNL     1      10.739  16.222  18.287  0.00  0.00    +0.000 C 
ATOM     12  C   UNL     1      11.957  15.405  17.788  0.00  0.00    +0.000 C 
ATOM     13  C   UNL     1      12.329  14.555  19.005  0.00  0.00    +0.000 C 
ATOM     14  C   UNL     1      11.855  15.449  20.178  0.00  0.00    +0.000 C 
ENDBRANCH   2   9
ENDBRANCH   1   2
BRANCH   1  15
ATOM     15  C   UNL     1       8.447   8.308  18.459  0.00  0.00    +0.000 C 
BRANCH  15  16
ATOM     16  C   UNL     1       7.376   7.628  17.568  0.00  0.00    +0.000 C 
BRANCH  16  17
ATOM     17  N   UNL     1       7.569   6.195  17.291  0.00  0.00    +0.000 NA
ATOM     18  C   UNL     1       7.335   5.345  18.476  0.00  0.00    +0.000 C 
ATOM     19  C   UNL     1       5.869   5.334  18.941  0.00  0.00    +0.000 C 
ATOM     20  N   UNL     1       5.029   4.785  17.877  0.00  0.00    +0.000 N 
ATOM     21  C   UNL     1       3.759   4.440  18.321  0.00  0.00    +0.000 A 
ATOM     22  N   UNL     1       3.413   4.803  19.574  0.00  0.00    +0.000 NA
ATOM     23  C   UNL     1       2.373   4.187  20.156  0.00  0.00    +0.000 A 
ATOM     24  C   UNL     1       1.639   3.220  19.532  0.00  0.00    +0.000 A 
ATOM     25  C   UNL     1       1.996   2.972  18.228  0.00  0.00    +0.000 A 
ATOM     26  N   UNL     1       3.029   3.578  17.597  0.00  0.00    +0.000 NA
ATOM     27  C   UNL     1       5.139   5.486  16.594  0.00  0.00    +0.000 C 
ATOM     28  C   UNL     1       6.648   5.696  16.216  0.00  0.00    +0.000 C 
ENDBRANCH  16  17
ENDBRANCH  15  16
ENDBRANCH   1  15
TORSDOF 5
ENDMDL
MODEL 8
REMARK VINA RESULT:      -8.1      7.229      9.109
REMARK  Name = 
REMARK  5 active torsions:
REMARK  status: ('A' for Active; 'I' for Inactive)
REMARK    1  A    between atoms: N_7  and  C_8
REMARK    2  A    between atoms: C_8  and  C_9
REMARK    3  A    between atoms: C_9  and  C_10
REMARK    4  A    between atoms: C_10  and  C_11
REMARK    5  A    between atoms: C_11  and  N_12
REMARK                            x       y       z     vdW  Elec       q    Type
REMARK                         _______ _______ _______ _____ _____    ______ ____
ROOT
ATOM      1  C   UNL     1       1.711   8.586  17.660  0.00  0.00    +0.000 C 
ENDROOT
BRANCH   1   2
ATOM      2  C   UNL     1       3.025   7.909  18.043  0.00  0.00    +0.000 C 
BRANCH   2   9
ATOM      3  O   UNL     1       3.728   5.128  17.165  0.00  0.00    +0.000 OA
ATOM      4  C   UNL     1       3.030   5.425  18.113  0.00  0.00    +0.000 C 
ATOM      5  C   UNL     1       2.018   4.588  18.809  0.00  0.00    +0.000 C 
ATOM      6  C   UNL     1       2.366   4.991  20.237  0.00  0.00    +0.000 C 
ATOM      7  C   UNL     1       2.228   6.488  19.997  0.00  0.00    +0.000 C 
ATOM      8  O   UNL     1       1.706   7.301  20.715  0.00  0.00    +0.000 OA
ATOM      9  N   UNL     1       2.871   6.657  18.759  0.00  0.00    +0.000 N 
ATOM     10  C   UNL     1       1.686   3.877  21.036  0.00  0.00    +0.000 C 
ATOM     11  C   UNL     1       2.718   2.706  21.056  0.00  0.00    +0.000 C 
ATOM     12  C   UNL     1       2.832   2.318  19.561  0.00  0.00    +0.000 C 
ATOM     13  C   UNL     1       1.701   3.116  18.907  0.00  0.00    +0.000 C 
ATOM     14  C   UNL     1       0.679   3.234  20.064  0.00  0.00    +0.000 C 
ENDBRANCH   2   9
ENDBRANCH   1   2
BRANCH   1  15
ATOM     15  C   UNL     1       1.746  10.104  17.913  0.00  0.00    +0.000 C 
BRANCH  15  16
ATOM     16  C   UNL     1       1.146  10.618  19.247  0.00  0.00    +0.000 C 
BRANCH  16  17
ATOM     17  N   UNL     1      -0.143  10.033  19.653  0.00  0.00    +0.000 NA
ATOM     18  C   UNL     1      -0.307   9.968  21.120  0.00  0.00    +0.000 C 
ATOM     19  C   UNL     1      -0.418  11.351  21.784  0.00  0.00    +0.000 C 
ATOM     20  N   UNL     1      -1.604  12.037  21.274  0.00  0.00    +0.000 N 
ATOM     21  C   UNL     1      -1.960  13.138  22.043  0.00  0.00    +0.000 A 
ATOM     22  N   UNL     1      -1.105  13.526  23.014  0.00  0.00    +0.000 NA
ATOM     23  C   UNL     1      -1.564  14.323  23.990  0.00  0.00    +0.000 A 
ATOM     24  C   UNL     1      -2.852  14.772  24.040  0.00  0.00    +0.000 A 
ATOM     25  C   UNL     1      -3.633  14.408  22.969  0.00  0.00    +0.000 A 
ATOM     26  N   UNL     1      -3.209  13.617  21.956  0.00  0.00    +0.000 NA
ATOM     27  C   UNL     1      -1.642  12.182  19.815  0.00  0.00    +0.000 C 
ATOM     28  C   UNL     1      -1.311  10.811  19.124  0.00  0.00    +0.000 C 
ENDBRANCH  16  17
ENDBRANCH  15  16
ENDBRANCH   1  15
TORSDOF 5
ENDMDL
MODEL 9
REMARK VINA RESULT:      -8.1      1.008      1.042
REMARK  Name = 
REMARK  5 active torsions:
REMARK  status: ('A' for Active; 'I' for Inactive)
REMARK    1  A    between atoms: N_7  and  C_8
REMARK    2  A    between atoms: C_8  and  C_9
REMARK    3  A    between atoms: C_9  and  C_10
REMARK    4  A    between atoms: C_10  and  C_11
REMARK    5  A    between atoms: C_11  and  N_12
REMARK                            x       y       z     vdW  Elec       q    Type
REMARK                         _______ _______ _______ _____ _____    ______ ____
ROOT
ATOM      1  C   UNL     1       8.095   7.514  18.333  0.00  0.00    +0.000 C 
ENDROOT
BRANCH   1   2
ATOM      2  C   UNL     1       7.405   6.520  17.400  0.00  0.00    +0.000 C 
BRANCH   2   9
ATOM      3  O   UNL     1       6.584   4.957  19.826  0.00  0.00    +0.000 OA
ATOM      4  C   UNL     1       5.892   5.191  18.855  0.00  0.00    +0.000 C 
ATOM      5  C   UNL     1       4.681   4.465  18.392  0.00  0.00    +0.000 C 
ATOM      6  C   UNL     1       3.845   5.681  18.014  0.00  0.00    +0.000 C 
ATOM      7  C   UNL     1       4.890   6.289  17.091  0.00  0.00    +0.000 C 
ATOM      8  O   UNL     1       4.713   6.795  16.013  0.00  0.00    +0.000 OA
ATOM      9  N   UNL     1       6.077   6.120  17.824  0.00  0.00    +0.000 N 
ATOM     10  C   UNL     1       2.444   5.069  17.936  0.00  0.00    +0.000 C 
ATOM     11  C   UNL     1       1.912   5.088  19.404  0.00  0.00    +0.000 C 
ATOM     12  C   UNL     1       2.887   4.136  20.139  0.00  0.00    +0.000 C 
ATOM     13  C   UNL     1       3.687   3.505  18.997  0.00  0.00    +0.000 C 
ATOM     14  C   UNL     1       2.669   3.548  17.830  0.00  0.00    +0.000 C 
ENDBRANCH   2   9
ENDBRANCH   1   2
BRANCH   1  15
ATOM     15  C   UNL     1       8.246   8.904  17.687  0.00  0.00    +0.000 C 
BRANCH  15  16
ATOM     16  C   UNL     1       8.456  10.112  18.636  0.00  0.00    +0.000 C 
BRANCH  16  17
ATOM     17  N   UNL     1       9.848  10.534  18.860  0.00  0.00    +0.000 NA
ATOM     18  C   UNL     1      10.332  11.482  17.835  0.00  0.00    +0.000 C 
ATOM     19  C   UNL     1       9.626  12.847  17.883  0.00  0.00    +0.000 C 
ATOM     20  N   UNL     1       9.885  13.481  19.174  0.00  0.00    +0.000 N 
ATOM     21  C   UNL     1       9.565  14.832  19.183  0.00  0.00    +0.000 A 
ATOM     22  N   UNL     1       8.917  15.329  18.108  0.00  0.00    +0.000 NA
ATOM     23  C   UNL     1       8.918  16.656  17.916  0.00  0.00    +0.000 A 
ATOM     24  C   UNL     1       9.534  17.529  18.765  0.00  0.00    +0.000 A 
ATOM     25  C   UNL     1      10.092  16.954  19.882  0.00  0.00    +0.000 A 
ATOM     26  N   UNL     1      10.103  15.622  20.123  0.00  0.00    +0.000 NA
ATOM     27  C   UNL     1       9.491  12.676  20.336  0.00  0.00    +0.000 C 
ATOM     28  C   UNL     1      10.029  11.208  20.188  0.00  0.00    +0.000 C 
ENDBRANCH  16  17
ENDBRANCH  15  16
ENDBRANCH   1  15
TORSDOF 5
ENDMDL
