MODEL 1
REMARK VINA RESULT:      -7.4      0.000      0.000
REMARK  Name = 
REMARK  3 active torsions:
REMARK  status: ('A' for Active; 'I' for Inactive)
REMARK    1  A    between atoms: C_1  and  N_2
REMARK    2  A    between atoms: C_8  and  C_9
REMARK    3  A    between atoms: C_16  and  C_17
REMARK                            x       y       z     vdW  Elec       q    Type
REMARK                         _______ _______ _______ _____ _____    ______ ____
ROOT
ATOM      1  C   UNL     1       1.465   2.731  21.393  0.00  0.00    +0.000 C 
ATOM      2  N   UNL     1       1.722   3.232  20.045  0.00  0.00    +0.000 NA
ATOM      3  C   UNL     1       2.723   2.383  19.349  0.00  0.00    +0.000 C 
ATOM      4  C   UNL     1       3.122   2.920  17.943  0.00  0.00    +0.000 C 
ATOM      5  N   UNL     1       3.565   4.301  18.109  0.00  0.00    +0.000 N 
ATOM      6  C   UNL     1       4.557   4.831  17.313  0.00  0.00    +0.000 A 
ATOM      7  C   UNL     1       5.320   5.850  17.838  0.00  0.00    +0.000 A 
ATOM      8  C   UNL     1       6.377   6.335  17.103  0.00  0.00    +0.000 A 
ATOM      9  N   UNL     1       6.637   5.877  15.866  0.00  0.00    +0.000 NA
ATOM     10  C   UNL     1       5.847   4.882  15.409  0.00  0.00    +0.000 A 
ATOM     11  N   UNL     1       4.833   4.320  16.106  0.00  0.00    +0.000 NA
ATOM     12  C   UNL     1       2.557   5.184  18.707  0.00  0.00    +0.000 C 
ATOM     13  C   UNL     1       2.197   4.634  20.103  0.00  0.00    +0.000 C 
ENDROOT
BRANCH   8  14
ATOM     14  C   UNL     1       7.254   7.386  17.649  0.00  0.00    +0.000 A 
ATOM     15  C   UNL     1       8.170   7.111  18.678  0.00  0.00    +0.000 A 
ATOM     16  C   UNL     1       8.906   8.145  19.231  0.00  0.00    +0.000 A 
ATOM     17  N   UNL     1       8.812   9.423  18.825  0.00  0.00    +0.000 NA
ATOM     18  C   UNL     1       7.955   9.674  17.812  0.00  0.00    +0.000 A 
ATOM     19  C   UNL     1       7.173   8.706  17.200  0.00  0.00    +0.000 A 
ENDBRANCH   8  14
BRANCH  10  20
ATOM     20  C   UNL     1       6.100   4.389  14.035  0.00  0.00    +0.000 A 
ATOM     21  C   UNL     1       7.249   4.774  13.315  0.00  0.00    +0.000 A 
ATOM     22  C   UNL     1       7.485   4.326  12.010  0.00  0.00    +0.000 A 
ATOM     23  C   UNL     1       6.574   3.478  11.390  0.00  0.00    +0.000 A 
ATOM     24  C   UNL     1       5.430   3.077  12.074  0.00  0.00    +0.000 A 
ATOM     25  C   UNL     1       5.198   3.527  13.380  0.00  0.00    +0.000 A 
ENDBRANCH  10  20
TORSDOF 2
ENDMDL
MODEL 2
REMARK VINA RESULT:      -7.3      0.120      1.347
REMARK  Name = 
REMARK  3 active torsions:
REMARK  status: ('A' for Active; 'I' for Inactive)
REMARK    1  A    between atoms: C_1  and  N_2
REMARK    2  A    between atoms: C_8  and  C_9
REMARK    3  A    between atoms: C_16  and  C_17
REMARK                            x       y       z     vdW  Elec       q    Type
REMARK                         _______ _______ _______ _____ _____    ______ ____
ROOT
ATOM      1  C   UNL     1       1.479   2.567  21.349  0.00  0.00    +0.000 C 
ATOM      2  N   UNL     1       1.733   3.090  20.009  0.00  0.00    +0.000 NA
ATOM      3  C   UNL     1       2.773   2.283  19.318  0.00  0.00    +0.000 C 
ATOM      4  C   UNL     1       3.169   2.847  17.922  0.00  0.00    +0.000 C 
ATOM      5  N   UNL     1       3.559   4.242  18.105  0.00  0.00    +0.000 N 
ATOM      6  C   UNL     1       4.542   4.814  17.326  0.00  0.00    +0.000 A 
ATOM      7  C   UNL     1       5.261   5.855  17.869  0.00  0.00    +0.000 A 
ATOM      8  C   UNL     1       6.309   6.385  17.152  0.00  0.00    +0.000 A 
ATOM      9  N   UNL     1       6.600   5.948  15.915  0.00  0.00    +0.000 NA
ATOM     10  C   UNL     1       5.852   4.929  15.439  0.00  0.00    +0.000 A 
ATOM     11  N   UNL     1       4.850   4.324  16.118  0.00  0.00    +0.000 NA
ATOM     12  C   UNL     1       2.513   5.082  18.699  0.00  0.00    +0.000 C 
ATOM     13  C   UNL     1       2.157   4.506  20.085  0.00  0.00    +0.000 C 
ENDROOT
BRANCH   8  14
ATOM     14  C   UNL     1       7.140   7.461  17.719  0.00  0.00    +0.000 A 
ATOM     15  C   UNL     1       7.012   8.790  17.281  0.00  0.00    +0.000 A 
ATOM     16  C   UNL     1       7.879   9.754  17.767  0.00  0.00    +0.000 A 
ATOM     17  N   UNL     1       8.846   9.500  18.666  0.00  0.00    +0.000 NA
ATOM     18  C   UNL     1       8.938   8.227  19.109  0.00  0.00    +0.000 A 
ATOM     19  C   UNL     1       8.122   7.193  18.677  0.00  0.00    +0.000 A 
ENDBRANCH   8  14
BRANCH  10  20
ATOM     20  C   UNL     1       6.139   4.458  14.064  0.00  0.00    +0.000 A 
ATOM     21  C   UNL     1       5.270   3.575  13.392  0.00  0.00    +0.000 A 
ATOM     22  C   UNL     1       5.545   3.113  12.099  0.00  0.00    +0.000 A 
ATOM     23  C   UNL     1       6.701   3.524  11.445  0.00  0.00    +0.000 A 
ATOM     24  C   UNL     1       7.579   4.398  12.080  0.00  0.00    +0.000 A 
ATOM     25  C   UNL     1       7.300   4.858  13.373  0.00  0.00    +0.000 A 
ENDBRANCH  10  20
TORSDOF 2
ENDMDL
MODEL 3
REMARK VINA RESULT:      -7.1      1.417      5.538
REMARK  Name = 
REMARK  3 active torsions:
REMARK  status: ('A' for Active; 'I' for Inactive)
REMARK    1  A    between atoms: C_1  and  N_2
REMARK    2  A    between atoms: C_8  and  C_9
REMARK    3  A    between atoms: C_16  and  C_17
REMARK                            x       y       z     vdW  Elec       q    Type
REMARK                         _______ _______ _______ _____ _____    ______ ____
ROOT
ATOM      1  C   UNL     1       0.997   2.774  20.144  0.00  0.00    +0.000 C 
ATOM      2  N   UNL     1       2.353   3.315  20.143  0.00  0.00    +0.000 NA
ATOM      3  C   UNL     1       2.338   4.775  19.868  0.00  0.00    +0.000 C 
ATOM      4  C   UNL     1       3.759   5.399  19.750  0.00  0.00    +0.000 C 
ATOM      5  N   UNL     1       4.492   4.638  18.741  0.00  0.00    +0.000 N 
ATOM      6  C   UNL     1       5.423   5.246  17.927  0.00  0.00    +0.000 A 
ATOM      7  C   UNL     1       5.641   4.694  16.684  0.00  0.00    +0.000 A 
ATOM      8  C   UNL     1       6.495   5.332  15.814  0.00  0.00    +0.000 A 
ATOM      9  N   UNL     1       7.161   6.441  16.177  0.00  0.00    +0.000 NA
ATOM     10  C   UNL     1       6.906   6.927  17.412  0.00  0.00    +0.000 A 
ATOM     11  N   UNL     1       6.032   6.382  18.289  0.00  0.00    +0.000 NA
ATOM     12  C   UNL     1       4.604   3.206  19.039  0.00  0.00    +0.000 C 
ATOM     13  C   UNL     1       3.181   2.617  19.133  0.00  0.00    +0.000 C 
ENDROOT
BRANCH   8  14
ATOM     14  C   UNL     1       6.714   4.807  14.455  0.00  0.00    +0.000 A 
ATOM     15  C   UNL     1       7.707   5.341  13.618  0.00  0.00    +0.000 A 
ATOM     16  C   UNL     1       7.816   4.888  12.314  0.00  0.00    +0.000 A 
ATOM     17  N   UNL     1       7.027   3.934  11.791  0.00  0.00    +0.000 NA
ATOM     18  C   UNL     1       6.099   3.400  12.613  0.00  0.00    +0.000 A 
ATOM     19  C   UNL     1       5.910   3.792  13.930  0.00  0.00    +0.000 A 
ENDBRANCH   8  14
BRANCH  10  20
ATOM     20  C   UNL     1       7.657   8.130  17.838  0.00  0.00    +0.000 A 
ATOM     21  C   UNL     1       8.585   8.081  18.898  0.00  0.00    +0.000 A 
ATOM     22  C   UNL     1       9.285   9.218  19.317  0.00  0.00    +0.000 A 
ATOM     23  C   UNL     1       9.073  10.439  18.684  0.00  0.00    +0.000 A 
ATOM     24  C   UNL     1       8.165  10.520  17.633  0.00  0.00    +0.000 A 
ATOM     25  C   UNL     1       7.467   9.380  17.216  0.00  0.00    +0.000 A 
ENDBRANCH  10  20
TORSDOF 2
ENDMDL
MODEL 4
REMARK VINA RESULT:      -6.8      7.575     10.547
REMARK  Name = 
REMARK  3 active torsions:
REMARK  status: ('A' for Active; 'I' for Inactive)
REMARK    1  A    between atoms: C_1  and  N_2
REMARK    2  A    between atoms: C_8  and  C_9
REMARK    3  A    between atoms: C_16  and  C_17
REMARK                            x       y       z     vdW  Elec       q    Type
REMARK                         _______ _______ _______ _____ _____    ______ ____
ROOT
ATOM      1  C   UNL     1       2.281  17.591  20.492  0.00  0.00    +0.000 C 
ATOM      2  N   UNL     1       2.134  16.169  20.791  0.00  0.00    +0.000 NA
ATOM      3  C   UNL     1       2.862  15.342  19.792  0.00  0.00    +0.000 C 
ATOM      4  C   UNL     1       2.662  13.811  19.990  0.00  0.00    +0.000 C 
ATOM      5  N   UNL     1       1.225  13.553  20.004  0.00  0.00    +0.000 N 
ATOM      6  C   UNL     1       0.708  12.379  19.498  0.00  0.00    +0.000 A 
ATOM      7  C   UNL     1      -0.578  12.409  19.005  0.00  0.00    +0.000 A 
ATOM      8  C   UNL     1      -1.088  11.279  18.410  0.00  0.00    +0.000 A 
ATOM      9  N   UNL     1      -0.380  10.137  18.357  0.00  0.00    +0.000 NA
ATOM     10  C   UNL     1       0.872  10.174  18.864  0.00  0.00    +0.000 A 
ATOM     11  N   UNL     1       1.453  11.270  19.406  0.00  0.00    +0.000 NA
ATOM     12  C   UNL     1       0.497  14.285  21.046  0.00  0.00    +0.000 C 
ATOM     13  C   UNL     1       0.701  15.796  20.811  0.00  0.00    +0.000 C 
ENDROOT
BRANCH   8  14
ATOM     14  C   UNL     1      -2.437  11.283  17.819  0.00  0.00    +0.000 A 
ATOM     15  C   UNL     1      -2.643  10.964  16.467  0.00  0.00    +0.000 A 
ATOM     16  C   UNL     1      -3.912  11.075  15.925  0.00  0.00    +0.000 A 
ATOM     17  N   UNL     1      -4.990  11.459  16.631  0.00  0.00    +0.000 NA
ATOM     18  C   UNL     1      -4.790  11.730  17.939  0.00  0.00    +0.000 A 
ATOM     19  C   UNL     1      -3.557  11.653  18.568  0.00  0.00    +0.000 A 
ENDBRANCH   8  14
BRANCH  10  20
ATOM     20  C   UNL     1       1.652   8.916  18.843  0.00  0.00    +0.000 A 
ATOM     21  C   UNL     1       2.419   8.544  17.720  0.00  0.00    +0.000 A 
ATOM     22  C   UNL     1       3.144   7.347  17.687  0.00  0.00    +0.000 A 
ATOM     23  C   UNL     1       3.120   6.489  18.781  0.00  0.00    +0.000 A 
ATOM     24  C   UNL     1       2.375   6.828  19.907  0.00  0.00    +0.000 A 
ATOM     25  C   UNL     1       1.652   8.027  19.936  0.00  0.00    +0.000 A 
ENDBRANCH  10  20
TORSDOF 2
ENDMDL
MODEL 5
REMARK VINA RESULT:      -6.8      1.411      5.529
REMARK  Name = 
REMARK  3 active torsions:
REMARK  status: ('A' for Active; 'I' for Inactive)
REMARK    1  A    between atoms: C_1  and  N_2
REMARK    2  A    between atoms: C_8  and  C_9
REMARK    3  A    between atoms: C_16  and  C_17
REMARK                            x       y       z     vdW  Elec       q    Type
REMARK                         _______ _______ _______ _____ _____    ______ ____
ROOT
ATOM      1  C   UNL     1       1.140   2.542  20.280  0.00  0.00    +0.000 C 
ATOM      2  N   UNL     1       2.487   3.105  20.237  0.00  0.00    +0.000 NA
ATOM      3  C   UNL     1       2.438   4.573  20.009  0.00  0.00    +0.000 C 
ATOM      4  C   UNL     1       3.843   5.223  19.848  0.00  0.00    +0.000 C 
ATOM      5  N   UNL     1       4.541   4.506  18.785  0.00  0.00    +0.000 N 
ATOM      6  C   UNL     1       5.426   5.154  17.950  0.00  0.00    +0.000 A 
ATOM      7  C   UNL     1       5.597   4.644  16.682  0.00  0.00    +0.000 A 
ATOM      8  C   UNL     1       6.401   5.323  15.796  0.00  0.00    +0.000 A 
ATOM      9  N   UNL     1       7.067   6.431  16.165  0.00  0.00    +0.000 NA
ATOM     10  C   UNL     1       6.859   6.874  17.424  0.00  0.00    +0.000 A 
ATOM     11  N   UNL     1       6.033   6.288  18.322  0.00  0.00    +0.000 NA
ATOM     12  C   UNL     1       4.688   3.067  19.032  0.00  0.00    +0.000 C 
ATOM     13  C   UNL     1       3.279   2.452  19.170  0.00  0.00    +0.000 C 
ENDROOT
BRANCH   8  14
ATOM     14  C   UNL     1       6.568   4.844  14.413  0.00  0.00    +0.000 A 
ATOM     15  C   UNL     1       5.733   3.848  13.880  0.00  0.00    +0.000 A 
ATOM     16  C   UNL     1       5.984   3.356  12.610  0.00  0.00    +0.000 A 
ATOM     17  N   UNL     1       6.986   3.794  11.828  0.00  0.00    +0.000 NA
ATOM     18  C   UNL     1       7.761   4.778  12.334  0.00  0.00    +0.000 A 
ATOM     19  C   UNL     1       7.592   5.328  13.595  0.00  0.00    +0.000 A 
ENDBRANCH   8  14
BRANCH  10  20
ATOM     20  C   UNL     1       7.611   8.075  17.855  0.00  0.00    +0.000 A 
ATOM     21  C   UNL     1       7.398   9.332  17.252  0.00  0.00    +0.000 A 
ATOM     22  C   UNL     1       8.118  10.467  17.643  0.00  0.00    +0.000 A 
ATOM     23  C   UNL     1       9.072  10.374  18.651  0.00  0.00    +0.000 A 
ATOM     24  C   UNL     1       9.304   9.148  19.268  0.00  0.00    +0.000 A 
ATOM     25  C   UNL     1       8.581   8.015  18.875  0.00  0.00    +0.000 A 
ENDBRANCH  10  20
TORSDOF 2
ENDMDL
MODEL 6
REMARK VINA RESULT:      -6.8      7.437     10.098
REMARK  Name = 
REMARK  3 active torsions:
REMARK  status: ('A' for Active; 'I' for Inactive)
REMARK    1  A    between atoms: C_1  and  N_2
REMARK    2  A    between atoms: C_8  and  C_9
REMARK    3  A    between atoms: C_16  and  C_17
REMARK                            x       y       z     vdW  Elec       q    Type
REMARK                         _______ _______ _______ _____ _____    ______ ____
ROOT
ATOM      1  C   UNL     1       1.344  16.644  22.386  0.00  0.00    +0.000 C 
ATOM      2  N   UNL     1       1.303  15.185  22.337  0.00  0.00    +0.000 NA
ATOM      3  C   UNL     1       2.252  14.665  21.318  0.00  0.00    +0.000 C 
ATOM      4  C   UNL     1       2.185  13.120  21.140  0.00  0.00    +0.000 C 
ATOM      5  N   UNL     1       0.797  12.769  20.855  0.00  0.00    +0.000 N 
ATOM      6  C   UNL     1       0.484  11.714  20.025  0.00  0.00    +0.000 A 
ATOM      7  C   UNL     1      -0.710  11.771  19.342  0.00  0.00    +0.000 A 
ATOM      8  C   UNL     1      -1.007  10.779  18.437  0.00  0.00    +0.000 A 
ATOM      9  N   UNL     1      -0.184   9.731  18.255  0.00  0.00    +0.000 NA
ATOM     10  C   UNL     1       0.968   9.733  18.960  0.00  0.00    +0.000 A 
ATOM     11  N   UNL     1       1.345  10.709  19.818  0.00  0.00    +0.000 NA
ATOM     12  C   UNL     1      -0.150  13.187  21.895  0.00  0.00    +0.000 C 
ATOM     13  C   UNL     1      -0.070  14.722  22.034  0.00  0.00    +0.000 C 
ENDROOT
BRANCH   8  14
ATOM     14  C   UNL     1      -2.247  10.830  17.644  0.00  0.00    +0.000 A 
ATOM     15  C   UNL     1      -2.309  10.288  16.349  0.00  0.00    +0.000 A 
ATOM     16  C   UNL     1      -3.462  10.443  15.599  0.00  0.00    +0.000 A 
ATOM     17  N   UNL     1      -4.560  11.077  16.047  0.00  0.00    +0.000 NA
ATOM     18  C   UNL     1      -4.505  11.563  17.306  0.00  0.00    +0.000 A 
ATOM     19  C   UNL     1      -3.394  11.463  18.129  0.00  0.00    +0.000 A 
ENDBRANCH   8  14
BRANCH  10  20
ATOM     20  C   UNL     1       1.869   8.569  18.795  0.00  0.00    +0.000 A 
ATOM     21  C   UNL     1       2.685   8.426  17.654  0.00  0.00    +0.000 A 
ATOM     22  C   UNL     1       3.526   7.320  17.484  0.00  0.00    +0.000 A 
ATOM     23  C   UNL     1       3.570   6.325  18.455  0.00  0.00    +0.000 A 
ATOM     24  C   UNL     1       2.779   6.437  19.594  0.00  0.00    +0.000 A 
ATOM     25  C   UNL     1       1.940   7.546  19.761  0.00  0.00    +0.000 A 
ENDBRANCH  10  20
TORSDOF 2
ENDMDL
MODEL 7
REMARK VINA RESULT:      -6.8      7.339     10.675
REMARK  Name = 
REMARK  3 active torsions:
REMARK  status: ('A' for Active; 'I' for Inactive)
REMARK    1  A    between atoms: C_1  and  N_2
REMARK    2  A    between atoms: C_8  and  C_9
REMARK    3  A    between atoms: C_16  and  C_17
REMARK                            x       y       z     vdW  Elec       q    Type
REMARK                         _______ _______ _______ _____ _____    ______ ____
ROOT
ATOM      1  C   UNL     1       4.380  16.796  20.245  0.00  0.00    +0.000 C 
ATOM      2  N   UNL     1       3.394  16.153  19.380  0.00  0.00    +0.000 NA
ATOM      3  C   UNL     1       2.131  15.894  20.122  0.00  0.00    +0.000 C 
ATOM      4  C   UNL     1       1.071  15.117  19.289  0.00  0.00    +0.000 C 
ATOM      5  N   UNL     1       1.705  13.895  18.800  0.00  0.00    +0.000 N 
ATOM      6  C   UNL     1       0.982  12.731  18.646  0.00  0.00    +0.000 A 
ATOM      7  C   UNL     1       1.663  11.539  18.758  0.00  0.00    +0.000 A 
ATOM      8  C   UNL     1       0.954  10.361  18.702  0.00  0.00    +0.000 A 
ATOM      9  N   UNL     1      -0.372  10.354  18.480  0.00  0.00    +0.000 NA
ATOM     10  C   UNL     1      -0.977  11.557  18.374  0.00  0.00    +0.000 A 
ATOM     11  N   UNL     1      -0.347  12.750  18.482  0.00  0.00    +0.000 NA
ATOM     12  C   UNL     1       2.901  14.128  17.984  0.00  0.00    +0.000 C 
ATOM     13  C   UNL     1       3.935  14.884  18.843  0.00  0.00    +0.000 C 
ENDROOT
BRANCH   8  14
ATOM     14  C   UNL     1       1.633   9.065  18.874  0.00  0.00    +0.000 A 
ATOM     15  C   UNL     1       2.397   8.499  17.840  0.00  0.00    +0.000 A 
ATOM     16  C   UNL     1       2.938   7.235  18.005  0.00  0.00    +0.000 A 
ATOM     17  N   UNL     1       2.792   6.505  19.125  0.00  0.00    +0.000 NA
ATOM     18  C   UNL     1       2.087   7.071  20.127  0.00  0.00    +0.000 A 
ATOM     19  C   UNL     1       1.503   8.327  20.053  0.00  0.00    +0.000 A 
ENDBRANCH   8  14
BRANCH  10  20
ATOM     20  C   UNL     1      -2.432  11.565  18.096  0.00  0.00    +0.000 A 
ATOM     21  C   UNL     1      -2.943  11.183  16.840  0.00  0.00    +0.000 A 
ATOM     22  C   UNL     1      -4.316  11.205  16.566  0.00  0.00    +0.000 A 
ATOM     23  C   UNL     1      -5.215  11.613  17.546  0.00  0.00    +0.000 A 
ATOM     24  C   UNL     1      -4.742  11.994  18.798  0.00  0.00    +0.000 A 
ATOM     25  C   UNL     1      -3.368  11.970  19.068  0.00  0.00    +0.000 A 
ENDBRANCH  10  20
TORSDOF 2
ENDMDL
MODEL 8
REMARK VINA RESULT:      -6.7      7.723     10.958
REMARK  Name = 
REMARK  3 active torsions:
REMARK  status: ('A' for Active; 'I' for Inactive)
REMARK    1  A    between atoms: C_1  and  N_2
REMARK    2  A    between atoms: C_8  and  C_9
REMARK    3  A    between atoms: C_16  and  C_17
REMARK                            x       y       z     vdW  Elec       q    Type
REMARK                         _______ _______ _______ _____ _____    ______ ____
ROOT
ATOM      1  C   UNL     1       3.779  17.229  20.300  0.00  0.00    +0.000 C 
ATOM      2  N   UNL     1       2.835  16.537  19.427  0.00  0.00    +0.000 NA
ATOM      3  C   UNL     1       1.576  16.226  20.153  0.00  0.00    +0.000 C 
ATOM      4  C   UNL     1       0.563  15.396  19.312  0.00  0.00    +0.000 C 
ATOM      5  N   UNL     1       1.257  14.201  18.841  0.00  0.00    +0.000 N 
ATOM      6  C   UNL     1       0.590  13.004  18.686  0.00  0.00    +0.000 A 
ATOM      7  C   UNL     1       1.322  11.845  18.815  0.00  0.00    +0.000 A 
ATOM      8  C   UNL     1       0.667  10.636  18.759  0.00  0.00    +0.000 A 
ATOM      9  N   UNL     1      -0.653  10.568  18.519  0.00  0.00    +0.000 NA
ATOM     10  C   UNL     1      -1.310  11.742  18.396  0.00  0.00    +0.000 A 
ATOM     11  N   UNL     1      -0.736  12.962  18.504  0.00  0.00    +0.000 NA
ATOM     12  C   UNL     1       2.453  14.482  18.039  0.00  0.00    +0.000 C 
ATOM     13  C   UNL     1       3.441  15.290  18.906  0.00  0.00    +0.000 C 
ENDROOT
BRANCH   8  14
ATOM     14  C   UNL     1       1.402   9.373  18.948  0.00  0.00    +0.000 A 
ATOM     15  C   UNL     1       2.145   8.797  17.905  0.00  0.00    +0.000 A 
ATOM     16  C   UNL     1       2.740   7.561  18.093  0.00  0.00    +0.000 A 
ATOM     17  N   UNL     1       2.667   6.869  19.243  0.00  0.00    +0.000 NA
ATOM     18  C   UNL     1       1.981   7.446  20.253  0.00  0.00    +0.000 A 
ATOM     19  C   UNL     1       1.347   8.676  20.158  0.00  0.00    +0.000 A 
ENDBRANCH   8  14
BRANCH  10  20
ATOM     20  C   UNL     1      -2.760  11.683  18.099  0.00  0.00    +0.000 A 
ATOM     21  C   UNL     1      -3.724  12.030  19.067  0.00  0.00    +0.000 A 
ATOM     22  C   UNL     1      -5.096  11.959  18.799  0.00  0.00    +0.000 A 
ATOM     23  C   UNL     1      -5.540  11.537  17.550  0.00  0.00    +0.000 A 
ATOM     24  C   UNL     1      -4.613  11.189  16.571  0.00  0.00    +0.000 A 
ATOM     25  C   UNL     1      -3.242  11.262  16.844  0.00  0.00    +0.000 A 
ENDBRANCH  10  20
TORSDOF 2
ENDMDL
MODEL 9
REMARK VINA RESULT:      -6.7      7.405     10.554
REMARK  Name = 
REMARK  3 active torsions:
REMARK  status: ('A' for Active; 'I' for Inactive)
REMARK    1  A    between atoms: C_1  and  N_2
REMARK    2  A    between atoms: C_8  and  C_9
REMARK    3  A    between atoms: C_16  and  C_17
REMARK                            x       y       z     vdW  Elec       q    Type
REMARK                         _______ _______ _______ _____ _____    ______ ____
ROOT
ATOM      1  C   UNL     1       2.876  17.588  19.452  0.00  0.00    +0.000 C 
ATOM      2  N   UNL     1       2.649  16.226  19.929  0.00  0.00    +0.000 NA
ATOM      3  C   UNL     1       3.268  15.236  19.010  0.00  0.00    +0.000 C 
ATOM      4  C   UNL     1       2.976  13.758  19.402  0.00  0.00    +0.000 C 
ATOM      5  N   UNL     1       1.527  13.608  19.507  0.00  0.00    +0.000 N 
ATOM      6  C   UNL     1       0.907  12.424  19.171  0.00  0.00    +0.000 A 
ATOM      7  C   UNL     1      -0.397  12.489  18.732  0.00  0.00    +0.000 A 
ATOM      8  C   UNL     1      -1.011  11.336  18.301  0.00  0.00    +0.000 A 
ATOM      9  N   UNL     1      -0.385  10.147  18.360  0.00  0.00    +0.000 NA
ATOM     10  C   UNL     1       0.890  10.153  18.806  0.00  0.00    +0.000 A 
ATOM     11  N   UNL     1       1.569  11.260  19.185  0.00  0.00    +0.000 NA
ATOM     12  C   UNL     1       0.903  14.511  20.481  0.00  0.00    +0.000 C 
ATOM     13  C   UNL     1       1.197  15.964  20.054  0.00  0.00    +0.000 C 
ENDROOT
BRANCH   8  14
ATOM     14  C   UNL     1      -2.385  11.368  17.771  0.00  0.00    +0.000 A 
ATOM     15  C   UNL     1      -3.483  11.642  18.604  0.00  0.00    +0.000 A 
ATOM     16  C   UNL     1      -4.765  11.567  18.088  0.00  0.00    +0.000 A 
ATOM     17  N   UNL     1      -5.034  11.259  16.807  0.00  0.00    +0.000 NA
ATOM     18  C   UNL     1      -3.972  11.033  16.004  0.00  0.00    +0.000 A 
ATOM     19  C   UNL     1      -2.654  11.079  16.431  0.00  0.00    +0.000 A 
ENDBRANCH   8  14
BRANCH  10  20
ATOM     20  C   UNL     1       1.581   8.847  18.907  0.00  0.00    +0.000 A 
ATOM     21  C   UNL     1       2.274   8.295  17.811  0.00  0.00    +0.000 A 
ATOM     22  C   UNL     1       2.915   7.053  17.895  0.00  0.00    +0.000 A 
ATOM     23  C   UNL     1       2.877   6.330  19.083  0.00  0.00    +0.000 A 
ATOM     24  C   UNL     1       2.204   6.849  20.185  0.00  0.00    +0.000 A 
ATOM     25  C   UNL     1       1.565   8.092  20.097  0.00  0.00    +0.000 A 
ENDBRANCH  10  20
TORSDOF 2
ENDMDL
