MODEL 1
REMARK VINA RESULT:      -7.4      0.000      0.000
REMARK  Name = 
REMARK  6 active torsions:
REMARK  status: ('A' for Active; 'I' for Inactive)
REMARK    1  A    between atoms: C_1  and  O_2
REMARK    2  A    between atoms: O_2  and  C_3
REMARK    3  A    between atoms: C_3  and  C_4
REMARK    4  A    between atoms: C_4  and  N_5
REMARK    5  A    between atoms: N_8  and  C_9
REMARK    6  A    between atoms: C_9  and  C_10
REMARK                            x       y       z     vdW  Elec       q    Type
REMARK                         _______ _______ _______ _____ _____    ______ ____
ROOT
ATOM      1  C   UNL     1       0.612   9.775  19.658  0.00  0.00    +0.000 A 
ATOM      2  C   UNL     1       1.282  10.366  18.577  0.00  0.00    +0.000 A 
ATOM      3  C   UNL     1       2.211   9.635  17.828  0.00  0.00    +0.000 A 
ATOM      4  C   UNL     1       2.507   8.316  18.167  0.00  0.00    +0.000 A 
ATOM      5  C   UNL     1       1.888   7.740  19.277  0.00  0.00    +0.000 A 
ATOM      6  C   UNL     1       0.932   8.453  20.007  0.00  0.00    +0.000 A 
ATOM      7  C   UNL     1       2.283   6.380  19.682  0.00  0.00    +0.000 A 
ATOM      8  N   UNL     1       1.779   5.821  20.743  0.00  0.00    +0.000 NA
ATOM      9  N   UNL     1       2.213   4.569  21.071  0.00  0.00    +0.000 N 
ATOM     10  C   UNL     1       3.148   3.829  20.386  0.00  0.00    +0.000 A 
ATOM     11  O   UNL     1       3.509   2.711  20.751  0.00  0.00    +0.000 OA
ATOM     12  C   UNL     1       3.711   4.456  19.183  0.00  0.00    +0.000 A 
ATOM     13  C   UNL     1       4.663   3.807  18.394  0.00  0.00    +0.000 A 
ATOM     14  C   UNL     1       5.167   4.450  17.258  0.00  0.00    +0.000 A 
ATOM     15  C   UNL     1       4.726   5.736  16.924  0.00  0.00    +0.000 A 
ATOM     16  C   UNL     1       3.784   6.384  17.726  0.00  0.00    +0.000 A 
ATOM     17  C   UNL     1       3.279   5.728  18.841  0.00  0.00    +0.000 A 
ATOM     18  O   UNL     1       3.419   7.660  17.371  0.00  0.00    +0.000 OA
ATOM     19  H   UNL     1       1.823   4.165  21.917  0.00  0.00    +0.000 HD
ENDROOT
BRANCH   1  20
ATOM     20  C   UNL     1      -0.409  10.551  20.471  0.00  0.00    +0.000 C 
BRANCH  20  24
ATOM     21  N   UNL     1      -1.853  13.337  22.515  0.00  0.00    +0.000 NA
ATOM     22  C   UNL     1      -0.886  13.576  21.424  0.00  0.00    +0.000 C 
ATOM     23  C   UNL     1       0.382  12.666  21.396  0.00  0.00    +0.000 C 
ATOM     24  N   UNL     1       0.154  11.220  21.658  0.00  0.00    +0.000 NA
ATOM     25  C   UNL     1      -0.731  11.106  22.835  0.00  0.00    +0.000 C 
ATOM     26  C   UNL     1      -2.058  11.885  22.682  0.00  0.00    +0.000 C 
BRANCH  21  27
ATOM     27  C   UNL     1      -1.496  13.928  23.820  0.00  0.00    +0.000 C 
BRANCH  27  28
ATOM     28  C   UNL     1      -0.955  15.365  23.839  0.00  0.00    +0.000 C 
BRANCH  28  30
ATOM     29  C   UNL     1      -1.333  15.776  26.124  0.00  0.00    +0.000 C 
ATOM     30  O   UNL     1      -0.358  15.666  25.099  0.00  0.00    +0.000 OA
ENDBRANCH  28  30
ENDBRANCH  27  28
ENDBRANCH  21  27
ENDBRANCH  20  24
ENDBRANCH   1  20
TORSDOF 5
ENDMDL
MODEL 2
REMARK VINA RESULT:      -7.3      2.601      9.460
REMARK  Name = 
REMARK  6 active torsions:
REMARK  status: ('A' for Active; 'I' for Inactive)
REMARK    1  A    between atoms: C_1  and  O_2
REMARK    2  A    between atoms: O_2  and  C_3
REMARK    3  A    between atoms: C_3  and  C_4
REMARK    4  A    between atoms: C_4  and  N_5
REMARK    5  A    between atoms: N_8  and  C_9
REMARK    6  A    between atoms: C_9  and  C_10
REMARK                            x       y       z     vdW  Elec       q    Type
REMARK                         _______ _______ _______ _____ _____    ______ ____
ROOT
ATOM      1  C   UNL     1       2.404   7.434  19.194  0.00  0.00    +0.000 A 
ATOM      2  C   UNL     1       2.405   8.027  17.922  0.00  0.00    +0.000 A 
ATOM      3  C   UNL     1       1.737   9.236  17.699  0.00  0.00    +0.000 A 
ATOM      4  C   UNL     1       1.034   9.853  18.732  0.00  0.00    +0.000 A 
ATOM      5  C   UNL     1       0.979   9.239  19.984  0.00  0.00    +0.000 A 
ATOM      6  C   UNL     1       1.674   8.050  20.223  0.00  0.00    +0.000 A 
ATOM      7  C   UNL     1       0.151   9.851  21.037  0.00  0.00    +0.000 A 
ATOM      8  N   UNL     1       0.020   9.288  22.202  0.00  0.00    +0.000 NA
ATOM      9  N   UNL     1      -0.786   9.900  23.119  0.00  0.00    +0.000 N 
ATOM     10  C   UNL     1      -1.488  11.067  22.931  0.00  0.00    +0.000 A 
ATOM     11  O   UNL     1      -2.213  11.553  23.797  0.00  0.00    +0.000 OA
ATOM     12  C   UNL     1      -1.333  11.709  21.619  0.00  0.00    +0.000 A 
ATOM     13  C   UNL     1      -1.986  12.902  21.304  0.00  0.00    +0.000 A 
ATOM     14  C   UNL     1      -1.803  13.471  20.038  0.00  0.00    +0.000 A 
ATOM     15  C   UNL     1      -0.982  12.841  19.096  0.00  0.00    +0.000 A 
ATOM     16  C   UNL     1      -0.345  11.641  19.414  0.00  0.00    +0.000 A 
ATOM     17  C   UNL     1      -0.519  11.095  20.679  0.00  0.00    +0.000 A 
ATOM     18  O   UNL     1       0.417  11.048  18.435  0.00  0.00    +0.000 OA
ATOM     19  H   UNL     1      -0.891   9.428  24.011  0.00  0.00    +0.000 HD
ENDROOT
BRANCH   1  20
ATOM     20  C   UNL     1       3.136   6.130  19.455  0.00  0.00    +0.000 C 
BRANCH  20  24
ATOM     21  N   UNL     1       6.553   5.274  18.182  0.00  0.00    +0.000 NA
ATOM     22  C   UNL     1       5.814   6.468  17.723  0.00  0.00    +0.000 C 
ATOM     23  C   UNL     1       4.320   6.262  17.325  0.00  0.00    +0.000 C 
ATOM     24  N   UNL     1       3.516   5.400  18.231  0.00  0.00    +0.000 NA
ATOM     25  C   UNL     1       4.307   4.189  18.527  0.00  0.00    +0.000 C 
ATOM     26  C   UNL     1       5.706   4.498  19.109  0.00  0.00    +0.000 C 
BRANCH  21  27
ATOM     27  C   UNL     1       7.042   4.382  17.112  0.00  0.00    +0.000 C 
BRANCH  27  28
ATOM     28  C   UNL     1       6.852   4.827  15.656  0.00  0.00    +0.000 C 
BRANCH  28  30
ATOM     29  C   UNL     1       6.270   3.931  13.560  0.00  0.00    +0.000 C 
ATOM     30  O   UNL     1       6.003   3.920  14.954  0.00  0.00    +0.000 OA
ENDBRANCH  28  30
ENDBRANCH  27  28
ENDBRANCH  21  27
ENDBRANCH  20  24
ENDBRANCH   1  20
TORSDOF 5
ENDMDL
MODEL 3
REMARK VINA RESULT:      -7.3      2.367      9.805
REMARK  Name = 
REMARK  6 active torsions:
REMARK  status: ('A' for Active; 'I' for Inactive)
REMARK    1  A    between atoms: C_1  and  O_2
REMARK    2  A    between atoms: O_2  and  C_3
REMARK    3  A    between atoms: C_3  and  C_4
REMARK    4  A    between atoms: C_4  and  N_5
REMARK    5  A    between atoms: N_8  and  C_9
REMARK    6  A    between atoms: C_9  and  C_10
REMARK                            x       y       z     vdW  Elec       q    Type
REMARK                         _______ _______ _______ _____ _____    ______ ____
ROOT
ATOM      1  C   UNL     1       1.621   8.421  19.790  0.00  0.00    +0.000 A 
ATOM      2  C   UNL     1       1.428   8.059  21.132  0.00  0.00    +0.000 A 
ATOM      3  C   UNL     1       0.813   8.941  22.027  0.00  0.00    +0.000 A 
ATOM      4  C   UNL     1       0.410  10.206  21.603  0.00  0.00    +0.000 A 
ATOM      5  C   UNL     1       0.652  10.596  20.285  0.00  0.00    +0.000 A 
ATOM      6  C   UNL     1       1.234   9.705  19.377  0.00  0.00    +0.000 A 
ATOM      7  C   UNL     1       0.311  11.969  19.878  0.00  0.00    +0.000 A 
ATOM      8  N   UNL     1       0.570  12.399  18.678  0.00  0.00    +0.000 NA
ATOM      9  N   UNL     1       0.250  13.693  18.381  0.00  0.00    +0.000 N 
ATOM     10  C   UNL     1      -0.322  14.604  19.238  0.00  0.00    +0.000 A 
ATOM     11  O   UNL     1      -0.565  15.764  18.909  0.00  0.00    +0.000 OA
ATOM     12  C   UNL     1      -0.623  14.116  20.590  0.00  0.00    +0.000 A 
ATOM     13  C   UNL     1      -1.211  14.939  21.553  0.00  0.00    +0.000 A 
ATOM     14  C   UNL     1      -1.477  14.424  22.827  0.00  0.00    +0.000 A 
ATOM     15  C   UNL     1      -1.144  13.099  23.133  0.00  0.00    +0.000 A 
ATOM     16  C   UNL     1      -0.543  12.288  22.169  0.00  0.00    +0.000 A 
ATOM     17  C   UNL     1      -0.301  12.805  20.904  0.00  0.00    +0.000 A 
ATOM     18  O   UNL     1      -0.202  11.009  22.540  0.00  0.00    +0.000 OA
ATOM     19  H   UNL     1       0.485  14.012  17.447  0.00  0.00    +0.000 HD
ENDROOT
BRANCH   1  20
ATOM     20  C   UNL     1       2.275   7.469  18.804  0.00  0.00    +0.000 C 
BRANCH  20  24
ATOM     21  N   UNL     1       3.369   4.284  17.164  0.00  0.00    +0.000 NA
ATOM     22  C   UNL     1       2.016   4.457  17.731  0.00  0.00    +0.000 C 
ATOM     23  C   UNL     1       1.926   5.080  19.160  0.00  0.00    +0.000 C 
ATOM     24  N   UNL     1       2.813   6.243  19.422  0.00  0.00    +0.000 NA
ATOM     25  C   UNL     1       4.161   5.909  18.917  0.00  0.00    +0.000 C 
ATOM     26  C   UNL     1       4.171   5.495  17.427  0.00  0.00    +0.000 C 
BRANCH  21  27
ATOM     27  C   UNL     1       4.110   3.100  17.642  0.00  0.00    +0.000 C 
BRANCH  27  28
ATOM     28  C   UNL     1       3.305   1.857  18.044  0.00  0.00    +0.000 C 
BRANCH  28  30
ATOM     29  C   UNL     1       4.342   2.337  20.100  0.00  0.00    +0.000 C 
ATOM     30  O   UNL     1       3.223   1.740  19.463  0.00  0.00    +0.000 OA
ENDBRANCH  28  30
ENDBRANCH  27  28
ENDBRANCH  21  27
ENDBRANCH  20  24
ENDBRANCH   1  20
TORSDOF 5
ENDMDL
MODEL 4
REMARK VINA RESULT:      -7.3      3.336      8.701
REMARK  Name = 
REMARK  6 active torsions:
REMARK  status: ('A' for Active; 'I' for Inactive)
REMARK    1  A    between atoms: C_1  and  O_2
REMARK    2  A    between atoms: O_2  and  C_3
REMARK    3  A    between atoms: C_3  and  C_4
REMARK    4  A    between atoms: C_4  and  N_5
REMARK    5  A    between atoms: N_8  and  C_9
REMARK    6  A    between atoms: C_9  and  C_10
REMARK                            x       y       z     vdW  Elec       q    Type
REMARK                         _______ _______ _______ _____ _____    ______ ____
ROOT
ATOM      1  C   UNL     1       2.812   5.035  18.449  0.00  0.00    +0.000 A 
ATOM      2  C   UNL     1       2.539   4.491  19.714  0.00  0.00    +0.000 A 
ATOM      3  C   UNL     1       1.923   5.264  20.704  0.00  0.00    +0.000 A 
ATOM      4  C   UNL     1       1.601   6.597  20.458  0.00  0.00    +0.000 A 
ATOM      5  C   UNL     1       1.923   7.163  19.224  0.00  0.00    +0.000 A 
ATOM      6  C   UNL     1       2.505   6.385  18.217  0.00  0.00    +0.000 A 
ATOM      7  C   UNL     1       1.667   8.597  19.013  0.00  0.00    +0.000 A 
ATOM      8  N   UNL     1       2.002   9.184  17.901  0.00  0.00    +0.000 NA
ATOM      9  N   UNL     1       1.758  10.523  17.788  0.00  0.00    +0.000 N 
ATOM     10  C   UNL     1       1.189  11.327  18.748  0.00  0.00    +0.000 A 
ATOM     11  O   UNL     1       1.016  12.534  18.586  0.00  0.00    +0.000 OA
ATOM     12  C   UNL     1       0.802  10.663  19.999  0.00  0.00    +0.000 A 
ATOM     13  C   UNL     1       0.208  11.366  21.050  0.00  0.00    +0.000 A 
ATOM     14  C   UNL     1      -0.142  10.684  22.221  0.00  0.00    +0.000 A 
ATOM     15  C   UNL     1       0.114   9.313  22.339  0.00  0.00    +0.000 A 
ATOM     16  C   UNL     1       0.721   8.621  21.290  0.00  0.00    +0.000 A 
ATOM     17  C   UNL     1       1.047   9.305  20.126  0.00  0.00    +0.000 A 
ATOM     18  O   UNL     1       0.983   7.285  21.479  0.00  0.00    +0.000 OA
ATOM     19  H   UNL     1       2.051  10.962  16.922  0.00  0.00    +0.000 HD
ENDROOT
BRANCH   1  20
ATOM     20  C   UNL     1       3.466   4.205  17.359  0.00  0.00    +0.000 C 
BRANCH  20  24
ATOM     21  N   UNL     1       6.162   6.698  16.624  0.00  0.00    +0.000 NA
ATOM     22  C   UNL     1       5.758   5.661  15.653  0.00  0.00    +0.000 C 
ATOM     23  C   UNL     1       5.611   4.205  16.197  0.00  0.00    +0.000 C 
ATOM     24  N   UNL     1       4.926   4.064  17.508  0.00  0.00    +0.000 NA
ATOM     25  C   UNL     1       5.492   5.073  18.427  0.00  0.00    +0.000 C 
ATOM     26  C   UNL     1       5.407   6.517  17.880  0.00  0.00    +0.000 C 
BRANCH  21  27
ATOM     27  C   UNL     1       7.605   6.750  16.931  0.00  0.00    +0.000 C 
BRANCH  27  28
ATOM     28  C   UNL     1       8.068   7.655  18.081  0.00  0.00    +0.000 C 
BRANCH  28  30
ATOM     29  C   UNL     1       8.761   9.860  18.518  0.00  0.00    +0.000 C 
ATOM     30  O   UNL     1       7.913   9.031  17.739  0.00  0.00    +0.000 OA
ENDBRANCH  28  30
ENDBRANCH  27  28
ENDBRANCH  21  27
ENDBRANCH  20  24
ENDBRANCH   1  20
TORSDOF 5
ENDMDL
MODEL 5
REMARK VINA RESULT:      -7.3      1.026      1.083
REMARK  Name = 
REMARK  6 active torsions:
REMARK  status: ('A' for Active; 'I' for Inactive)
REMARK    1  A    between atoms: C_1  and  O_2
REMARK    2  A    between atoms: O_2  and  C_3
REMARK    3  A    between atoms: C_3  and  C_4
REMARK    4  A    between atoms: C_4  and  N_5
REMARK    5  A    between atoms: N_8  and  C_9
REMARK    6  A    between atoms: C_9  and  C_10
REMARK                            x       y       z     vdW  Elec       q    Type
REMARK                         _______ _______ _______ _____ _____    ______ ____
ROOT
ATOM      1  C   UNL     1       0.559   9.850  19.736  0.00  0.00    +0.000 A 
ATOM      2  C   UNL     1       1.229  10.468  18.668  0.00  0.00    +0.000 A 
ATOM      3  C   UNL     1       2.160   9.756  17.904  0.00  0.00    +0.000 A 
ATOM      4  C   UNL     1       2.458   8.430  18.213  0.00  0.00    +0.000 A 
ATOM      5  C   UNL     1       1.840   7.827  19.309  0.00  0.00    +0.000 A 
ATOM      6  C   UNL     1       0.882   8.522  20.055  0.00  0.00    +0.000 A 
ATOM      7  C   UNL     1       2.237   6.460  19.683  0.00  0.00    +0.000 A 
ATOM      8  N   UNL     1       1.734   5.875  20.730  0.00  0.00    +0.000 NA
ATOM      9  N   UNL     1       2.171   4.617  21.030  0.00  0.00    +0.000 N 
ATOM     10  C   UNL     1       3.108   3.895  20.328  0.00  0.00    +0.000 A 
ATOM     11  O   UNL     1       3.470   2.769  20.667  0.00  0.00    +0.000 OA
ATOM     12  C   UNL     1       3.670   4.550  19.140  0.00  0.00    +0.000 A 
ATOM     13  C   UNL     1       4.624   3.922  18.337  0.00  0.00    +0.000 A 
ATOM     14  C   UNL     1       5.127   4.592  17.216  0.00  0.00    +0.000 A 
ATOM     15  C   UNL     1       4.683   5.884  16.912  0.00  0.00    +0.000 A 
ATOM     16  C   UNL     1       3.740   6.511  17.728  0.00  0.00    +0.000 A 
ATOM     17  C   UNL     1       3.235   5.829  18.827  0.00  0.00    +0.000 A 
ATOM     18  O   UNL     1       3.372   7.795  17.402  0.00  0.00    +0.000 OA
ATOM     19  H   UNL     1       1.781   4.192  21.865  0.00  0.00    +0.000 HD
ENDROOT
BRANCH   1  20
ATOM     20  C   UNL     1      -0.464  10.605  20.566  0.00  0.00    +0.000 C 
BRANCH  20  24
ATOM     21  N   UNL     1      -1.912  13.425  22.560  0.00  0.00    +0.000 NA
ATOM     22  C   UNL     1      -0.966  13.648  21.447  0.00  0.00    +0.000 C 
ATOM     23  C   UNL     1       0.313  12.755  21.421  0.00  0.00    +0.000 C 
ATOM     24  N   UNL     1       0.110  11.314  21.725  0.00  0.00    +0.000 NA
ATOM     25  C   UNL     1      -0.752  11.219  22.920  0.00  0.00    +0.000 C 
ATOM     26  C   UNL     1      -2.093  11.975  22.769  0.00  0.00    +0.000 C 
BRANCH  21  27
ATOM     27  C   UNL     1      -1.540  14.056  23.842  0.00  0.00    +0.000 C 
BRANCH  27  28
ATOM     28  C   UNL     1      -2.655  14.680  24.692  0.00  0.00    +0.000 C 
BRANCH  28  30
ATOM     29  C   UNL     1      -4.467  15.958  23.906  0.00  0.00    +0.000 C 
ATOM     30  O   UNL     1      -3.898  14.661  23.992  0.00  0.00    +0.000 OA
ENDBRANCH  28  30
ENDBRANCH  27  28
ENDBRANCH  21  27
ENDBRANCH  20  24
ENDBRANCH   1  20
TORSDOF 5
ENDMDL
MODEL 6
REMARK VINA RESULT:      -7.2      2.679      9.629
REMARK  Name = 
REMARK  6 active torsions:
REMARK  status: ('A' for Active; 'I' for Inactive)
REMARK    1  A    between atoms: C_1  and  O_2
REMARK    2  A    between atoms: O_2  and  C_3
REMARK    3  A    between atoms: C_3  and  C_4
REMARK    4  A    between atoms: C_4  and  N_5
REMARK    5  A    between atoms: N_8  and  C_9
REMARK    6  A    between atoms: C_9  and  C_10
REMARK                            x       y       z     vdW  Elec       q    Type
REMARK                         _______ _______ _______ _____ _____    ______ ____
ROOT
ATOM      1  C   UNL     1       2.399   7.191  19.153  0.00  0.00    +0.000 A 
ATOM      2  C   UNL     1       2.508   7.866  17.927  0.00  0.00    +0.000 A 
ATOM      3  C   UNL     1       1.946   9.136  17.760  0.00  0.00    +0.000 A 
ATOM      4  C   UNL     1       1.241   9.737  18.801  0.00  0.00    +0.000 A 
ATOM      5  C   UNL     1       1.078   9.048  20.004  0.00  0.00    +0.000 A 
ATOM      6  C   UNL     1       1.668   7.794  20.189  0.00  0.00    +0.000 A 
ATOM      7  C   UNL     1       0.249   9.653  21.059  0.00  0.00    +0.000 A 
ATOM      8  N   UNL     1       0.018   9.026  22.175  0.00  0.00    +0.000 NA
ATOM      9  N   UNL     1      -0.783   9.638  23.097  0.00  0.00    +0.000 N 
ATOM     10  C   UNL     1      -1.384  10.867  22.960  0.00  0.00    +0.000 A 
ATOM     11  O   UNL     1      -2.112  11.351  23.825  0.00  0.00    +0.000 OA
ATOM     12  C   UNL     1      -1.116  11.580  21.704  0.00  0.00    +0.000 A 
ATOM     13  C   UNL     1      -1.660  12.839  21.444  0.00  0.00    +0.000 A 
ATOM     14  C   UNL     1      -1.372  13.475  20.231  0.00  0.00    +0.000 A 
ATOM     15  C   UNL     1      -0.555  12.845  19.284  0.00  0.00    +0.000 A 
ATOM     16  C   UNL     1      -0.028  11.579  19.545  0.00  0.00    +0.000 A 
ATOM     17  C   UNL     1      -0.306  10.967  20.760  0.00  0.00    +0.000 A 
ATOM     18  O   UNL     1       0.733  10.994  18.562  0.00  0.00    +0.000 OA
ATOM     19  H   UNL     1      -0.968   9.118  23.948  0.00  0.00    +0.000 HD
ENDROOT
BRANCH   1  20
ATOM     20  C   UNL     1       3.015   5.819  19.354  0.00  0.00    +0.000 C 
BRANCH  20  24
ATOM     21  N   UNL     1       5.076   4.090  16.748  0.00  0.00    +0.000 NA
ATOM     22  C   UNL     1       4.804   3.487  18.070  0.00  0.00    +0.000 C 
ATOM     23  C   UNL     1       5.004   4.405  19.316  0.00  0.00    +0.000 C 
ATOM     24  N   UNL     1       4.481   5.791  19.197  0.00  0.00    +0.000 NA
ATOM     25  C   UNL     1       4.911   6.328  17.890  0.00  0.00    +0.000 C 
ATOM     26  C   UNL     1       4.488   5.443  16.694  0.00  0.00    +0.000 C 
BRANCH  21  27
ATOM     27  C   UNL     1       6.500   4.166  16.367  0.00  0.00    +0.000 C 
BRANCH  27  28
ATOM     28  C   UNL     1       6.842   4.533  14.917  0.00  0.00    +0.000 C 
BRANCH  28  30
ATOM     29  C   UNL     1       6.536   3.952  12.658  0.00  0.00    +0.000 C 
ATOM     30  O   UNL     1       6.220   3.631  14.003  0.00  0.00    +0.000 OA
ENDBRANCH  28  30
ENDBRANCH  27  28
ENDBRANCH  21  27
ENDBRANCH  20  24
ENDBRANCH   1  20
TORSDOF 5
ENDMDL
MODEL 7
REMARK VINA RESULT:      -7.2      1.842      2.365
REMARK  Name = 
REMARK  6 active torsions:
REMARK  status: ('A' for Active; 'I' for Inactive)
REMARK    1  A    between atoms: C_1  and  O_2
REMARK    2  A    between atoms: O_2  and  C_3
REMARK    3  A    between atoms: C_3  and  C_4
REMARK    4  A    between atoms: C_4  and  N_5
REMARK    5  A    between atoms: N_8  and  C_9
REMARK    6  A    between atoms: C_9  and  C_10
REMARK                            x       y       z     vdW  Elec       q    Type
REMARK                         _______ _______ _______ _____ _____    ______ ____
ROOT
ATOM      1  C   UNL     1       1.615   9.047  19.369  0.00  0.00    +0.000 A 
ATOM      2  C   UNL     1       2.168   9.179  18.086  0.00  0.00    +0.000 A 
ATOM      3  C   UNL     1       2.726   8.074  17.434  0.00  0.00    +0.000 A 
ATOM      4  C   UNL     1       2.769   6.832  18.064  0.00  0.00    +0.000 A 
ATOM      5  C   UNL     1       2.274   6.706  19.362  0.00  0.00    +0.000 A 
ATOM      6  C   UNL     1       1.683   7.798  20.006  0.00  0.00    +0.000 A 
ATOM      7  C   UNL     1       2.415   5.413  20.052  0.00  0.00    +0.000 A 
ATOM      8  N   UNL     1       2.023   5.261  21.283  0.00  0.00    +0.000 NA
ATOM      9  N   UNL     1       2.211   4.040  21.866  0.00  0.00    +0.000 N 
ATOM     10  C   UNL     1       2.787   2.939  21.275  0.00  0.00    +0.000 A 
ATOM     11  O   UNL     1       2.943   1.873  21.868  0.00  0.00    +0.000 OA
ATOM     12  C   UNL     1       3.221   3.107  19.882  0.00  0.00    +0.000 A 
ATOM     13  C   UNL     1       3.813   2.065  19.167  0.00  0.00    +0.000 A 
ATOM     14  C   UNL     1       4.208   2.279  17.841  0.00  0.00    +0.000 A 
ATOM     15  C   UNL     1       4.020   3.532  17.246  0.00  0.00    +0.000 A 
ATOM     16  C   UNL     1       3.442   4.573  17.973  0.00  0.00    +0.000 A 
ATOM     17  C   UNL     1       3.037   4.343  19.281  0.00  0.00    +0.000 A 
ATOM     18  O   UNL     1       3.320   5.792  17.349  0.00  0.00    +0.000 OA
ATOM     19  H   UNL     1       1.920   3.954  22.834  0.00  0.00    +0.000 HD
ENDROOT
BRANCH   1  20
ATOM     20  C   UNL     1       0.993  10.233  20.084  0.00  0.00    +0.000 C 
BRANCH  20  24
ATOM     21  N   UNL     1      -1.240  12.239  22.324  0.00  0.00    +0.000 NA
ATOM     22  C   UNL     1      -0.658  10.946  22.739  0.00  0.00    +0.000 C 
ATOM     23  C   UNL     1      -0.758   9.769  21.719  0.00  0.00    +0.000 C 
ATOM     24  N   UNL     1      -0.460  10.106  20.302  0.00  0.00    +0.000 NA
ATOM     25  C   UNL     1      -1.185  11.349  19.969  0.00  0.00    +0.000 C 
ATOM     26  C   UNL     1      -0.863  12.521  20.925  0.00  0.00    +0.000 C 
BRANCH  21  27
ATOM     27  C   UNL     1      -2.706  12.347  22.461  0.00  0.00    +0.000 C 
BRANCH  27  28
ATOM     28  C   UNL     1      -3.271  12.893  23.779  0.00  0.00    +0.000 C 
BRANCH  28  30
ATOM     29  C   UNL     1      -5.564  12.700  24.269  0.00  0.00    +0.000 C 
ATOM     30  O   UNL     1      -4.305  12.046  24.279  0.00  0.00    +0.000 OA
ENDBRANCH  28  30
ENDBRANCH  27  28
ENDBRANCH  21  27
ENDBRANCH  20  24
ENDBRANCH   1  20
TORSDOF 5
ENDMDL
MODEL 8
REMARK VINA RESULT:      -7.2      3.491     10.244
REMARK  Name = 
REMARK  6 active torsions:
REMARK  status: ('A' for Active; 'I' for Inactive)
REMARK    1  A    between atoms: C_1  and  O_2
REMARK    2  A    between atoms: O_2  and  C_3
REMARK    3  A    between atoms: C_3  and  C_4
REMARK    4  A    between atoms: C_4  and  N_5
REMARK    5  A    between atoms: N_8  and  C_9
REMARK    6  A    between atoms: C_9  and  C_10
REMARK                            x       y       z     vdW  Elec       q    Type
REMARK                         _______ _______ _______ _____ _____    ______ ____
ROOT
ATOM      1  C   UNL     1       3.394   5.735  18.638  0.00  0.00    +0.000 A 
ATOM      2  C   UNL     1       3.012   5.141  19.851  0.00  0.00    +0.000 A 
ATOM      3  C   UNL     1       2.168   5.815  20.739  0.00  0.00    +0.000 A 
ATOM      4  C   UNL     1       1.719   7.102  20.446  0.00  0.00    +0.000 A 
ATOM      5  C   UNL     1       2.142   7.722  19.270  0.00  0.00    +0.000 A 
ATOM      6  C   UNL     1       2.956   7.040  18.360  0.00  0.00    +0.000 A 
ATOM      7  C   UNL     1       1.740   9.116  19.020  0.00  0.00    +0.000 A 
ATOM      8  N   UNL     1       2.155   9.758  17.968  0.00  0.00    +0.000 NA
ATOM      9  N   UNL     1       1.763  11.058  17.818  0.00  0.00    +0.000 N 
ATOM     10  C   UNL     1       0.965  11.769  18.683  0.00  0.00    +0.000 A 
ATOM     11  O   UNL     1       0.666  12.948  18.494  0.00  0.00    +0.000 OA
ATOM     12  C   UNL     1       0.488  11.042  19.866  0.00  0.00    +0.000 A 
ATOM     13  C   UNL     1      -0.335  11.648  20.817  0.00  0.00    +0.000 A 
ATOM     14  C   UNL     1      -0.762  10.910  21.927  0.00  0.00    +0.000 A 
ATOM     15  C   UNL     1      -0.355   9.579  22.084  0.00  0.00    +0.000 A 
ATOM     16  C   UNL     1       0.480   8.986  21.136  0.00  0.00    +0.000 A 
ATOM     17  C   UNL     1       0.881   9.723  20.030  0.00  0.00    +0.000 A 
ATOM     18  O   UNL     1       0.878   7.690  21.364  0.00  0.00    +0.000 OA
ATOM     19  H   UNL     1       2.121  11.544  17.002  0.00  0.00    +0.000 HD
ENDROOT
BRANCH   1  20
ATOM     20  C   UNL     1       4.298   5.010  17.656  0.00  0.00    +0.000 C 
BRANCH  20  24
ATOM     21  N   UNL     1       6.725   4.148  14.938  0.00  0.00    +0.000 NA
ATOM     22  C   UNL     1       7.145   4.339  16.342  0.00  0.00    +0.000 C 
ATOM     23  C   UNL     1       6.593   5.601  17.075  0.00  0.00    +0.000 C 
ATOM     24  N   UNL     1       5.155   5.906  16.858  0.00  0.00    +0.000 NA
ATOM     25  C   UNL     1       4.881   5.795  15.410  0.00  0.00    +0.000 C 
ATOM     26  C   UNL     1       5.281   4.425  14.814  0.00  0.00    +0.000 C 
BRANCH  21  27
ATOM     27  C   UNL     1       7.460   4.952  13.942  0.00  0.00    +0.000 C 
BRANCH  27  28
ATOM     28  C   UNL     1       7.129   4.744  12.458  0.00  0.00    +0.000 C 
BRANCH  28  30
ATOM     29  C   UNL     1       5.831   2.918  11.740  0.00  0.00    +0.000 C 
ATOM     30  O   UNL     1       7.124   3.356  12.128  0.00  0.00    +0.000 OA
ENDBRANCH  28  30
ENDBRANCH  27  28
ENDBRANCH  21  27
ENDBRANCH  20  24
ENDBRANCH   1  20
TORSDOF 5
ENDMDL
MODEL 9
REMARK VINA RESULT:      -7.2      2.767      9.608
REMARK  Name = 
REMARK  6 active torsions:
REMARK  status: ('A' for Active; 'I' for Inactive)
REMARK    1  A    between atoms: C_1  and  O_2
REMARK    2  A    between atoms: O_2  and  C_3
REMARK    3  A    between atoms: C_3  and  C_4
REMARK    4  A    between atoms: C_4  and  N_5
REMARK    5  A    between atoms: N_8  and  C_9
REMARK    6  A    between atoms: C_9  and  C_10
REMARK                            x       y       z     vdW  Elec       q    Type
REMARK                         _______ _______ _______ _____ _____    ______ ____
ROOT
ATOM      1  C   UNL     1       2.193   7.536  18.879  0.00  0.00    +0.000 A 
ATOM      2  C   UNL     1       2.006   6.921  20.127  0.00  0.00    +0.000 A 
ATOM      3  C   UNL     1       1.298   7.571  21.143  0.00  0.00    +0.000 A 
ATOM      4  C   UNL     1       0.794   8.855  20.940  0.00  0.00    +0.000 A 
ATOM      5  C   UNL     1       1.026   9.496  19.723  0.00  0.00    +0.000 A 
ATOM      6  C   UNL     1       1.702   8.837  18.691  0.00  0.00    +0.000 A 
ATOM      7  C   UNL     1       0.573  10.887  19.558  0.00  0.00    +0.000 A 
ATOM      8  N   UNL     1       0.816  11.548  18.464  0.00  0.00    +0.000 NA
ATOM      9  N   UNL     1       0.390  12.844  18.394  0.00  0.00    +0.000 N 
ATOM     10  C   UNL     1      -0.277  13.533  19.380  0.00  0.00    +0.000 A 
ATOM     11  O   UNL     1      -0.616  14.709  19.257  0.00  0.00    +0.000 OA
ATOM     12  C   UNL     1      -0.560  12.784  20.612  0.00  0.00    +0.000 A 
ATOM     13  C   UNL     1      -1.237  13.366  21.685  0.00  0.00    +0.000 A 
ATOM     14  C   UNL     1      -1.481  12.607  22.836  0.00  0.00    +0.000 A 
ATOM     15  C   UNL     1      -1.039  11.281  22.910  0.00  0.00    +0.000 A 
ATOM     16  C   UNL     1      -0.350  10.711  21.838  0.00  0.00    +0.000 A 
ATOM     17  C   UNL     1      -0.130  11.469  20.695  0.00  0.00    +0.000 A 
ATOM     18  O   UNL     1       0.095   9.419  21.984  0.00  0.00    +0.000 OA
ATOM     19  H   UNL     1       0.613  13.346  17.541  0.00  0.00    +0.000 HD
ENDROOT
BRANCH   1  20
ATOM     20  C   UNL     1       2.947   6.837  17.762  0.00  0.00    +0.000 C 
BRANCH  20  24
ATOM     21  N   UNL     1       5.441   4.845  15.803  0.00  0.00    +0.000 NA
ATOM     22  C   UNL     1       4.637   4.254  16.893  0.00  0.00    +0.000 C 
ATOM     23  C   UNL     1       4.556   5.062  18.226  0.00  0.00    +0.000 C 
ATOM     24  N   UNL     1       4.351   6.528  18.089  0.00  0.00    +0.000 NA
ATOM     25  C   UNL     1       5.285   7.023  17.057  0.00  0.00    +0.000 C 
ATOM     26  C   UNL     1       5.148   6.288  15.703  0.00  0.00    +0.000 C 
BRANCH  21  27
ATOM     27  C   UNL     1       6.900   4.654  15.917  0.00  0.00    +0.000 C 
BRANCH  27  28
ATOM     28  C   UNL     1       7.496   4.448  17.317  0.00  0.00    +0.000 C 
BRANCH  28  30
ATOM     29  C   UNL     1       7.938   5.682  19.270  0.00  0.00    +0.000 C 
ATOM     30  O   UNL     1       7.976   5.680  17.852  0.00  0.00    +0.000 OA
ENDBRANCH  28  30
ENDBRANCH  27  28
ENDBRANCH  21  27
ENDBRANCH  20  24
ENDBRANCH   1  20
TORSDOF 5
ENDMDL
