MODEL 1
REMARK VINA RESULT:      -9.0      0.000      0.000
REMARK  Name = 
REMARK  4 active torsions:
REMARK  status: ('A' for Active; 'I' for Inactive)
REMARK    1  A    between atoms: C_7  and  C_8
REMARK    2  A    between atoms: C_10  and  C_11
REMARK    3  A    between atoms: C_13  and  C_14
REMARK    4  A    between atoms: C_20  and  C_21
REMARK                            x       y       z     vdW  Elec       q    Type
REMARK                         _______ _______ _______ _____ _____    ______ ____
ROOT
ATOM      1  C   UNL     1       3.631   6.548  17.790  0.00  0.00    +0.000 A 
ATOM      2  C   UNL     1       3.512   5.337  18.487  0.00  0.00    +0.000 A 
ATOM      3  C   UNL     1       2.719   5.270  19.621  0.00  0.00    +0.000 A 
ATOM      4  N   UNL     1       1.999   6.340  20.038  0.00  0.00    +0.000 NA
ATOM      5  C   UNL     1       2.048   7.504  19.377  0.00  0.00    +0.000 A 
ATOM      6  C   UNL     1       1.305   8.579  19.863  0.00  0.00    +0.000 A 
ATOM      7  C   UNL     1       1.362   9.832  19.219  0.00  0.00    +0.000 A 
ATOM      8  C   UNL     1       2.151  10.012  18.097  0.00  0.00    +0.000 A 
ATOM      9  C   UNL     1       2.892   8.942  17.604  0.00  0.00    +0.000 A 
ATOM     10  C   UNL     1       2.862   7.670  18.229  0.00  0.00    +0.000 A 
ENDROOT
BRANCH   1  13
ATOM     11  C   UNL     1       5.560   4.732  15.718  0.00  0.00    +0.000 C 
ATOM     12  O   UNL     1       4.476   5.671  15.658  0.00  0.00    +0.000 OA
ATOM     13  C   UNL     1       4.681   6.657  16.689  0.00  0.00    +0.000 C 
ATOM     14  C   UNL     1       6.151   6.499  17.148  0.00  0.00    +0.000 C 
ATOM     15  C   UNL     1       6.430   6.564  18.649  0.00  0.00    +0.000 C 
ATOM     16  C   UNL     1       7.882   6.211  18.915  0.00  0.00    +0.000 C 
ATOM     17  C   UNL     1       8.137   4.773  18.496  0.00  0.00    +0.000 C 
ATOM     18  C   UNL     1       7.515   4.365  17.153  0.00  0.00    +0.000 C 
ATOM     19  N   UNL     1       6.660   5.320  16.467  0.00  0.00    +0.000 NA
BRANCH  11  26
ATOM     20  F   UNL     1       7.893   5.735  14.445  0.00  0.00    +0.000 F 
ATOM     21  C   UNL     1       7.121   4.892  13.740  0.00  0.00    +0.000 A 
ATOM     22  C   UNL     1       7.504   4.573  12.438  0.00  0.00    +0.000 A 
ATOM     23  C   UNL     1       6.716   3.710  11.678  0.00  0.00    +0.000 A 
ATOM     24  C   UNL     1       5.552   3.172  12.226  0.00  0.00    +0.000 A 
ATOM     25  C   UNL     1       5.177   3.496  13.533  0.00  0.00    +0.000 A 
ATOM     26  C   UNL     1       5.961   4.364  14.311  0.00  0.00    +0.000 A 
ENDBRANCH  11  26
ENDBRANCH   1  13
BRANCH   3  27
ATOM     27  C   UNL     1       2.725   4.012  20.479  0.00  0.00    +0.000 C 
ATOM     28  F   UNL     1       2.612   4.271  21.817  0.00  0.00    +0.000 F 
ATOM     29  F   UNL     1       1.684   3.177  20.190  0.00  0.00    +0.000 F 
ATOM     30  F   UNL     1       3.858   3.268  20.346  0.00  0.00    +0.000 F 
ENDBRANCH   3  27
BRANCH   6  31
ATOM     31  C   UNL     1       0.429   8.460  21.085  0.00  0.00    +0.000 C 
ATOM     32  F   UNL     1      -0.364   7.361  21.190  0.00  0.00    +0.000 F 
ATOM     33  F   UNL     1       1.171   8.475  22.234  0.00  0.00    +0.000 F 
ATOM     34  F   UNL     1      -0.417   9.528  21.200  0.00  0.00    +0.000 F 
ENDBRANCH   6  31
TORSDOF 4
ENDMDL
MODEL 2
REMARK VINA RESULT:      -8.7      0.789      1.304
REMARK  Name = 
REMARK  4 active torsions:
REMARK  status: ('A' for Active; 'I' for Inactive)
REMARK    1  A    between atoms: C_7  and  C_8
REMARK    2  A    between atoms: C_10  and  C_11
REMARK    3  A    between atoms: C_13  and  C_14
REMARK    4  A    between atoms: C_20  and  C_21
REMARK                            x       y       z     vdW  Elec       q    Type
REMARK                         _______ _______ _______ _____ _____    ______ ____
ROOT
ATOM      1  C   UNL     1       3.694   6.633  17.793  0.00  0.00    +0.000 A 
ATOM      2  C   UNL     1       3.564   5.404  18.455  0.00  0.00    +0.000 A 
ATOM      3  C   UNL     1       2.736   5.301  19.561  0.00  0.00    +0.000 A 
ATOM      4  N   UNL     1       1.994   6.354  19.982  0.00  0.00    +0.000 NA
ATOM      5  C   UNL     1       2.054   7.535  19.352  0.00  0.00    +0.000 A 
ATOM      6  C   UNL     1       1.286   8.591  19.842  0.00  0.00    +0.000 A 
ATOM      7  C   UNL     1       1.353   9.861  19.233  0.00  0.00    +0.000 A 
ATOM      8  C   UNL     1       2.176  10.076  18.141  0.00  0.00    +0.000 A 
ATOM      9  C   UNL     1       2.941   9.025  17.645  0.00  0.00    +0.000 A 
ATOM     10  C   UNL     1       2.902   7.737  18.236  0.00  0.00    +0.000 A 
ENDROOT
BRANCH   1  13
ATOM     11  C   UNL     1       5.678   4.887  15.712  0.00  0.00    +0.000 C 
ATOM     12  O   UNL     1       4.600   5.835  15.655  0.00  0.00    +0.000 OA
ATOM     13  C   UNL     1       4.778   6.778  16.730  0.00  0.00    +0.000 C 
ATOM     14  C   UNL     1       6.233   6.595  17.225  0.00  0.00    +0.000 C 
ATOM     15  C   UNL     1       6.467   6.600  18.736  0.00  0.00    +0.000 C 
ATOM     16  C   UNL     1       7.908   6.229  19.031  0.00  0.00    +0.000 C 
ATOM     17  C   UNL     1       8.170   4.808  18.566  0.00  0.00    +0.000 C 
ATOM     18  C   UNL     1       7.587   4.455  17.189  0.00  0.00    +0.000 C 
ATOM     19  N   UNL     1       6.757   5.441  16.515  0.00  0.00    +0.000 NA
BRANCH  11  26
ATOM     20  F   UNL     1       4.180   3.257  13.931  0.00  0.00    +0.000 F 
ATOM     21  C   UNL     1       5.338   3.761  13.477  0.00  0.00    +0.000 A 
ATOM     22  C   UNL     1       5.734   3.449  12.177  0.00  0.00    +0.000 A 
ATOM     23  C   UNL     1       6.938   3.949  11.682  0.00  0.00    +0.000 A 
ATOM     24  C   UNL     1       7.736   4.758  12.490  0.00  0.00    +0.000 A 
ATOM     25  C   UNL     1       7.330   5.068  13.791  0.00  0.00    +0.000 A 
ATOM     26  C   UNL     1       6.120   4.572  14.304  0.00  0.00    +0.000 A 
ENDBRANCH  11  26
ENDBRANCH   1  13
BRANCH   3  27
ATOM     27  C   UNL     1       2.726   4.021  20.386  0.00  0.00    +0.000 C 
ATOM     28  F   UNL     1       3.902   3.326  20.317  0.00  0.00    +0.000 F 
ATOM     29  F   UNL     1       2.531   4.258  21.716  0.00  0.00    +0.000 F 
ATOM     30  F   UNL     1       1.758   3.139  20.011  0.00  0.00    +0.000 F 
ENDBRANCH   3  27
BRANCH   6  31
ATOM     31  C   UNL     1       0.373   8.433  21.032  0.00  0.00    +0.000 C 
ATOM     32  F   UNL     1      -0.317   7.268  21.150  0.00  0.00    +0.000 F 
ATOM     33  F   UNL     1       1.060   8.561  22.209  0.00  0.00    +0.000 F 
ATOM     34  F   UNL     1      -0.573   9.419  21.070  0.00  0.00    +0.000 F 
ENDBRANCH   6  31
TORSDOF 4
ENDMDL
MODEL 3
REMARK VINA RESULT:      -8.5      6.771      9.749
REMARK  Name = 
REMARK  4 active torsions:
REMARK  status: ('A' for Active; 'I' for Inactive)
REMARK    1  A    between atoms: C_7  and  C_8
REMARK    2  A    between atoms: C_10  and  C_11
REMARK    3  A    between atoms: C_13  and  C_14
REMARK    4  A    between atoms: C_20  and  C_21
REMARK                            x       y       z     vdW  Elec       q    Type
REMARK                         _______ _______ _______ _____ _____    ______ ____
ROOT
ATOM      1  C   UNL     1      -1.920  12.396  19.366  0.00  0.00    +0.000 A 
ATOM      2  C   UNL     1      -1.993  11.870  18.069  0.00  0.00    +0.000 A 
ATOM      3  C   UNL     1      -3.212  11.445  17.566  0.00  0.00    +0.000 A 
ATOM      4  N   UNL     1      -4.354  11.587  18.282  0.00  0.00    +0.000 NA
ATOM      5  C   UNL     1      -4.336  12.125  19.508  0.00  0.00    +0.000 A 
ATOM      6  C   UNL     1      -5.538  12.228  20.210  0.00  0.00    +0.000 A 
ATOM      7  C   UNL     1      -5.555  12.750  21.519  0.00  0.00    +0.000 A 
ATOM      8  C   UNL     1      -4.384  13.172  22.124  0.00  0.00    +0.000 A 
ATOM      9  C   UNL     1      -3.183  13.077  21.428  0.00  0.00    +0.000 A 
ATOM     10  C   UNL     1      -3.128  12.552  20.113  0.00  0.00    +0.000 A 
ENDROOT
BRANCH   1  13
ATOM     11  C   UNL     1       1.228  13.327  18.632  0.00  0.00    +0.000 C 
ATOM     12  O   UNL     1       0.102  13.789  19.395  0.00  0.00    +0.000 OA
ATOM     13  C   UNL     1      -0.543  12.640  19.978  0.00  0.00    +0.000 C 
ATOM     14  C   UNL     1       0.463  11.471  19.852  0.00  0.00    +0.000 C 
ATOM     15  C   UNL     1      -0.088  10.112  19.424  0.00  0.00    +0.000 C 
ATOM     16  C   UNL     1       1.058   9.148  19.181  0.00  0.00    +0.000 C 
ATOM     17  C   UNL     1       1.901   9.648  18.021  0.00  0.00    +0.000 C 
ATOM     18  C   UNL     1       2.196  11.156  18.032  0.00  0.00    +0.000 C 
ATOM     19  N   UNL     1       1.568  11.977  19.054  0.00  0.00    +0.000 NA
BRANCH  11  26
ATOM     20  F   UNL     1       2.498  13.758  21.137  0.00  0.00    +0.000 F 
ATOM     21  C   UNL     1       2.955  14.458  20.086  0.00  0.00    +0.000 A 
ATOM     22  C   UNL     1       4.007  15.351  20.290  0.00  0.00    +0.000 A 
ATOM     23  C   UNL     1       4.495  16.100  19.221  0.00  0.00    +0.000 A 
ATOM     24  C   UNL     1       3.928  15.951  17.955  0.00  0.00    +0.000 A 
ATOM     25  C   UNL     1       2.875  15.052  17.759  0.00  0.00    +0.000 A 
ATOM     26  C   UNL     1       2.373  14.290  18.828  0.00  0.00    +0.000 A 
ENDBRANCH  11  26
ENDBRANCH   1  13
BRANCH   3  27
ATOM     27  C   UNL     1      -3.271  10.713  16.232  0.00  0.00    +0.000 C 
ATOM     28  F   UNL     1      -2.947   9.388  16.329  0.00  0.00    +0.000 F 
ATOM     29  F   UNL     1      -4.518  10.735  15.678  0.00  0.00    +0.000 F 
ATOM     30  F   UNL     1      -2.429  11.227  15.292  0.00  0.00    +0.000 F 
ENDBRANCH   3  27
BRANCH   6  31
ATOM     31  C   UNL     1      -6.851  11.781  19.618  0.00  0.00    +0.000 C 
ATOM     32  F   UNL     1      -6.963  10.481  19.235  0.00  0.00    +0.000 F 
ATOM     33  F   UNL     1      -7.887  11.986  20.488  0.00  0.00    +0.000 F 
ATOM     34  F   UNL     1      -7.174  12.512  18.509  0.00  0.00    +0.000 F 
ENDBRANCH   6  31
TORSDOF 4
ENDMDL
MODEL 4
REMARK VINA RESULT:      -8.3      5.486      9.481
REMARK  Name = 
REMARK  4 active torsions:
REMARK  status: ('A' for Active; 'I' for Inactive)
REMARK    1  A    between atoms: C_7  and  C_8
REMARK    2  A    between atoms: C_10  and  C_11
REMARK    3  A    between atoms: C_13  and  C_14
REMARK    4  A    between atoms: C_20  and  C_21
REMARK                            x       y       z     vdW  Elec       q    Type
REMARK                         _______ _______ _______ _____ _____    ______ ____
ROOT
ATOM      1  C   UNL     1      -2.799  12.089  19.422  0.00  0.00    +0.000 A 
ATOM      2  C   UNL     1      -4.038  12.305  18.803  0.00  0.00    +0.000 A 
ATOM      3  C   UNL     1      -5.158  12.569  19.575  0.00  0.00    +0.000 A 
ATOM      4  N   UNL     1      -5.068  12.689  20.922  0.00  0.00    +0.000 NA
ATOM      5  C   UNL     1      -3.896  12.534  21.551  0.00  0.00    +0.000 A 
ATOM      6  C   UNL     1      -3.865  12.645  22.942  0.00  0.00    +0.000 A 
ATOM      7  C   UNL     1      -2.659  12.448  23.644  0.00  0.00    +0.000 A 
ATOM      8  C   UNL     1      -1.490  12.146  22.967  0.00  0.00    +0.000 A 
ATOM      9  C   UNL     1      -1.514  12.038  21.580  0.00  0.00    +0.000 A 
ATOM     10  C   UNL     1      -2.709  12.225  20.842  0.00  0.00    +0.000 A 
ENDROOT
BRANCH   1  13
ATOM     11  C   UNL     1       0.202  10.581  19.593  0.00  0.00    +0.000 C 
ATOM     12  O   UNL     1      -1.117  10.333  19.083  0.00  0.00    +0.000 OA
ATOM     13  C   UNL     1      -1.639  11.576  18.575  0.00  0.00    +0.000 C 
ATOM     14  C   UNL     1      -0.428  12.531  18.447  0.00  0.00    +0.000 C 
ATOM     15  C   UNL     1      -0.623  13.978  18.900  0.00  0.00    +0.000 C 
ATOM     16  C   UNL     1       0.708  14.706  18.872  0.00  0.00    +0.000 C 
ATOM     17  C   UNL     1       1.654  14.070  19.876  0.00  0.00    +0.000 C 
ATOM     18  C   UNL     1       1.656  12.534  19.886  0.00  0.00    +0.000 C 
ATOM     19  N   UNL     1       0.698  11.834  19.046  0.00  0.00    +0.000 NA
BRANCH  11  26
ATOM     20  F   UNL     1       0.852   8.495  21.410  0.00  0.00    +0.000 F 
ATOM     21  C   UNL     1       1.371   8.419  20.174  0.00  0.00    +0.000 A 
ATOM     22  C   UNL     1       2.195   7.338  19.866  0.00  0.00    +0.000 A 
ATOM     23  C   UNL     1       2.758   7.238  18.594  0.00  0.00    +0.000 A 
ATOM     24  C   UNL     1       2.492   8.220  17.640  0.00  0.00    +0.000 A 
ATOM     25  C   UNL     1       1.662   9.299  17.957  0.00  0.00    +0.000 A 
ATOM     26  C   UNL     1       1.088   9.413  19.234  0.00  0.00    +0.000 A 
ENDBRANCH  11  26
ENDBRANCH   1  13
BRANCH   3  27
ATOM     27  C   UNL     1      -6.533  12.630  18.924  0.00  0.00    +0.000 C 
ATOM     28  F   UNL     1      -6.951  11.423  18.434  0.00  0.00    +0.000 F 
ATOM     29  F   UNL     1      -7.509  13.016  19.798  0.00  0.00    +0.000 F 
ATOM     30  F   UNL     1      -6.601  13.493  17.873  0.00  0.00    +0.000 F 
ENDBRANCH   3  27
BRANCH   6  31
ATOM     31  C   UNL     1      -5.100  12.963  23.747  0.00  0.00    +0.000 C 
ATOM     32  F   UNL     1      -6.296  12.529  23.269  0.00  0.00    +0.000 F 
ATOM     33  F   UNL     1      -5.016  12.451  25.013  0.00  0.00    +0.000 F 
ATOM     34  F   UNL     1      -5.249  14.310  23.922  0.00  0.00    +0.000 F 
ENDBRANCH   6  31
TORSDOF 4
ENDMDL
MODEL 5
REMARK VINA RESULT:      -8.3      6.924      9.837
REMARK  Name = 
REMARK  4 active torsions:
REMARK  status: ('A' for Active; 'I' for Inactive)
REMARK    1  A    between atoms: C_7  and  C_8
REMARK    2  A    between atoms: C_10  and  C_11
REMARK    3  A    between atoms: C_13  and  C_14
REMARK    4  A    between atoms: C_20  and  C_21
REMARK                            x       y       z     vdW  Elec       q    Type
REMARK                         _______ _______ _______ _____ _____    ______ ____
ROOT
ATOM      1  C   UNL     1      -2.025  12.501  19.310  0.00  0.00    +0.000 A 
ATOM      2  C   UNL     1      -2.112  11.952  18.023  0.00  0.00    +0.000 A 
ATOM      3  C   UNL     1      -3.318  11.440  17.573  0.00  0.00    +0.000 A 
ATOM      4  N   UNL     1      -4.439  11.517  18.330  0.00  0.00    +0.000 NA
ATOM      5  C   UNL     1      -4.411  12.073  19.548  0.00  0.00    +0.000 A 
ATOM      6  C   UNL     1      -5.590  12.106  20.293  0.00  0.00    +0.000 A 
ATOM      7  C   UNL     1      -5.593  12.646  21.596  0.00  0.00    +0.000 A 
ATOM      8  C   UNL     1      -4.431  13.153  22.151  0.00  0.00    +0.000 A 
ATOM      9  C   UNL     1      -3.253  13.128  21.410  0.00  0.00    +0.000 A 
ATOM     10  C   UNL     1      -3.213  12.588  20.100  0.00  0.00    +0.000 A 
ENDROOT
BRANCH   1  13
ATOM     11  C   UNL     1       1.089  13.408  18.419  0.00  0.00    +0.000 C 
ATOM     12  O   UNL     1      -0.036  13.931  19.141  0.00  0.00    +0.000 OA
ATOM     13  C   UNL     1      -0.646  12.845  19.866  0.00  0.00    +0.000 C 
ATOM     14  C   UNL     1       0.385  11.691  19.860  0.00  0.00    +0.000 C 
ATOM     15  C   UNL     1      -0.140  10.279  19.604  0.00  0.00    +0.000 C 
ATOM     16  C   UNL     1       1.025   9.319  19.456  0.00  0.00    +0.000 C 
ATOM     17  C   UNL     1       1.839   9.698  18.231  0.00  0.00    +0.000 C 
ATOM     18  C   UNL     1       2.100  11.202  18.061  0.00  0.00    +0.000 C 
ATOM     19  N   UNL     1       1.467  12.124  18.990  0.00  0.00    +0.000 NA
BRANCH  11  26
ATOM     20  F   UNL     1       0.682  16.219  18.357  0.00  0.00    +0.000 F 
ATOM     21  C   UNL     1       1.948  15.782  18.445  0.00  0.00    +0.000 A 
ATOM     22  C   UNL     1       2.974  16.725  18.491  0.00  0.00    +0.000 A 
ATOM     23  C   UNL     1       4.300  16.302  18.570  0.00  0.00    +0.000 A 
ATOM     24  C   UNL     1       4.590  14.938  18.605  0.00  0.00    +0.000 A 
ATOM     25  C   UNL     1       3.555  13.999  18.562  0.00  0.00    +0.000 A 
ATOM     26  C   UNL     1       2.214  14.411  18.481  0.00  0.00    +0.000 A 
ENDBRANCH  11  26
ENDBRANCH   1  13
BRANCH   3  27
ATOM     27  C   UNL     1      -3.377  10.686  16.251  0.00  0.00    +0.000 C 
ATOM     28  F   UNL     1      -3.094   9.354  16.377  0.00  0.00    +0.000 F 
ATOM     29  F   UNL     1      -4.614  10.734  15.676  0.00  0.00    +0.000 F 
ATOM     30  F   UNL     1      -2.505  11.157  15.316  0.00  0.00    +0.000 F 
ENDBRANCH   3  27
BRANCH   6  31
ATOM     31  C   UNL     1      -6.891  11.564  19.757  0.00  0.00    +0.000 C 
ATOM     32  F   UNL     1      -7.340  12.053  18.571  0.00  0.00    +0.000 F 
ATOM     33  F   UNL     1      -6.835  10.208  19.585  0.00  0.00    +0.000 F 
ATOM     34  F   UNL     1      -7.917  11.763  20.640  0.00  0.00    +0.000 F 
ENDBRANCH   6  31
TORSDOF 4
ENDMDL
MODEL 6
REMARK VINA RESULT:      -8.0      6.891      9.884
REMARK  Name = 
REMARK  4 active torsions:
REMARK  status: ('A' for Active; 'I' for Inactive)
REMARK    1  A    between atoms: C_7  and  C_8
REMARK    2  A    between atoms: C_10  and  C_11
REMARK    3  A    between atoms: C_13  and  C_14
REMARK    4  A    between atoms: C_20  and  C_21
REMARK                            x       y       z     vdW  Elec       q    Type
REMARK                         _______ _______ _______ _____ _____    ______ ____
ROOT
ATOM      1  C   UNL     1      -1.923  12.392  19.710  0.00  0.00    +0.000 A 
ATOM      2  C   UNL     1      -1.996  11.903  18.399  0.00  0.00    +0.000 A 
ATOM      3  C   UNL     1      -3.220  11.521  17.873  0.00  0.00    +0.000 A 
ATOM      4  N   UNL     1      -4.365  11.673  18.581  0.00  0.00    +0.000 NA
ATOM      5  C   UNL     1      -4.347  12.178  19.821  0.00  0.00    +0.000 A 
ATOM      6  C   UNL     1      -5.553  12.292  20.513  0.00  0.00    +0.000 A 
ATOM      7  C   UNL     1      -5.571  12.779  21.836  0.00  0.00    +0.000 A 
ATOM      8  C   UNL     1      -4.396  13.156  22.464  0.00  0.00    +0.000 A 
ATOM      9  C   UNL     1      -3.190  13.049  21.777  0.00  0.00    +0.000 A 
ATOM     10  C   UNL     1      -3.135  12.559  20.449  0.00  0.00    +0.000 A 
ENDROOT
BRANCH   1  13
ATOM     11  C   UNL     1       1.190  13.509  19.097  0.00  0.00    +0.000 C 
ATOM     12  O   UNL     1       0.060  13.824  19.925  0.00  0.00    +0.000 OA
ATOM     13  C   UNL     1      -0.548  12.586  20.341  0.00  0.00    +0.000 C 
ATOM     14  C   UNL     1       0.489  11.476  20.043  0.00  0.00    +0.000 C 
ATOM     15  C   UNL     1      -0.029  10.177  19.429  0.00  0.00    +0.000 C 
ATOM     16  C   UNL     1       1.141   9.291  19.042  0.00  0.00    +0.000 C 
ATOM     17  C   UNL     1       1.957   9.976  17.960  0.00  0.00    +0.000 C 
ATOM     18  C   UNL     1       2.211  11.474  18.186  0.00  0.00    +0.000 C 
ATOM     19  N   UNL     1       1.572  12.122  19.319  0.00  0.00    +0.000 NA
BRANCH  11  26
ATOM     20  F   UNL     1       2.839  14.712  17.121  0.00  0.00    +0.000 F 
ATOM     21  C   UNL     1       3.087  15.024  18.402  0.00  0.00    +0.000 A 
ATOM     22  C   UNL     1       4.133  15.902  18.681  0.00  0.00    +0.000 A 
ATOM     23  C   UNL     1       4.423  16.236  20.003  0.00  0.00    +0.000 A 
ATOM     24  C   UNL     1       3.663  15.689  21.037  0.00  0.00    +0.000 A 
ATOM     25  C   UNL     1       2.614  14.811  20.749  0.00  0.00    +0.000 A 
ATOM     26  C   UNL     1       2.311  14.466  19.421  0.00  0.00    +0.000 A 
ENDBRANCH  11  26
ENDBRANCH   1  13
BRANCH   3  27
ATOM     27  C   UNL     1      -3.282  10.827  16.519  0.00  0.00    +0.000 C 
ATOM     28  F   UNL     1      -2.236  11.150  15.699  0.00  0.00    +0.000 F 
ATOM     29  F   UNL     1      -3.243   9.467  16.626  0.00  0.00    +0.000 F 
ATOM     30  F   UNL     1      -4.406  11.120  15.808  0.00  0.00    +0.000 F 
ENDBRANCH   3  27
BRANCH   6  31
ATOM     31  C   UNL     1      -6.870  11.893  19.897  0.00  0.00    +0.000 C 
ATOM     32  F   UNL     1      -7.032  10.593  19.535  0.00  0.00    +0.000 F 
ATOM     33  F   UNL     1      -7.916  12.162  20.737  0.00  0.00    +0.000 F 
ATOM     34  F   UNL     1      -7.133  12.617  18.767  0.00  0.00    +0.000 F 
ENDBRANCH   6  31
TORSDOF 4
ENDMDL
MODEL 7
REMARK VINA RESULT:      -7.9      5.501      9.198
REMARK  Name = 
REMARK  4 active torsions:
REMARK  status: ('A' for Active; 'I' for Inactive)
REMARK    1  A    between atoms: C_7  and  C_8
REMARK    2  A    between atoms: C_10  and  C_11
REMARK    3  A    between atoms: C_13  and  C_14
REMARK    4  A    between atoms: C_20  and  C_21
REMARK                            x       y       z     vdW  Elec       q    Type
REMARK                         _______ _______ _______ _____ _____    ______ ____
ROOT
ATOM      1  C   UNL     1      -2.428  11.726  19.470  0.00  0.00    +0.000 A 
ATOM      2  C   UNL     1      -2.154  12.140  20.781  0.00  0.00    +0.000 A 
ATOM      3  C   UNL     1      -3.129  12.798  21.514  0.00  0.00    +0.000 A 
ATOM      4  N   UNL     1      -4.372  12.994  21.011  0.00  0.00    +0.000 NA
ATOM      5  C   UNL     1      -4.691  12.575  19.778  0.00  0.00    +0.000 A 
ATOM      6  C   UNL     1      -5.978  12.823  19.302  0.00  0.00    +0.000 A 
ATOM      7  C   UNL     1      -6.339  12.436  17.995  0.00  0.00    +0.000 A 
ATOM      8  C   UNL     1      -5.426  11.802  17.171  0.00  0.00    +0.000 A 
ATOM      9  C   UNL     1      -4.142  11.547  17.642  0.00  0.00    +0.000 A 
ATOM     10  C   UNL     1      -3.743  11.928  18.948  0.00  0.00    +0.000 A 
ENDROOT
BRANCH   1  13
ATOM     11  C   UNL     1       0.558  10.184  19.606  0.00  0.00    +0.000 C 
ATOM     12  O   UNL     1      -0.765   9.959  19.096  0.00  0.00    +0.000 OA
ATOM     13  C   UNL     1      -1.276  11.216  18.610  0.00  0.00    +0.000 C 
ATOM     14  C   UNL     1      -0.055  12.161  18.495  0.00  0.00    +0.000 C 
ATOM     15  C   UNL     1      -0.234  13.601  18.974  0.00  0.00    +0.000 C 
ATOM     16  C   UNL     1       1.104  14.316  18.954  0.00  0.00    +0.000 C 
ATOM     17  C   UNL     1       2.046  13.653  19.943  0.00  0.00    +0.000 C 
ATOM     18  C   UNL     1       2.033  12.117  19.928  0.00  0.00    +0.000 C 
ATOM     19  N   UNL     1       1.065  11.442  19.079  0.00  0.00    +0.000 NA
BRANCH  11  26
ATOM     20  F   UNL     1       1.113   8.014  21.353  0.00  0.00    +0.000 F 
ATOM     21  C   UNL     1       1.666   7.977  20.130  0.00  0.00    +0.000 A 
ATOM     22  C   UNL     1       2.478   6.892  19.801  0.00  0.00    +0.000 A 
ATOM     23  C   UNL     1       3.076   6.832  18.544  0.00  0.00    +0.000 A 
ATOM     24  C   UNL     1       2.857   7.857  17.623  0.00  0.00    +0.000 A 
ATOM     25  C   UNL     1       2.040   8.940  17.961  0.00  0.00    +0.000 A 
ATOM     26  C   UNL     1       1.431   9.014  19.225  0.00  0.00    +0.000 A 
ENDBRANCH  11  26
ENDBRANCH   1  13
BRANCH   3  27
ATOM     27  C   UNL     1      -2.783  13.403  22.868  0.00  0.00    +0.000 C 
ATOM     28  F   UNL     1      -3.651  14.386  23.256  0.00  0.00    +0.000 F 
ATOM     29  F   UNL     1      -2.815  12.483  23.876  0.00  0.00    +0.000 F 
ATOM     30  F   UNL     1      -1.546  13.971  22.910  0.00  0.00    +0.000 F 
ENDBRANCH   3  27
BRANCH   6  31
ATOM     31  C   UNL     1      -7.022  13.517  20.140  0.00  0.00    +0.000 C 
ATOM     32  F   UNL     1      -7.914  12.740  20.810  0.00  0.00    +0.000 F 
ATOM     33  F   UNL     1      -6.449  14.308  21.098  0.00  0.00    +0.000 F 
ATOM     34  F   UNL     1      -7.781  14.370  19.388  0.00  0.00    +0.000 F 
ENDBRANCH   6  31
TORSDOF 4
ENDMDL
MODEL 8
REMARK VINA RESULT:      -7.9      5.716      9.503
REMARK  Name = 
REMARK  4 active torsions:
REMARK  status: ('A' for Active; 'I' for Inactive)
REMARK    1  A    between atoms: C_7  and  C_8
REMARK    2  A    between atoms: C_10  and  C_11
REMARK    3  A    between atoms: C_13  and  C_14
REMARK    4  A    between atoms: C_20  and  C_21
REMARK                            x       y       z     vdW  Elec       q    Type
REMARK                         _______ _______ _______ _____ _____    ______ ____
ROOT
ATOM      1  C   UNL     1       0.404  12.971  21.232  0.00  0.00    +0.000 A 
ATOM      2  C   UNL     1       1.231  13.492  20.226  0.00  0.00    +0.000 A 
ATOM      3  C   UNL     1       1.373  14.864  20.093  0.00  0.00    +0.000 A 
ATOM      4  N   UNL     1       0.777  15.718  20.960  0.00  0.00    +0.000 NA
ATOM      5  C   UNL     1       0.014  15.262  21.962  0.00  0.00    +0.000 A 
ATOM      6  C   UNL     1      -0.593  16.187  22.812  0.00  0.00    +0.000 A 
ATOM      7  C   UNL     1      -1.437  15.749  23.853  0.00  0.00    +0.000 A 
ATOM      8  C   UNL     1      -1.671  14.399  24.049  0.00  0.00    +0.000 A 
ATOM      9  C   UNL     1      -1.064  13.471  23.208  0.00  0.00    +0.000 A 
ATOM     10  C   UNL     1      -0.214  13.876  22.149  0.00  0.00    +0.000 A 
ENDROOT
BRANCH   1  13
ATOM     11  C   UNL     1       0.960  10.116  19.542  0.00  0.00    +0.000 C 
ATOM     12  O   UNL     1       1.227  10.693  20.829  0.00  0.00    +0.000 OA
ATOM     13  C   UNL     1       0.083  11.480  21.213  0.00  0.00    +0.000 C 
ATOM     14  C   UNL     1      -1.068  11.053  20.269  0.00  0.00    +0.000 C 
ATOM     15  C   UNL     1      -1.957  12.159  19.700  0.00  0.00    +0.000 C 
ATOM     16  C   UNL     1      -2.901  11.574  18.666  0.00  0.00    +0.000 C 
ATOM     17  C   UNL     1      -2.097  11.032  17.497  0.00  0.00    +0.000 C 
ATOM     18  C   UNL     1      -0.843  10.233  17.883  0.00  0.00    +0.000 C 
ATOM     19  N   UNL     1      -0.472  10.162  19.287  0.00  0.00    +0.000 NA
BRANCH  11  26
ATOM     20  F   UNL     1       2.206   8.951  17.270  0.00  0.00    +0.000 F 
ATOM     21  C   UNL     1       2.099   8.191  18.371  0.00  0.00    +0.000 A 
ATOM     22  C   UNL     1       2.592   6.887  18.328  0.00  0.00    +0.000 A 
ATOM     23  C   UNL     1       2.484   6.070  19.452  0.00  0.00    +0.000 A 
ATOM     24  C   UNL     1       1.884   6.562  20.611  0.00  0.00    +0.000 A 
ATOM     25  C   UNL     1       1.395   7.871  20.647  0.00  0.00    +0.000 A 
ATOM     26  C   UNL     1       1.497   8.707  19.521  0.00  0.00    +0.000 A 
ENDBRANCH  11  26
ENDBRANCH   1  13
BRANCH   3  27
ATOM     27  C   UNL     1       2.125  15.437  18.900  0.00  0.00    +0.000 C 
ATOM     28  F   UNL     1       1.441  16.433  18.259  0.00  0.00    +0.000 F 
ATOM     29  F   UNL     1       3.319  15.998  19.254  0.00  0.00    +0.000 F 
ATOM     30  F   UNL     1       2.409  14.514  17.940  0.00  0.00    +0.000 F 
ENDBRANCH   3  27
BRANCH   6  31
ATOM     31  C   UNL     1      -0.391  17.673  22.654  0.00  0.00    +0.000 C 
ATOM     32  F   UNL     1      -0.675  18.225  21.444  0.00  0.00    +0.000 F 
ATOM     33  F   UNL     1      -1.144  18.378  23.553  0.00  0.00    +0.000 F 
ATOM     34  F   UNL     1       0.900  18.033  22.920  0.00  0.00    +0.000 F 
ENDBRANCH   6  31
TORSDOF 4
ENDMDL
MODEL 9
REMARK VINA RESULT:      -7.9      8.487     10.847
REMARK  Name = 
REMARK  4 active torsions:
REMARK  status: ('A' for Active; 'I' for Inactive)
REMARK    1  A    between atoms: C_7  and  C_8
REMARK    2  A    between atoms: C_10  and  C_11
REMARK    3  A    between atoms: C_13  and  C_14
REMARK    4  A    between atoms: C_20  and  C_21
REMARK                            x       y       z     vdW  Elec       q    Type
REMARK                         _______ _______ _______ _____ _____    ______ ____
ROOT
ATOM      1  C   UNL     1      -2.994  13.014  21.858  0.00  0.00    +0.000 A 
ATOM      2  C   UNL     1      -3.936  13.362  22.836  0.00  0.00    +0.000 A 
ATOM      3  C   UNL     1      -5.289  13.296  22.543  0.00  0.00    +0.000 A 
ATOM      4  N   UNL     1      -5.726  12.837  21.345  0.00  0.00    +0.000 NA
ATOM      5  C   UNL     1      -4.860  12.452  20.397  0.00  0.00    +0.000 A 
ATOM      6  C   UNL     1      -5.364  12.009  19.174  0.00  0.00    +0.000 A 
ATOM      7  C   UNL     1      -4.486  11.635  18.137  0.00  0.00    +0.000 A 
ATOM      8  C   UNL     1      -3.115  11.696  18.318  0.00  0.00    +0.000 A 
ATOM      9  C   UNL     1      -2.606  12.133  19.537  0.00  0.00    +0.000 A 
ATOM     10  C   UNL     1      -3.460  12.522  20.600  0.00  0.00    +0.000 A 
ENDROOT
BRANCH   1  13
ATOM     11  C   UNL     1       0.080  12.838  20.502  0.00  0.00    +0.000 C 
ATOM     12  O   UNL     1      -0.861  13.825  20.950  0.00  0.00    +0.000 OA
ATOM     13  C   UNL     1      -1.521  13.313  22.124  0.00  0.00    +0.000 C 
ATOM     14  C   UNL     1      -0.670  12.113  22.607  0.00  0.00    +0.000 C 
ATOM     15  C   UNL     1      -1.416  10.859  23.061  0.00  0.00    +0.000 C 
ATOM     16  C   UNL     1      -0.425   9.741  23.321  0.00  0.00    +0.000 C 
ATOM     17  C   UNL     1       0.273   9.372  22.024  0.00  0.00    +0.000 C 
ATOM     18  C   UNL     1       0.718  10.564  21.163  0.00  0.00    +0.000 C 
ATOM     19  N   UNL     1       0.343  11.903  21.586  0.00  0.00    +0.000 NA
BRANCH  11  26
ATOM     20  F   UNL     1       0.632  13.408  17.775  0.00  0.00    +0.000 F 
ATOM     21  C   UNL     1       1.547  13.789  18.680  0.00  0.00    +0.000 A 
ATOM     22  C   UNL     1       2.703  14.425  18.230  0.00  0.00    +0.000 A 
ATOM     23  C   UNL     1       3.676  14.821  19.146  0.00  0.00    +0.000 A 
ATOM     24  C   UNL     1       3.486  14.578  20.506  0.00  0.00    +0.000 A 
ATOM     25  C   UNL     1       2.323  13.942  20.950  0.00  0.00    +0.000 A 
ATOM     26  C   UNL     1       1.333  13.538  20.038  0.00  0.00    +0.000 A 
ENDBRANCH  11  26
ENDBRANCH   1  13
BRANCH   3  27
ATOM     27  C   UNL     1      -6.308  13.838  23.536  0.00  0.00    +0.000 C 
ATOM     28  F   UNL     1      -5.896  14.981  24.162  0.00  0.00    +0.000 F 
ATOM     29  F   UNL     1      -7.493  14.166  22.942  0.00  0.00    +0.000 F 
ATOM     30  F   UNL     1      -6.613  12.964  24.535  0.00  0.00    +0.000 F 
ENDBRANCH   3  27
BRANCH   6  31
ATOM     31  C   UNL     1      -6.845  11.923  18.902  0.00  0.00    +0.000 C 
ATOM     32  F   UNL     1      -7.596  13.033  19.130  0.00  0.00    +0.000 F 
ATOM     33  F   UNL     1      -7.095  11.586  17.600  0.00  0.00    +0.000 F 
ATOM     34  F   UNL     1      -7.432  10.933  19.640  0.00  0.00    +0.000 F 
ENDBRANCH   6  31
TORSDOF 4
ENDMDL
