MODEL 1
REMARK VINA RESULT:      -9.2      0.000      0.000
REMARK  Name = 
REMARK  3 active torsions:
REMARK  status: ('A' for Active; 'I' for Inactive)
REMARK    1  A    between atoms: N_1  and  C_2
REMARK    2  A    between atoms: C_2  and  C_3
REMARK    3  A    between atoms: N_23  and  C_24
REMARK                            x       y       z     vdW  Elec       q    Type
REMARK                         _______ _______ _______ _____ _____    ______ ____
ROOT
ATOM      1  C   UNL     1       4.738   4.236  17.467  0.00  0.00    +0.000 C 
ATOM      2  C   UNL     1       5.572   5.027  16.441  0.00  0.00    +0.000 C 
ATOM      3  C   UNL     1       5.492   6.532  16.671  0.00  0.00    +0.000 C 
ATOM      4  C   UNL     1       4.045   7.003  16.649  0.00  0.00    +0.000 C 
ATOM      5  N   UNL     1       3.262   6.240  17.616  0.00  0.00    +0.000 N 
ATOM      6  C   UNL     1       2.597   6.859  18.656  0.00  0.00    +0.000 A 
ATOM      7  C   UNL     1       2.149   8.165  18.543  0.00  0.00    +0.000 A 
ATOM      8  C   UNL     1       1.588   8.820  19.633  0.00  0.00    +0.000 A 
ATOM      9  C   UNL     1       1.430   8.176  20.845  0.00  0.00    +0.000 A 
ATOM     10  N   UNL     1       0.920   8.827  21.965  0.00  0.00    +0.000 N 
ATOM     11  C   UNL     1      -0.004   9.867  22.022  0.00  0.00    +0.000 A 
ATOM     12  N   UNL     1      -0.313  10.331  23.249  0.00  0.00    +0.000 NA
ATOM     13  C   UNL     1      -1.219  11.335  23.368  0.00  0.00    +0.000 A 
ATOM     14  C   UNL     1      -1.853  11.833  22.235  0.00  0.00    +0.000 A 
ATOM     15  C   UNL     1      -2.847  12.813  21.945  0.00  0.00    +0.000 A 
ATOM     16  C   UNL     1      -3.604  13.691  22.732  0.00  0.00    +0.000 A 
ATOM     17  C   UNL     1      -4.515  14.492  22.068  0.00  0.00    +0.000 A 
ATOM     18  N   UNL     1      -4.718  14.479  20.734  0.00  0.00    +0.000 NA
ATOM     19  C   UNL     1      -3.993  13.637  19.964  0.00  0.00    +0.000 A 
ATOM     20  C   UNL     1      -3.055  12.796  20.556  0.00  0.00    +0.000 A 
ATOM     21  N   UNL     1      -2.200  11.845  20.021  0.00  0.00    +0.000 N 
ATOM     22  C   UNL     1      -1.470  11.276  21.033  0.00  0.00    +0.000 A 
ATOM     23  N   UNL     1      -0.547  10.319  20.886  0.00  0.00    +0.000 NA
ATOM     24  N   UNL     1       1.826   6.894  20.935  0.00  0.00    +0.000 NA
ATOM     25  N   UNL     1       2.392   6.233  19.833  0.00  0.00    +0.000 NA
ATOM     26  C   UNL     1       3.297   4.781  17.527  0.00  0.00    +0.000 C 
ATOM     27  H   UNL     1       0.957   8.302  22.823  0.00  0.00    +0.000 HD
ENDROOT
BRANCH  21  28
ATOM     28  C   UNL     1      -2.121  11.480  18.617  0.00  0.00    +0.000 C 
ATOM     29  C   UNL     1      -1.187  10.309  18.300  0.00  0.00    +0.000 C 
ATOM     30  C   UNL     1      -1.603   9.869  16.902  0.00  0.00    +0.000 C 
ATOM     31  C   UNL     1      -3.077  10.240  16.752  0.00  0.00    +0.000 C 
ATOM     32  C   UNL     1      -3.453  11.071  17.977  0.00  0.00    +0.000 C 
ENDBRANCH  21  28
BRANCH   1  33
ATOM     33  C   UNL     1       5.364   4.187  18.874  0.00  0.00    +0.000 C 
BRANCH  33  34
ATOM     34  N   UNL     1       5.109   2.908  19.544  0.00  0.00    +0.000 NA
ATOM     35  H   UNL     1       4.305   3.015  20.162  0.00  0.00    +0.000 HD
ATOM     36  H   UNL     1       5.891   2.664  20.148  0.00  0.00    +0.000 HD
ENDBRANCH  33  34
ENDBRANCH   1  33
TORSDOF 3
ENDMDL
MODEL 2
REMARK VINA RESULT:      -8.1      3.057      9.452
REMARK  Name = 
REMARK  3 active torsions:
REMARK  status: ('A' for Active; 'I' for Inactive)
REMARK    1  A    between atoms: N_1  and  C_2
REMARK    2  A    between atoms: C_2  and  C_3
REMARK    3  A    between atoms: N_23  and  C_24
REMARK                            x       y       z     vdW  Elec       q    Type
REMARK                         _______ _______ _______ _____ _____    ______ ____
ROOT
ATOM      1  C   UNL     1      -1.467  17.578  20.707  0.00  0.00    +0.000 C 
ATOM      2  C   UNL     1      -0.750  18.017  21.999  0.00  0.00    +0.000 C 
ATOM      3  C   UNL     1       0.450  17.133  22.320  0.00  0.00    +0.000 C 
ATOM      4  C   UNL     1       0.031  15.673  22.421  0.00  0.00    +0.000 C 
ATOM      5  N   UNL     1      -0.658  15.271  21.199  0.00  0.00    +0.000 N 
ATOM      6  C   UNL     1      -0.188  14.238  20.412  0.00  0.00    +0.000 A 
ATOM      7  C   UNL     1       0.545  13.198  20.958  0.00  0.00    +0.000 A 
ATOM      8  C   UNL     1       1.115  12.225  20.145  0.00  0.00    +0.000 A 
ATOM      9  C   UNL     1       0.936  12.252  18.774  0.00  0.00    +0.000 A 
ATOM     10  N   UNL     1       1.540  11.321  17.934  0.00  0.00    +0.000 N 
ATOM     11  C   UNL     1       1.868   9.994  18.198  0.00  0.00    +0.000 A 
ATOM     12  N   UNL     1       2.471   9.314  17.203  0.00  0.00    +0.000 NA
ATOM     13  C   UNL     1       2.802   8.011  17.398  0.00  0.00    +0.000 A 
ATOM     14  C   UNL     1       2.468   7.383  18.593  0.00  0.00    +0.000 A 
ATOM     15  C   UNL     1       2.597   6.079  19.154  0.00  0.00    +0.000 A 
ATOM     16  C   UNL     1       3.133   4.870  18.691  0.00  0.00    +0.000 A 
ATOM     17  C   UNL     1       3.042   3.784  19.541  0.00  0.00    +0.000 A 
ATOM     18  N   UNL     1       2.478   3.814  20.766  0.00  0.00    +0.000 NA
ATOM     19  C   UNL     1       1.958   4.974  21.225  0.00  0.00    +0.000 A 
ATOM     20  C   UNL     1       2.008   6.115  20.428  0.00  0.00    +0.000 A 
ATOM     21  N   UNL     1       1.552   7.407  20.638  0.00  0.00    +0.000 N 
ATOM     22  C   UNL     1       1.841   8.170  19.536  0.00  0.00    +0.000 A 
ATOM     23  N   UNL     1       1.547   9.467  19.386  0.00  0.00    +0.000 NA
ATOM     24  N   UNL     1       0.185  13.239  18.255  0.00  0.00    +0.000 NA
ATOM     25  N   UNL     1      -0.391  14.220  19.078  0.00  0.00    +0.000 NA
ATOM     26  C   UNL     1      -1.799  16.073  20.760  0.00  0.00    +0.000 C 
ATOM     27  H   UNL     1       1.440  11.501  16.949  0.00  0.00    +0.000 HD
ENDROOT
BRANCH  21  28
ATOM     28  C   UNL     1       0.843   7.869  21.819  0.00  0.00    +0.000 C 
ATOM     29  C   UNL     1       1.510   9.023  22.570  0.00  0.00    +0.000 C 
ATOM     30  C   UNL     1       0.405   9.577  23.459  0.00  0.00    +0.000 C 
ATOM     31  C   UNL     1      -0.914   9.273  22.751  0.00  0.00    +0.000 C 
ATOM     32  C   UNL     1      -0.583   8.372  21.564  0.00  0.00    +0.000 C 
ENDBRANCH  21  28
BRANCH   1  33
ATOM     33  C   UNL     1      -0.699  17.925  19.418  0.00  0.00    +0.000 C 
BRANCH  33  34
ATOM     34  N   UNL     1      -1.163  17.135  18.273  0.00  0.00    +0.000 NA
ATOM     35  H   UNL     1      -0.435  16.469  18.017  0.00  0.00    +0.000 HD
ATOM     36  H   UNL     1      -1.289  17.733  17.460  0.00  0.00    +0.000 HD
ENDBRANCH  33  34
ENDBRANCH   1  33
TORSDOF 3
ENDMDL
MODEL 3
REMARK VINA RESULT:      -7.8      5.422      7.015
REMARK  Name = 
REMARK  3 active torsions:
REMARK  status: ('A' for Active; 'I' for Inactive)
REMARK    1  A    between atoms: N_1  and  C_2
REMARK    2  A    between atoms: C_2  and  C_3
REMARK    3  A    between atoms: N_23  and  C_24
REMARK                            x       y       z     vdW  Elec       q    Type
REMARK                         _______ _______ _______ _____ _____    ______ ____
ROOT
ATOM      1  C   UNL     1       6.697  15.510  20.195  0.00  0.00    +0.000 C 
ATOM      2  C   UNL     1       7.176  14.899  21.527  0.00  0.00    +0.000 C 
ATOM      3  C   UNL     1       6.256  13.784  22.012  0.00  0.00    +0.000 C 
ATOM      4  C   UNL     1       4.825  14.287  22.147  0.00  0.00    +0.000 C 
ATOM      5  N   UNL     1       4.387  14.874  20.885  0.00  0.00    +0.000 N 
ATOM      6  C   UNL     1       3.289  14.385  20.204  0.00  0.00    +0.000 A 
ATOM      7  C   UNL     1       2.249  13.764  20.874  0.00  0.00    +0.000 A 
ATOM      8  C   UNL     1       1.206  13.169  20.173  0.00  0.00    +0.000 A 
ATOM      9  C   UNL     1       1.162  13.212  18.793  0.00  0.00    +0.000 A 
ATOM     10  N   UNL     1       0.158  12.579  18.067  0.00  0.00    +0.000 N 
ATOM     11  C   UNL     1      -1.166  12.348  18.431  0.00  0.00    +0.000 A 
ATOM     12  N   UNL     1      -1.929  11.687  17.538  0.00  0.00    +0.000 NA
ATOM     13  C   UNL     1      -3.232  11.445  17.832  0.00  0.00    +0.000 A 
ATOM     14  C   UNL     1      -3.775  11.926  19.019  0.00  0.00    +0.000 A 
ATOM     15  C   UNL     1      -5.049  11.921  19.658  0.00  0.00    +0.000 A 
ATOM     16  C   UNL     1      -6.306  11.406  19.314  0.00  0.00    +0.000 A 
ATOM     17  C   UNL     1      -7.337  11.636  20.206  0.00  0.00    +0.000 A 
ATOM     18  N   UNL     1      -7.211  12.314  21.365  0.00  0.00    +0.000 NA
ATOM     19  C   UNL     1      -6.003  12.815  21.709  0.00  0.00    +0.000 A 
ATOM     20  C   UNL     1      -4.913  12.628  20.863  0.00  0.00    +0.000 A 
ATOM     21  N   UNL     1      -3.591  13.034  20.959  0.00  0.00    +0.000 N 
ATOM     22  C   UNL     1      -2.907  12.600  19.852  0.00  0.00    +0.000 A 
ATOM     23  N   UNL     1      -1.608  12.810  19.606  0.00  0.00    +0.000 NA
ATOM     24  N   UNL     1       2.153  13.856  18.150  0.00  0.00    +0.000 NA
ATOM     25  N   UNL     1       3.205  14.457  18.860  0.00  0.00    +0.000 NA
ATOM     26  C   UNL     1       5.215  15.923  20.293  0.00  0.00    +0.000 C 
ATOM     27  H   UNL     1       0.286  12.573  17.069  0.00  0.00    +0.000 HD
ENDROOT
BRANCH  21  28
ATOM     28  C   UNL     1      -3.030  13.829  22.037  0.00  0.00    +0.000 C 
ATOM     29  C   UNL     1      -2.035  13.095  22.939  0.00  0.00    +0.000 C 
ATOM     30  C   UNL     1      -1.304  14.211  23.673  0.00  0.00    +0.000 C 
ATOM     31  C   UNL     1      -1.343  15.431  22.755  0.00  0.00    +0.000 C 
ATOM     32  C   UNL     1      -2.266  15.081  21.590  0.00  0.00    +0.000 C 
ENDBRANCH  21  28
BRANCH   1  33
ATOM     33  C   UNL     1       6.934  14.602  18.973  0.00  0.00    +0.000 C 
BRANCH  33  34
ATOM     34  N   UNL     1       6.074  14.969  17.844  0.00  0.00    +0.000 NA
ATOM     35  H   UNL     1       6.660  15.142  17.027  0.00  0.00    +0.000 HD
ATOM     36  H   UNL     1       5.600  15.850  18.033  0.00  0.00    +0.000 HD
ENDBRANCH  33  34
ENDBRANCH   1  33
TORSDOF 3
ENDMDL
MODEL 4
REMARK VINA RESULT:      -7.6      2.549      9.971
REMARK  Name = 
REMARK  3 active torsions:
REMARK  status: ('A' for Active; 'I' for Inactive)
REMARK    1  A    between atoms: N_1  and  C_2
REMARK    2  A    between atoms: C_2  and  C_3
REMARK    3  A    between atoms: N_23  and  C_24
REMARK                            x       y       z     vdW  Elec       q    Type
REMARK                         _______ _______ _______ _____ _____    ______ ____
ROOT
ATOM      1  C   UNL     1      -4.878  18.474  23.124  0.00  0.00    +0.000 C 
ATOM      2  C   UNL     1      -5.862  18.594  21.944  0.00  0.00    +0.000 C 
ATOM      3  C   UNL     1      -6.027  17.276  21.195  0.00  0.00    +0.000 C 
ATOM      4  C   UNL     1      -4.679  16.764  20.706  0.00  0.00    +0.000 C 
ATOM      5  N   UNL     1      -3.752  16.665  21.829  0.00  0.00    +0.000 N 
ATOM      6  C   UNL     1      -3.168  15.463  22.179  0.00  0.00    +0.000 A 
ATOM      7  C   UNL     1      -2.947  14.473  21.237  0.00  0.00    +0.000 A 
ATOM      8  C   UNL     1      -2.470  13.224  21.618  0.00  0.00    +0.000 A 
ATOM      9  C   UNL     1      -2.171  12.949  22.939  0.00  0.00    +0.000 A 
ATOM     10  N   UNL     1      -1.743  11.691  23.352  0.00  0.00    +0.000 N 
ATOM     11  C   UNL     1      -1.003  10.747  22.645  0.00  0.00    +0.000 A 
ATOM     12  N   UNL     1      -0.739   9.589  23.281  0.00  0.00    +0.000 NA
ATOM     13  C   UNL     1      -0.010   8.636  22.646  0.00  0.00    +0.000 A 
ATOM     14  C   UNL     1       0.499   8.886  21.376  0.00  0.00    +0.000 A 
ATOM     15  C   UNL     1       1.307   8.197  20.424  0.00  0.00    +0.000 A 
ATOM     16  C   UNL     1       1.931   6.942  20.407  0.00  0.00    +0.000 A 
ATOM     17  C   UNL     1       2.675   6.635  19.284  0.00  0.00    +0.000 A 
ATOM     18  N   UNL     1       2.837   7.452  18.223  0.00  0.00    +0.000 NA
ATOM     19  C   UNL     1       2.240   8.665  18.227  0.00  0.00    +0.000 A 
ATOM     20  C   UNL     1       1.473   9.052  19.323  0.00  0.00    +0.000 A 
ATOM     21  N   UNL     1       0.772  10.217  19.593  0.00  0.00    +0.000 N 
ATOM     22  C   UNL     1       0.178  10.109  20.825  0.00  0.00    +0.000 A 
ATOM     23  N   UNL     1      -0.578  11.045  21.411  0.00  0.00    +0.000 NA
ATOM     24  N   UNL     1      -2.345  13.930  23.842  0.00  0.00    +0.000 NA
ATOM     25  N   UNL     1      -2.826  15.192  23.456  0.00  0.00    +0.000 NA
ATOM     26  C   UNL     1      -3.547  17.853  22.655  0.00  0.00    +0.000 C 
ATOM     27  H   UNL     1      -1.667  11.568  24.348  0.00  0.00    +0.000 HD
ENDROOT
BRANCH  21  28
ATOM     28  C   UNL     1       0.713  11.383  18.729  0.00  0.00    +0.000 C 
ATOM     29  C   UNL     1      -0.691  11.945  18.489  0.00  0.00    +0.000 C 
ATOM     30  C   UNL     1      -0.443  13.346  17.943  0.00  0.00    +0.000 C 
ATOM     31  C   UNL     1       0.898  13.801  18.514  0.00  0.00    +0.000 C 
ATOM     32  C   UNL     1       1.514  12.595  19.219  0.00  0.00    +0.000 C 
ENDBRANCH  21  28
BRANCH   1  33
ATOM     33  C   UNL     1      -5.444  17.705  24.333  0.00  0.00    +0.000 C 
BRANCH  33  34
ATOM     34  N   UNL     1      -4.387  17.271  25.251  0.00  0.00    +0.000 NA
ATOM     35  H   UNL     1      -4.245  16.267  25.137  0.00  0.00    +0.000 HD
ATOM     36  H   UNL     1      -4.683  17.399  26.216  0.00  0.00    +0.000 HD
ENDBRANCH  33  34
ENDBRANCH   1  33
TORSDOF 3
ENDMDL
MODEL 5
REMARK VINA RESULT:      -7.3      5.445      7.151
REMARK  Name = 
REMARK  3 active torsions:
REMARK  status: ('A' for Active; 'I' for Inactive)
REMARK    1  A    between atoms: N_1  and  C_2
REMARK    2  A    between atoms: C_2  and  C_3
REMARK    3  A    between atoms: N_23  and  C_24
REMARK                            x       y       z     vdW  Elec       q    Type
REMARK                         _______ _______ _______ _____ _____    ______ ____
ROOT
ATOM      1  C   UNL     1       7.051  15.548  19.787  0.00  0.00    +0.000 C 
ATOM      2  C   UNL     1       7.577  15.014  21.134  0.00  0.00    +0.000 C 
ATOM      3  C   UNL     1       6.658  13.953  21.731  0.00  0.00    +0.000 C 
ATOM      4  C   UNL     1       5.245  14.496  21.895  0.00  0.00    +0.000 C 
ATOM      5  N   UNL     1       4.762  15.010  20.617  0.00  0.00    +0.000 N 
ATOM      6  C   UNL     1       3.625  14.502  20.018  0.00  0.00    +0.000 A 
ATOM      7  C   UNL     1       2.605  13.949  20.773  0.00  0.00    +0.000 A 
ATOM      8  C   UNL     1       1.520  13.333  20.159  0.00  0.00    +0.000 A 
ATOM      9  C   UNL     1       1.415  13.288  18.781  0.00  0.00    +0.000 A 
ATOM     10  N   UNL     1       0.367  12.632  18.143  0.00  0.00    +0.000 N 
ATOM     11  C   UNL     1      -0.943  12.454  18.579  0.00  0.00    +0.000 A 
ATOM     12  N   UNL     1      -1.759  11.754  17.766  0.00  0.00    +0.000 NA
ATOM     13  C   UNL     1      -3.052  11.561  18.132  0.00  0.00    +0.000 A 
ATOM     14  C   UNL     1      -3.531  12.129  19.308  0.00  0.00    +0.000 A 
ATOM     15  C   UNL     1      -4.775  12.193  20.000  0.00  0.00    +0.000 A 
ATOM     16  C   UNL     1      -6.056  11.685  19.746  0.00  0.00    +0.000 A 
ATOM     17  C   UNL     1      -7.041  11.995  20.666  0.00  0.00    +0.000 A 
ATOM     18  N   UNL     1      -6.849  12.743  21.771  0.00  0.00    +0.000 NA
ATOM     19  C   UNL     1      -5.618  13.239  22.028  0.00  0.00    +0.000 A 
ATOM     20  C   UNL     1      -4.571  12.973  21.150  0.00  0.00    +0.000 A 
ATOM     21  N   UNL     1      -3.239  13.355  21.160  0.00  0.00    +0.000 N 
ATOM     22  C   UNL     1      -2.613  12.835  20.056  0.00  0.00    +0.000 A 
ATOM     23  N   UNL     1      -1.323  13.001  19.740  0.00  0.00    +0.000 NA
ATOM     24  N   UNL     1       2.388  13.867  18.055  0.00  0.00    +0.000 NA
ATOM     25  N   UNL     1       3.482  14.489  18.677  0.00  0.00    +0.000 NA
ATOM     26  C   UNL     1       5.583  16.000  19.922  0.00  0.00    +0.000 C 
ATOM     27  H   UNL     1       0.450  12.559  17.143  0.00  0.00    +0.000 HD
ENDROOT
BRANCH  21  28
ATOM     28  C   UNL     1      -2.615  14.206  22.159  0.00  0.00    +0.000 C 
ATOM     29  C   UNL     1      -3.334  15.530  22.428  0.00  0.00    +0.000 C 
ATOM     30  C   UNL     1      -2.755  16.005  23.755  0.00  0.00    +0.000 C 
ATOM     31  C   UNL     1      -2.329  14.751  24.515  0.00  0.00    +0.000 C 
ATOM     32  C   UNL     1      -2.473  13.576  23.550  0.00  0.00    +0.000 C 
ENDBRANCH  21  28
BRANCH   1  33
ATOM     33  C   UNL     1       7.214  14.559  18.617  0.00  0.00    +0.000 C 
BRANCH  33  34
ATOM     34  N   UNL     1       7.790  15.202  17.432  0.00  0.00    +0.000 NA
ATOM     35  H   UNL     1       8.778  15.390  17.608  0.00  0.00    +0.000 HD
ATOM     36  H   UNL     1       7.360  16.112  17.281  0.00  0.00    +0.000 HD
ENDBRANCH  33  34
ENDBRANCH   1  33
TORSDOF 3
ENDMDL
MODEL 6
REMARK VINA RESULT:      -7.2      1.708      3.696
REMARK  Name = 
REMARK  3 active torsions:
REMARK  status: ('A' for Active; 'I' for Inactive)
REMARK    1  A    between atoms: N_1  and  C_2
REMARK    2  A    between atoms: C_2  and  C_3
REMARK    3  A    between atoms: N_23  and  C_24
REMARK                            x       y       z     vdW  Elec       q    Type
REMARK                         _______ _______ _______ _____ _____    ______ ____
ROOT
ATOM      1  C   UNL     1       5.836   5.034  17.475  0.00  0.00    +0.000 C 
ATOM      2  C   UNL     1       5.498   3.785  18.312  0.00  0.00    +0.000 C 
ATOM      3  C   UNL     1       4.063   3.809  18.828  0.00  0.00    +0.000 C 
ATOM      4  C   UNL     1       3.804   5.072  19.638  0.00  0.00    +0.000 C 
ATOM      5  N   UNL     1       4.139   6.247  18.840  0.00  0.00    +0.000 N 
ATOM      6  C   UNL     1       3.197   7.215  18.551  0.00  0.00    +0.000 A 
ATOM      7  C   UNL     1       2.130   7.454  19.401  0.00  0.00    +0.000 A 
ATOM      8  C   UNL     1       1.124   8.344  19.046  0.00  0.00    +0.000 A 
ATOM      9  C   UNL     1       1.179   9.040  17.853  0.00  0.00    +0.000 A 
ATOM     10  N   UNL     1       0.157   9.896  17.451  0.00  0.00    +0.000 N 
ATOM     11  C   UNL     1      -0.698  10.661  18.239  0.00  0.00    +0.000 A 
ATOM     12  N   UNL     1      -1.621  11.395  17.588  0.00  0.00    +0.000 NA
ATOM     13  C   UNL     1      -2.474  12.173  18.303  0.00  0.00    +0.000 A 
ATOM     14  C   UNL     1      -2.350  12.244  19.687  0.00  0.00    +0.000 A 
ATOM     15  C   UNL     1      -2.992  12.938  20.754  0.00  0.00    +0.000 A 
ATOM     16  C   UNL     1      -4.043  13.862  20.819  0.00  0.00    +0.000 A 
ATOM     17  C   UNL     1      -4.368  14.346  22.073  0.00  0.00    +0.000 A 
ATOM     18  N   UNL     1      -3.746  13.991  23.216  0.00  0.00    +0.000 NA
ATOM     19  C   UNL     1      -2.731  13.100  23.167  0.00  0.00    +0.000 A 
ATOM     20  C   UNL     1      -2.342  12.566  21.942  0.00  0.00    +0.000 A 
ATOM     21  N   UNL     1      -1.347  11.661  21.604  0.00  0.00    +0.000 N 
ATOM     22  C   UNL     1      -1.363  11.461  20.247  0.00  0.00    +0.000 A 
ATOM     23  N   UNL     1      -0.542  10.652  19.568  0.00  0.00    +0.000 NA
ATOM     24  N   UNL     1       2.240   8.837  17.052  0.00  0.00    +0.000 NA
ATOM     25  N   UNL     1       3.257   7.938  17.413  0.00  0.00    +0.000 NA
ATOM     26  C   UNL     1       5.474   6.317  18.250  0.00  0.00    +0.000 C 
ATOM     27  H   UNL     1       0.242  10.259  16.516  0.00  0.00    +0.000 HD
ENDROOT
BRANCH  21  28
ATOM     28  C   UNL     1      -0.410  11.054  22.533  0.00  0.00    +0.000 C 
ATOM     29  C   UNL     1      -0.923   9.804  23.253  0.00  0.00    +0.000 C 
ATOM     30  C   UNL     1       0.337   9.148  23.802  0.00  0.00    +0.000 C 
ATOM     31  C   UNL     1       1.478   9.555  22.873  0.00  0.00    +0.000 C 
ATOM     32  C   UNL     1       0.917  10.602  21.913  0.00  0.00    +0.000 C 
ENDBRANCH  21  28
BRANCH   1  33
ATOM     33  C   UNL     1       5.193   5.040  16.075  0.00  0.00    +0.000 C 
BRANCH  33  34
ATOM     34  N   UNL     1       5.286   6.355  15.434  0.00  0.00    +0.000 NA
ATOM     35  H   UNL     1       5.885   6.278  14.612  0.00  0.00    +0.000 HD
ATOM     36  H   UNL     1       5.750   7.016  16.052  0.00  0.00    +0.000 HD
ENDBRANCH  33  34
ENDBRANCH   1  33
TORSDOF 3
ENDMDL
MODEL 7
REMARK VINA RESULT:      -7.2      5.406      7.234
REMARK  Name = 
REMARK  3 active torsions:
REMARK  status: ('A' for Active; 'I' for Inactive)
REMARK    1  A    between atoms: N_1  and  C_2
REMARK    2  A    between atoms: C_2  and  C_3
REMARK    3  A    between atoms: N_23  and  C_24
REMARK                            x       y       z     vdW  Elec       q    Type
REMARK                         _______ _______ _______ _____ _____    ______ ____
ROOT
ATOM      1  C   UNL     1       7.976  15.546  19.592  0.00  0.00    +0.000 C 
ATOM      2  C   UNL     1       8.538  15.053  20.940  0.00  0.00    +0.000 C 
ATOM      3  C   UNL     1       7.606  14.058  21.623  0.00  0.00    +0.000 C 
ATOM      4  C   UNL     1       6.223  14.665  21.819  0.00  0.00    +0.000 C 
ATOM      5  N   UNL     1       5.706  15.138  20.540  0.00  0.00    +0.000 N 
ATOM      6  C   UNL     1       4.526  14.650  20.012  0.00  0.00    +0.000 A 
ATOM      7  C   UNL     1       3.518  14.174  20.833  0.00  0.00    +0.000 A 
ATOM      8  C   UNL     1       2.385  13.575  20.294  0.00  0.00    +0.000 A 
ATOM      9  C   UNL     1       2.220  13.471  18.926  0.00  0.00    +0.000 A 
ATOM     10  N   UNL     1       1.121  12.829  18.363  0.00  0.00    +0.000 N 
ATOM     11  C   UNL     1      -0.175  12.725  18.860  0.00  0.00    +0.000 A 
ATOM     12  N   UNL     1      -1.051  12.022  18.115  0.00  0.00    +0.000 NA
ATOM     13  C   UNL     1      -2.334  11.898  18.543  0.00  0.00    +0.000 A 
ATOM     14  C   UNL     1      -2.740  12.538  19.708  0.00  0.00    +0.000 A 
ATOM     15  C   UNL     1      -3.950  12.684  20.448  0.00  0.00    +0.000 A 
ATOM     16  C   UNL     1      -5.259  12.217  20.270  0.00  0.00    +0.000 A 
ATOM     17  C   UNL     1      -6.191  12.608  21.214  0.00  0.00    +0.000 A 
ATOM     18  N   UNL     1      -5.924  13.398  22.274  0.00  0.00    +0.000 NA
ATOM     19  C   UNL     1      -4.665  13.855  22.457  0.00  0.00    +0.000 A 
ATOM     20  C   UNL     1      -3.668  13.507  21.549  0.00  0.00    +0.000 A 
ATOM     21  N   UNL     1      -2.322  13.835  21.488  0.00  0.00    +0.000 N 
ATOM     22  C   UNL     1      -1.765  13.240  20.384  0.00  0.00    +0.000 A 
ATOM     23  N   UNL     1      -0.484  13.339  20.008  0.00  0.00    +0.000 NA
ATOM     24  N   UNL     1       3.182  13.976  18.134  0.00  0.00    +0.000 NA
ATOM     25  N   UNL     1       4.325  14.582  18.680  0.00  0.00    +0.000 NA
ATOM     26  C   UNL     1       6.534  16.061  19.765  0.00  0.00    +0.000 C 
ATOM     27  H   UNL     1       1.158  12.707  17.365  0.00  0.00    +0.000 HD
ENDROOT
BRANCH  21  28
ATOM     28  C   UNL     1      -1.623  14.705  22.418  0.00  0.00    +0.000 C 
ATOM     29  C   UNL     1      -2.220  16.106  22.574  0.00  0.00    +0.000 C 
ATOM     30  C   UNL     1      -1.601  16.633  23.862  0.00  0.00    +0.000 C 
ATOM     31  C   UNL     1      -1.289  15.412  24.724  0.00  0.00    +0.000 C 
ATOM     32  C   UNL     1      -1.539  14.180  23.857  0.00  0.00    +0.000 C 
ENDBRANCH  21  28
BRANCH   1  33
ATOM     33  C   UNL     1       8.051  14.498  18.464  0.00  0.00    +0.000 C 
BRANCH  33  34
ATOM     34  N   UNL     1       7.104  14.788  17.383  0.00  0.00    +0.000 NA
ATOM     35  H   UNL     1       7.617  15.187  16.596  0.00  0.00    +0.000 HD
ATOM     36  H   UNL     1       6.445  15.505  17.675  0.00  0.00    +0.000 HD
ENDBRANCH  33  34
ENDBRANCH   1  33
TORSDOF 3
ENDMDL
MODEL 8
REMARK VINA RESULT:      -7.2      5.535      7.085
REMARK  Name = 
REMARK  3 active torsions:
REMARK  status: ('A' for Active; 'I' for Inactive)
REMARK    1  A    between atoms: N_1  and  C_2
REMARK    2  A    between atoms: C_2  and  C_3
REMARK    3  A    between atoms: N_23  and  C_24
REMARK                            x       y       z     vdW  Elec       q    Type
REMARK                         _______ _______ _______ _____ _____    ______ ____
ROOT
ATOM      1  C   UNL     1       6.983  15.742  18.938  0.00  0.00    +0.000 C 
ATOM      2  C   UNL     1       7.597  15.422  20.315  0.00  0.00    +0.000 C 
ATOM      3  C   UNL     1       6.725  14.470  21.127  0.00  0.00    +0.000 C 
ATOM      4  C   UNL     1       5.323  15.038  21.296  0.00  0.00    +0.000 C 
ATOM      5  N   UNL     1       4.756  15.348  19.988  0.00  0.00    +0.000 N 
ATOM      6  C   UNL     1       3.586  14.758  19.549  0.00  0.00    +0.000 A 
ATOM      7  C   UNL     1       2.619  14.333  20.445  0.00  0.00    +0.000 A 
ATOM      8  C   UNL     1       1.501  13.634  20.005  0.00  0.00    +0.000 A 
ATOM      9  C   UNL     1       1.308  13.375  18.661  0.00  0.00    +0.000 A 
ATOM     10  N   UNL     1       0.225  12.632  18.201  0.00  0.00    +0.000 N 
ATOM     11  C   UNL     1      -1.054  12.529  18.742  0.00  0.00    +0.000 A 
ATOM     12  N   UNL     1      -1.915  11.715  18.102  0.00  0.00    +0.000 NA
ATOM     13  C   UNL     1      -3.181  11.586  18.577  0.00  0.00    +0.000 A 
ATOM     14  C   UNL     1      -3.587  12.332  19.678  0.00  0.00    +0.000 A 
ATOM     15  C   UNL     1      -4.785  12.509  20.430  0.00  0.00    +0.000 A 
ATOM     16  C   UNL     1      -6.076  11.972  20.341  0.00  0.00    +0.000 A 
ATOM     17  C   UNL     1      -7.002  12.425  21.263  0.00  0.00    +0.000 A 
ATOM     18  N   UNL     1      -6.744  13.336  22.224  0.00  0.00    +0.000 NA
ATOM     19  C   UNL     1      -5.502  13.860  22.321  0.00  0.00    +0.000 A 
ATOM     20  C   UNL     1      -4.512  13.457  21.429  0.00  0.00    +0.000 A 
ATOM     21  N   UNL     1      -3.184  13.831  21.294  0.00  0.00    +0.000 N 
ATOM     22  C   UNL     1      -2.628  13.143  20.246  0.00  0.00    +0.000 A 
ATOM     23  N   UNL     1      -1.361  13.252  19.826  0.00  0.00    +0.000 NA
ATOM     24  N   UNL     1       2.229  13.830  17.792  0.00  0.00    +0.000 NA
ATOM     25  N   UNL     1       3.357  14.537  18.238  0.00  0.00    +0.000 NA
ATOM     26  C   UNL     1       5.524  16.214  19.096  0.00  0.00    +0.000 C 
ATOM     27  H   UNL     1       0.244  12.404  17.221  0.00  0.00    +0.000 HD
ENDROOT
BRANCH  21  28
ATOM     28  C   UNL     1      -2.502  14.824  22.106  0.00  0.00    +0.000 C 
ATOM     29  C   UNL     1      -1.341  14.291  22.949  0.00  0.00    +0.000 C 
ATOM     30  C   UNL     1      -0.562  15.540  23.341  0.00  0.00    +0.000 C 
ATOM     31  C   UNL     1      -0.808  16.568  22.239  0.00  0.00    +0.000 C 
ATOM     32  C   UNL     1      -1.883  15.988  21.323  0.00  0.00    +0.000 C 
ENDBRANCH  21  28
BRANCH   1  33
ATOM     33  C   UNL     1       7.077  14.582  17.929  0.00  0.00    +0.000 C 
BRANCH  33  34
ATOM     34  N   UNL     1       8.448  14.381  17.451  0.00  0.00    +0.000 NA
ATOM     35  H   UNL     1       8.415  14.053  16.485  0.00  0.00    +0.000 HD
ATOM     36  H   UNL     1       8.901  13.638  17.978  0.00  0.00    +0.000 HD
ENDBRANCH  33  34
ENDBRANCH   1  33
TORSDOF 3
ENDMDL
MODEL 9
REMARK VINA RESULT:      -6.9      2.111      2.404
REMARK  Name = 
REMARK  3 active torsions:
REMARK  status: ('A' for Active; 'I' for Inactive)
REMARK    1  A    between atoms: N_1  and  C_2
REMARK    2  A    between atoms: C_2  and  C_3
REMARK    3  A    between atoms: N_23  and  C_24
REMARK                            x       y       z     vdW  Elec       q    Type
REMARK                         _______ _______ _______ _____ _____    ______ ____
ROOT
ATOM      1  C   UNL     1       4.300   3.265  17.280  0.00  0.00    +0.000 C 
ATOM      2  C   UNL     1       5.752   3.752  17.106  0.00  0.00    +0.000 C 
ATOM      3  C   UNL     1       6.060   4.964  17.979  0.00  0.00    +0.000 C 
ATOM      4  C   UNL     1       5.086   6.098  17.690  0.00  0.00    +0.000 C 
ATOM      5  N   UNL     1       3.715   5.622  17.845  0.00  0.00    +0.000 N 
ATOM      6  C   UNL     1       2.851   6.198  18.756  0.00  0.00    +0.000 A 
ATOM      7  C   UNL     1       2.984   7.525  19.130  0.00  0.00    +0.000 A 
ATOM      8  C   UNL     1       2.187   8.064  20.133  0.00  0.00    +0.000 A 
ATOM      9  C   UNL     1       1.218   7.301  20.758  0.00  0.00    +0.000 A 
ATOM     10  N   UNL     1       0.445   7.802  21.801  0.00  0.00    +0.000 N 
ATOM     11  C   UNL     1       0.027   9.111  22.024  0.00  0.00    +0.000 A 
ATOM     12  N   UNL     1      -0.705   9.329  23.134  0.00  0.00    +0.000 NA
ATOM     13  C   UNL     1      -1.152  10.584  23.397  0.00  0.00    +0.000 A 
ATOM     14  C   UNL     1      -0.897  11.612  22.496  0.00  0.00    +0.000 A 
ATOM     15  C   UNL     1      -1.208  12.999  22.386  0.00  0.00    +0.000 A 
ATOM     16  C   UNL     1      -1.928  13.900  23.182  0.00  0.00    +0.000 A 
ATOM     17  C   UNL     1      -2.037  15.195  22.711  0.00  0.00    +0.000 A 
ATOM     18  N   UNL     1      -1.504  15.637  21.553  0.00  0.00    +0.000 NA
ATOM     19  C   UNL     1      -0.807  14.779  20.777  0.00  0.00    +0.000 A 
ATOM     20  C   UNL     1      -0.652  13.455  21.180  0.00  0.00    +0.000 A 
ATOM     21  N   UNL     1      -0.010  12.379  20.586  0.00  0.00    +0.000 N 
ATOM     22  C   UNL     1      -0.150  11.275  21.388  0.00  0.00    +0.000 A 
ATOM     23  N   UNL     1       0.341  10.056  21.130  0.00  0.00    +0.000 NA
ATOM     24  N   UNL     1       1.064   6.026  20.359  0.00  0.00    +0.000 NA
ATOM     25  N   UNL     1       1.870   5.484  19.344  0.00  0.00    +0.000 NA
ATOM     26  C   UNL     1       3.313   4.435  17.094  0.00  0.00    +0.000 C 
ATOM     27  H   UNL     1      -0.145   7.130  22.261  0.00  0.00    +0.000 HD
ENDROOT
BRANCH  21  28
ATOM     28  C   UNL     1       0.666  12.406  19.301  0.00  0.00    +0.000 C 
ATOM     29  C   UNL     1       2.021  13.120  19.293  0.00  0.00    +0.000 C 
ATOM     30  C   UNL     1       2.683  12.647  18.005  0.00  0.00    +0.000 C 
ATOM     31  C   UNL     1       2.108  11.264  17.705  0.00  0.00    +0.000 C 
ATOM     32  C   UNL     1       0.974  11.029  18.701  0.00  0.00    +0.000 C 
ENDBRANCH  21  28
BRANCH   1  33
ATOM     33  C   UNL     1       4.042   2.537  18.613  0.00  0.00    +0.000 C 
BRANCH  33  34
ATOM     34  N   UNL     1       3.720   1.121  18.410  0.00  0.00    +0.000 NA
ATOM     35  H   UNL     1       3.743   0.919  17.410  0.00  0.00    +0.000 HD
ATOM     36  H   UNL     1       2.766   0.930  18.708  0.00  0.00    +0.000 HD
ENDBRANCH  33  34
ENDBRANCH   1  33
TORSDOF 3
ENDMDL
