MODEL 1
REMARK VINA RESULT:      -7.6      0.000      0.000
REMARK  Name = 
REMARK  10 active torsions:
REMARK  status: ('A' for Active; 'I' for Inactive)
REMARK    1  A    between atoms: C_1  and  O_2
REMARK    2  A    between atoms: O_2  and  C_3
REMARK    3  A    between atoms: C_3  and  C_4
REMARK    4  A    between atoms: C_4  and  N_5
REMARK    5  A    between atoms: C_6  and  S_7
REMARK    6  A    between atoms: S_7  and  C_8
REMARK    7  A    between atoms: C_8  and  C_9
REMARK    8  A    between atoms: C_8  and  C_10
REMARK    9  A    between atoms: N_12  and  C_13
REMARK   10  A    between atoms: C_18  and  C_19
REMARK                            x       y       z     vdW  Elec       q    Type
REMARK                         _______ _______ _______ _____ _____    ______ ____
ROOT
ATOM      1  N   UNL     1      -0.945  11.587  19.954  0.00  0.00    +0.000 N 
ATOM      2  C   UNL     1      -0.286  10.644  19.171  0.00  0.00    +0.000 A 
ATOM      3  N   UNL     1      -0.734  10.177  18.054  0.00  0.00    +0.000 NA
ATOM      4  C   UNL     1      -2.003  10.588  17.621  0.00  0.00    +0.000 A 
ATOM      5  C   UNL     1      -2.538  10.039  16.453  0.00  0.00    +0.000 A 
ATOM      6  C   UNL     1      -3.830  10.376  16.028  0.00  0.00    +0.000 A 
ATOM      7  C   UNL     1      -4.604  11.266  16.775  0.00  0.00    +0.000 A 
ATOM      8  C   UNL     1      -4.079  11.825  17.935  0.00  0.00    +0.000 A 
ATOM      9  C   UNL     1      -2.780  11.487  18.342  0.00  0.00    +0.000 A 
ATOM     10  C   UNL     1      -2.210  12.048  19.573  0.00  0.00    +0.000 A 
ATOM     11  O   UNL     1      -2.880  12.856  20.216  0.00  0.00    +0.000 OA
ENDROOT
BRANCH   1  12
ATOM     12  C   UNL     1      -0.491  12.031  21.289  0.00  0.00    +0.000 C 
BRANCH  12  13
ATOM     13  C   UNL     1      -1.311  11.549  22.493  0.00  0.00    +0.000 C 
BRANCH  13  15
ATOM     14  C   UNL     1      -0.273   9.536  23.194  0.00  0.00    +0.000 C 
ATOM     15  O   UNL     1      -0.404  10.932  23.414  0.00  0.00    +0.000 OA
ENDBRANCH  13  15
ENDBRANCH  12  13
ENDBRANCH   1  12
BRANCH   2  16
ATOM     16  S   UNL     1       1.217  10.011  19.794  0.00  0.00    +0.000 S 
BRANCH  16  17
ATOM     17  C   UNL     1       1.532   8.436  18.894  0.00  0.00    +0.000 C 
ATOM     18  C   UNL     1       2.672   8.524  17.882  0.00  0.00    +0.000 C 
BRANCH  17  19
ATOM     19  C   UNL     1       1.885   7.351  19.968  0.00  0.00    +0.000 C 
ATOM     20  O   UNL     1       1.656   7.514  21.165  0.00  0.00    +0.000 OA
ATOM     21  N   UNL     1       2.383   6.184  19.428  0.00  0.00    +0.000 N 
ATOM     22  H   UNL     1       2.674   6.288  18.465  0.00  0.00    +0.000 HD
BRANCH  21  23
ATOM     23  C   UNL     1       2.956   5.049  20.164  0.00  0.00    +0.000 C 
ATOM     24  C   UNL     1       1.896   4.165  20.830  0.00  0.00    +0.000 C 
ATOM     25  C   UNL     1       0.921   3.574  19.813  0.00  0.00    +0.000 C 
ATOM     26  C   UNL     1       1.606   2.908  18.615  0.00  0.00    +0.000 C 
ATOM     27  C   UNL     1       2.826   3.657  18.061  0.00  0.00    +0.000 C 
ATOM     28  C   UNL     1       3.752   4.152  19.188  0.00  0.00    +0.000 C 
ATOM     29  C   UNL     1       5.016   4.858  18.693  0.00  0.00    +0.000 C 
ENDBRANCH  21  23
ENDBRANCH  17  19
ENDBRANCH  16  17
ENDBRANCH   2  16
TORSDOF 7
ENDMDL
MODEL 2
REMARK VINA RESULT:      -7.3      2.689      8.594
REMARK  Name = 
REMARK  10 active torsions:
REMARK  status: ('A' for Active; 'I' for Inactive)
REMARK    1  A    between atoms: C_1  and  O_2
REMARK    2  A    between atoms: O_2  and  C_3
REMARK    3  A    between atoms: C_3  and  C_4
REMARK    4  A    between atoms: C_4  and  N_5
REMARK    5  A    between atoms: C_6  and  S_7
REMARK    6  A    between atoms: S_7  and  C_8
REMARK    7  A    between atoms: C_8  and  C_9
REMARK    8  A    between atoms: C_8  and  C_10
REMARK    9  A    between atoms: N_12  and  C_13
REMARK   10  A    between atoms: C_18  and  C_19
REMARK                            x       y       z     vdW  Elec       q    Type
REMARK                         _______ _______ _______ _____ _____    ______ ____
ROOT
ATOM      1  N   UNL     1       3.144   3.915  18.535  0.00  0.00    +0.000 N 
ATOM      2  C   UNL     1       3.172   5.307  18.528  0.00  0.00    +0.000 A 
ATOM      3  N   UNL     1       3.821   6.023  17.673  0.00  0.00    +0.000 NA
ATOM      4  C   UNL     1       4.613   5.367  16.718  0.00  0.00    +0.000 A 
ATOM      5  C   UNL     1       5.381   6.124  15.830  0.00  0.00    +0.000 A 
ATOM      6  C   UNL     1       6.234   5.501  14.910  0.00  0.00    +0.000 A 
ATOM      7  C   UNL     1       6.331   4.108  14.874  0.00  0.00    +0.000 A 
ATOM      8  C   UNL     1       5.565   3.345  15.748  0.00  0.00    +0.000 A 
ATOM      9  C   UNL     1       4.706   3.981  16.657  0.00  0.00    +0.000 A 
ATOM     10  C   UNL     1       3.902   3.200  17.603  0.00  0.00    +0.000 A 
ATOM     11  O   UNL     1       3.964   1.971  17.551  0.00  0.00    +0.000 OA
ENDROOT
BRANCH   1  12
ATOM     12  C   UNL     1       2.501   3.096  19.584  0.00  0.00    +0.000 C 
BRANCH  12  13
ATOM     13  C   UNL     1       3.409   2.574  20.705  0.00  0.00    +0.000 C 
BRANCH  13  15
ATOM     14  C   UNL     1       1.285   2.735  21.746  0.00  0.00    +0.000 C 
ATOM     15  O   UNL     1       2.691   2.701  21.938  0.00  0.00    +0.000 OA
ENDBRANCH  13  15
ENDBRANCH  12  13
ENDBRANCH   1  12
BRANCH   2  16
ATOM     16  S   UNL     1       2.318   6.121  19.816  0.00  0.00    +0.000 S 
BRANCH  16  17
ATOM     17  C   UNL     1       2.293   7.909  19.376  0.00  0.00    +0.000 C 
ATOM     18  C   UNL     1       1.865   8.180  17.936  0.00  0.00    +0.000 C 
BRANCH  17  19
ATOM     19  C   UNL     1       1.287   8.612  20.350  0.00  0.00    +0.000 C 
ATOM     20  O   UNL     1       1.195   8.300  21.536  0.00  0.00    +0.000 OA
ATOM     21  N   UNL     1       0.597   9.655  19.768  0.00  0.00    +0.000 N 
ATOM     22  H   UNL     1       0.657   9.653  18.759  0.00  0.00    +0.000 HD
BRANCH  21  23
ATOM     23  C   UNL     1      -0.524  10.403  20.354  0.00  0.00    +0.000 C 
ATOM     24  C   UNL     1      -0.085  11.408  21.423  0.00  0.00    +0.000 C 
ATOM     25  C   UNL     1       0.887  12.449  20.866  0.00  0.00    +0.000 C 
ATOM     26  C   UNL     1       0.409  13.108  19.567  0.00  0.00    +0.000 C 
ATOM     27  C   UNL     1      -0.253  12.158  18.559  0.00  0.00    +0.000 C 
ATOM     28  C   UNL     1      -1.246  11.201  19.244  0.00  0.00    +0.000 C 
ATOM     29  C   UNL     1      -1.980  10.266  18.279  0.00  0.00    +0.000 C 
ENDBRANCH  21  23
ENDBRANCH  17  19
ENDBRANCH  16  17
ENDBRANCH   2  16
TORSDOF 7
ENDMDL
MODEL 3
REMARK VINA RESULT:      -7.3      2.415      8.521
REMARK  Name = 
REMARK  10 active torsions:
REMARK  status: ('A' for Active; 'I' for Inactive)
REMARK    1  A    between atoms: C_1  and  O_2
REMARK    2  A    between atoms: O_2  and  C_3
REMARK    3  A    between atoms: C_3  and  C_4
REMARK    4  A    between atoms: C_4  and  N_5
REMARK    5  A    between atoms: C_6  and  S_7
REMARK    6  A    between atoms: S_7  and  C_8
REMARK    7  A    between atoms: C_8  and  C_9
REMARK    8  A    between atoms: C_8  and  C_10
REMARK    9  A    between atoms: N_12  and  C_13
REMARK   10  A    between atoms: C_18  and  C_19
REMARK                            x       y       z     vdW  Elec       q    Type
REMARK                         _______ _______ _______ _____ _____    ______ ____
ROOT
ATOM      1  N   UNL     1       2.465   4.649  18.132  0.00  0.00    +0.000 N 
ATOM      2  C   UNL     1       3.054   5.805  18.637  0.00  0.00    +0.000 A 
ATOM      3  N   UNL     1       4.193   6.275  18.253  0.00  0.00    +0.000 NA
ATOM      4  C   UNL     1       4.931   5.545  17.309  0.00  0.00    +0.000 A 
ATOM      5  C   UNL     1       6.199   5.998  16.935  0.00  0.00    +0.000 A 
ATOM      6  C   UNL     1       6.991   5.258  16.048  0.00  0.00    +0.000 A 
ATOM      7  C   UNL     1       6.522   4.050  15.529  0.00  0.00    +0.000 A 
ATOM      8  C   UNL     1       5.259   3.593  15.889  0.00  0.00    +0.000 A 
ATOM      9  C   UNL     1       4.472   4.350  16.770  0.00  0.00    +0.000 A 
ATOM     10  C   UNL     1       3.143   3.881  17.180  0.00  0.00    +0.000 A 
ATOM     11  O   UNL     1       2.717   2.831  16.700  0.00  0.00    +0.000 OA
ENDROOT
BRANCH   1  12
ATOM     12  C   UNL     1       1.221   4.046  18.655  0.00  0.00    +0.000 C 
BRANCH  12  13
ATOM     13  C   UNL     1       1.380   2.854  19.608  0.00  0.00    +0.000 C 
BRANCH  13  15
ATOM     14  C   UNL     1       2.208   3.158  21.809  0.00  0.00    +0.000 C 
ATOM     15  O   UNL     1       1.103   3.320  20.934  0.00  0.00    +0.000 OA
ENDBRANCH  13  15
ENDBRANCH  12  13
ENDBRANCH   1  12
BRANCH   2  16
ATOM     16  S   UNL     1       2.209   6.623  19.928  0.00  0.00    +0.000 S 
BRANCH  16  17
ATOM     17  C   UNL     1       2.042   8.382  19.409  0.00  0.00    +0.000 C 
ATOM     18  C   UNL     1       1.693   8.555  17.932  0.00  0.00    +0.000 C 
BRANCH  17  19
ATOM     19  C   UNL     1       0.905   9.017  20.281  0.00  0.00    +0.000 C 
ATOM     20  O   UNL     1       0.590   8.562  21.379  0.00  0.00    +0.000 OA
ATOM     21  N   UNL     1       0.373  10.167  19.737  0.00  0.00    +0.000 N 
ATOM     22  H   UNL     1       0.614  10.290  18.763  0.00  0.00    +0.000 HD
BRANCH  21  23
ATOM     23  C   UNL     1      -0.805  10.903  20.217  0.00  0.00    +0.000 C 
ATOM     24  C   UNL     1      -0.449  12.074  21.140  0.00  0.00    +0.000 C 
ATOM     25  C   UNL     1       0.449  13.097  20.446  0.00  0.00    +0.000 C 
ATOM     26  C   UNL     1      -0.064  13.538  19.070  0.00  0.00    +0.000 C 
ATOM     27  C   UNL     1      -0.646  12.415  18.201  0.00  0.00    +0.000 C 
ATOM     28  C   UNL     1      -1.573  11.489  19.010  0.00  0.00    +0.000 C 
ATOM     29  C   UNL     1      -2.228  10.381  18.182  0.00  0.00    +0.000 C 
ENDBRANCH  21  23
ENDBRANCH  17  19
ENDBRANCH  16  17
ENDBRANCH   2  16
TORSDOF 7
ENDMDL
MODEL 4
REMARK VINA RESULT:      -7.1      0.955      1.136
REMARK  Name = 
REMARK  10 active torsions:
REMARK  status: ('A' for Active; 'I' for Inactive)
REMARK    1  A    between atoms: C_1  and  O_2
REMARK    2  A    between atoms: O_2  and  C_3
REMARK    3  A    between atoms: C_3  and  C_4
REMARK    4  A    between atoms: C_4  and  N_5
REMARK    5  A    between atoms: C_6  and  S_7
REMARK    6  A    between atoms: S_7  and  C_8
REMARK    7  A    between atoms: C_8  and  C_9
REMARK    8  A    between atoms: C_8  and  C_10
REMARK    9  A    between atoms: N_12  and  C_13
REMARK   10  A    between atoms: C_18  and  C_19
REMARK                            x       y       z     vdW  Elec       q    Type
REMARK                         _______ _______ _______ _____ _____    ______ ____
ROOT
ATOM      1  N   UNL     1      -1.087  11.574  20.009  0.00  0.00    +0.000 N 
ATOM      2  C   UNL     1      -0.377  10.704  19.186  0.00  0.00    +0.000 A 
ATOM      3  N   UNL     1      -0.775  10.303  18.025  0.00  0.00    +0.000 NA
ATOM      4  C   UNL     1      -2.041  10.711  17.578  0.00  0.00    +0.000 A 
ATOM      5  C   UNL     1      -2.521  10.229  16.358  0.00  0.00    +0.000 A 
ATOM      6  C   UNL     1      -3.808  10.562  15.913  0.00  0.00    +0.000 A 
ATOM      7  C   UNL     1      -4.630  11.378  16.691  0.00  0.00    +0.000 A 
ATOM      8  C   UNL     1      -4.159  11.870  17.904  0.00  0.00    +0.000 A 
ATOM      9  C   UNL     1      -2.865  11.537  18.332  0.00  0.00    +0.000 A 
ATOM     10  C   UNL     1      -2.350  12.027  19.617  0.00  0.00    +0.000 A 
ATOM     11  O   UNL     1      -3.063  12.771  20.289  0.00  0.00    +0.000 OA
ENDROOT
BRANCH   1  12
ATOM     12  C   UNL     1      -0.689  11.936  21.385  0.00  0.00    +0.000 C 
BRANCH  12  13
ATOM     13  C   UNL     1       0.179  13.191  21.545  0.00  0.00    +0.000 C 
BRANCH  13  15
ATOM     14  C   UNL     1      -1.341  13.325  23.360  0.00  0.00    +0.000 C 
ATOM     15  O   UNL     1      -0.462  14.040  22.505  0.00  0.00    +0.000 OA
ENDBRANCH  13  15
ENDBRANCH  12  13
ENDBRANCH   1  12
BRANCH   2  16
ATOM     16  S   UNL     1       1.123  10.068  19.816  0.00  0.00    +0.000 S 
BRANCH  16  17
ATOM     17  C   UNL     1       1.523   8.581  18.806  0.00  0.00    +0.000 C 
ATOM     18  C   UNL     1       2.687   8.792  17.839  0.00  0.00    +0.000 C 
BRANCH  17  19
ATOM     19  C   UNL     1       1.888   7.428  19.802  0.00  0.00    +0.000 C 
ATOM     20  O   UNL     1       1.521   7.434  20.975  0.00  0.00    +0.000 OA
ATOM     21  N   UNL     1       2.572   6.386  19.210  0.00  0.00    +0.000 N 
ATOM     22  H   UNL     1       2.945   6.626  18.301  0.00  0.00    +0.000 HD
BRANCH  21  23
ATOM     23  C   UNL     1       3.195   5.243  19.891  0.00  0.00    +0.000 C 
ATOM     24  C   UNL     1       2.182   4.185  20.341  0.00  0.00    +0.000 C 
ATOM     25  C   UNL     1       1.394   3.610  19.165  0.00  0.00    +0.000 C 
ATOM     26  C   UNL     1       2.272   3.156  17.994  0.00  0.00    +0.000 C 
ATOM     27  C   UNL     1       3.447   4.087  17.661  0.00  0.00    +0.000 C 
ATOM     28  C   UNL     1       4.187   4.549  18.930  0.00  0.00    +0.000 C 
ATOM     29  C   UNL     1       5.404   5.436  18.656  0.00  0.00    +0.000 C 
ENDBRANCH  21  23
ENDBRANCH  17  19
ENDBRANCH  16  17
ENDBRANCH   2  16
TORSDOF 7
ENDMDL
MODEL 5
REMARK VINA RESULT:      -7.0      1.130      1.662
REMARK  Name = 
REMARK  10 active torsions:
REMARK  status: ('A' for Active; 'I' for Inactive)
REMARK    1  A    between atoms: C_1  and  O_2
REMARK    2  A    between atoms: O_2  and  C_3
REMARK    3  A    between atoms: C_3  and  C_4
REMARK    4  A    between atoms: C_4  and  N_5
REMARK    5  A    between atoms: C_6  and  S_7
REMARK    6  A    between atoms: S_7  and  C_8
REMARK    7  A    between atoms: C_8  and  C_9
REMARK    8  A    between atoms: C_8  and  C_10
REMARK    9  A    between atoms: N_12  and  C_13
REMARK   10  A    between atoms: C_18  and  C_19
REMARK                            x       y       z     vdW  Elec       q    Type
REMARK                         _______ _______ _______ _____ _____    ______ ____
ROOT
ATOM      1  N   UNL     1      -0.644  11.525  19.711  0.00  0.00    +0.000 N 
ATOM      2  C   UNL     1      -0.021  10.589  18.890  0.00  0.00    +0.000 A 
ATOM      3  N   UNL     1      -0.533  10.108  17.807  0.00  0.00    +0.000 NA
ATOM      4  C   UNL     1      -1.835  10.496  17.456  0.00  0.00    +0.000 A 
ATOM      5  C   UNL     1      -2.435   9.931  16.328  0.00  0.00    +0.000 A 
ATOM      6  C   UNL     1      -3.758  10.244  15.988  0.00  0.00    +0.000 A 
ATOM      7  C   UNL     1      -4.497  11.124  16.779  0.00  0.00    +0.000 A 
ATOM      8  C   UNL     1      -3.906  11.698  17.900  0.00  0.00    +0.000 A 
ATOM      9  C   UNL     1      -2.578  11.385  18.223  0.00  0.00    +0.000 A 
ATOM     10  C   UNL     1      -1.938  11.962  19.412  0.00  0.00    +0.000 A 
ATOM     11  O   UNL     1      -2.579  12.762  20.093  0.00  0.00    +0.000 OA
ENDROOT
BRANCH   1  12
ATOM     12  C   UNL     1      -0.111  11.984  21.011  0.00  0.00    +0.000 C 
BRANCH  12  13
ATOM     13  C   UNL     1       0.950  13.091  20.970  0.00  0.00    +0.000 C 
BRANCH  13  15
ATOM     14  C   UNL     1       1.291  14.490  19.086  0.00  0.00    +0.000 C 
ATOM     15  O   UNL     1       0.431  14.156  20.166  0.00  0.00    +0.000 OA
ENDBRANCH  13  15
ENDBRANCH  12  13
ENDBRANCH   1  12
BRANCH   2  16
ATOM     16  S   UNL     1       1.531   9.985  19.416  0.00  0.00    +0.000 S 
BRANCH  16  17
ATOM     17  C   UNL     1       1.727   8.321  18.653  0.00  0.00    +0.000 C 
ATOM     18  C   UNL     1       2.892   8.231  17.669  0.00  0.00    +0.000 C 
BRANCH  17  19
ATOM     19  C   UNL     1       1.964   7.301  19.820  0.00  0.00    +0.000 C 
ATOM     20  O   UNL     1       1.671   7.559  20.986  0.00  0.00    +0.000 OA
ATOM     21  N   UNL     1       2.440   6.079  19.393  0.00  0.00    +0.000 N 
ATOM     22  H   UNL     1       2.793   6.102  18.446  0.00  0.00    +0.000 HD
BRANCH  21  23
ATOM     23  C   UNL     1       2.914   4.976  20.240  0.00  0.00    +0.000 C 
ATOM     24  C   UNL     1       1.775   4.152  20.850  0.00  0.00    +0.000 C 
ATOM     25  C   UNL     1       0.884   3.524  19.779  0.00  0.00    +0.000 C 
ATOM     26  C   UNL     1       1.661   2.778  18.689  0.00  0.00    +0.000 C 
ATOM     27  C   UNL     1       2.945   3.471  18.212  0.00  0.00    +0.000 C 
ATOM     28  C   UNL     1       3.774   4.010  19.392  0.00  0.00    +0.000 C 
ATOM     29  C   UNL     1       5.096   4.663  18.981  0.00  0.00    +0.000 C 
ENDBRANCH  21  23
ENDBRANCH  17  19
ENDBRANCH  16  17
ENDBRANCH   2  16
TORSDOF 7
ENDMDL
MODEL 6
REMARK VINA RESULT:      -7.0      2.831      8.756
REMARK  Name = 
REMARK  10 active torsions:
REMARK  status: ('A' for Active; 'I' for Inactive)
REMARK    1  A    between atoms: C_1  and  O_2
REMARK    2  A    between atoms: O_2  and  C_3
REMARK    3  A    between atoms: C_3  and  C_4
REMARK    4  A    between atoms: C_4  and  N_5
REMARK    5  A    between atoms: C_6  and  S_7
REMARK    6  A    between atoms: S_7  and  C_8
REMARK    7  A    between atoms: C_8  and  C_9
REMARK    8  A    between atoms: C_8  and  C_10
REMARK    9  A    between atoms: N_12  and  C_13
REMARK   10  A    between atoms: C_18  and  C_19
REMARK                            x       y       z     vdW  Elec       q    Type
REMARK                         _______ _______ _______ _____ _____    ______ ____
ROOT
ATOM      1  N   UNL     1       4.081   5.521  17.330  0.00  0.00    +0.000 N 
ATOM      2  C   UNL     1       3.147   6.277  18.034  0.00  0.00    +0.000 A 
ATOM      3  N   UNL     1       2.218   5.784  18.781  0.00  0.00    +0.000 NA
ATOM      4  C   UNL     1       2.085   4.389  18.846  0.00  0.00    +0.000 A 
ATOM      5  C   UNL     1       1.040   3.836  19.590  0.00  0.00    +0.000 A 
ATOM      6  C   UNL     1       0.837   2.450  19.621  0.00  0.00    +0.000 A 
ATOM      7  C   UNL     1       1.679   1.601  18.900  0.00  0.00    +0.000 A 
ATOM      8  C   UNL     1       2.727   2.140  18.161  0.00  0.00    +0.000 A 
ATOM      9  C   UNL     1       2.925   3.529  18.148  0.00  0.00    +0.000 A 
ATOM     10  C   UNL     1       4.011   4.125  17.361  0.00  0.00    +0.000 A 
ATOM     11  O   UNL     1       4.772   3.375  16.750  0.00  0.00    +0.000 OA
ENDROOT
BRANCH   1  12
ATOM     12  C   UNL     1       5.067   6.080  16.381  0.00  0.00    +0.000 C 
BRANCH  12  13
ATOM     13  C   UNL     1       6.462   6.391  16.939  0.00  0.00    +0.000 C 
BRANCH  13  15
ATOM     14  C   UNL     1       6.903   5.060  15.027  0.00  0.00    +0.000 C 
ATOM     15  O   UNL     1       7.419   6.015  15.941  0.00  0.00    +0.000 OA
ENDBRANCH  13  15
ENDBRANCH  12  13
ENDBRANCH   1  12
BRANCH   2  16
ATOM     16  S   UNL     1       3.212   8.009  17.821  0.00  0.00    +0.000 S 
BRANCH  16  17
ATOM     17  C   UNL     1       1.691   8.687  18.606  0.00  0.00    +0.000 C 
ATOM     18  C   UNL     1       1.666   8.539  20.126  0.00  0.00    +0.000 C 
BRANCH  17  19
ATOM     19  C   UNL     1       1.618  10.209  18.240  0.00  0.00    +0.000 C 
ATOM     20  O   UNL     1       2.441  10.745  17.500  0.00  0.00    +0.000 OA
ATOM     21  N   UNL     1       0.507  10.846  18.751  0.00  0.00    +0.000 N 
ATOM     22  H   UNL     1       0.045  10.312  19.475  0.00  0.00    +0.000 HD
BRANCH  21  23
ATOM     23  C   UNL     1       0.232  12.289  18.729  0.00  0.00    +0.000 C 
ATOM     24  C   UNL     1      -1.185  12.625  18.254  0.00  0.00    +0.000 C 
ATOM     25  C   UNL     1      -2.253  11.995  19.146  0.00  0.00    +0.000 C 
ATOM     26  C   UNL     1      -2.035  12.245  20.643  0.00  0.00    +0.000 C 
ATOM     27  C   UNL     1      -0.579  12.143  21.116  0.00  0.00    +0.000 C 
ATOM     28  C   UNL     1       0.385  12.864  20.156  0.00  0.00    +0.000 C 
ATOM     29  C   UNL     1       1.848  12.844  20.606  0.00  0.00    +0.000 C 
ENDBRANCH  21  23
ENDBRANCH  17  19
ENDBRANCH  16  17
ENDBRANCH   2  16
TORSDOF 7
ENDMDL
MODEL 7
REMARK VINA RESULT:      -6.9      3.617      6.037
REMARK  Name = 
REMARK  10 active torsions:
REMARK  status: ('A' for Active; 'I' for Inactive)
REMARK    1  A    between atoms: C_1  and  O_2
REMARK    2  A    between atoms: O_2  and  C_3
REMARK    3  A    between atoms: C_3  and  C_4
REMARK    4  A    between atoms: C_4  and  N_5
REMARK    5  A    between atoms: C_6  and  S_7
REMARK    6  A    between atoms: S_7  and  C_8
REMARK    7  A    between atoms: C_8  and  C_9
REMARK    8  A    between atoms: C_8  and  C_10
REMARK    9  A    between atoms: N_12  and  C_13
REMARK   10  A    between atoms: C_18  and  C_19
REMARK                            x       y       z     vdW  Elec       q    Type
REMARK                         _______ _______ _______ _____ _____    ______ ____
ROOT
ATOM      1  N   UNL     1       1.974   6.162  20.165  0.00  0.00    +0.000 N 
ATOM      2  C   UNL     1       2.587   6.134  18.915  0.00  0.00    +0.000 A 
ATOM      3  N   UNL     1       2.735   7.162  18.148  0.00  0.00    +0.000 NA
ATOM      4  C   UNL     1       2.186   8.385  18.560  0.00  0.00    +0.000 A 
ATOM      5  C   UNL     1       2.271   9.492  17.712  0.00  0.00    +0.000 A 
ATOM      6  C   UNL     1       1.675  10.711  18.062  0.00  0.00    +0.000 A 
ATOM      7  C   UNL     1       0.980  10.832  19.267  0.00  0.00    +0.000 A 
ATOM      8  C   UNL     1       0.896   9.738  20.123  0.00  0.00    +0.000 A 
ATOM      9  C   UNL     1       1.507   8.527  19.764  0.00  0.00    +0.000 A 
ATOM     10  C   UNL     1       1.416   7.353  20.640  0.00  0.00    +0.000 A 
ATOM     11  O   UNL     1       0.830   7.467  21.716  0.00  0.00    +0.000 OA
ENDROOT
BRANCH   1  12
ATOM     12  C   UNL     1       1.697   4.966  20.987  0.00  0.00    +0.000 C 
BRANCH  12  13
ATOM     13  C   UNL     1       0.664   3.973  20.436  0.00  0.00    +0.000 C 
BRANCH  13  15
ATOM     14  C   UNL     1       1.719   2.508  21.973  0.00  0.00    +0.000 C 
ATOM     15  O   UNL     1       1.165   2.653  20.674  0.00  0.00    +0.000 OA
ENDBRANCH  13  15
ENDBRANCH  12  13
ENDBRANCH   1  12
BRANCH   2  16
ATOM     16  S   UNL     1       3.122   4.577  18.332  0.00  0.00    +0.000 S 
BRANCH  16  17
ATOM     17  C   UNL     1       4.412   3.996  19.511  0.00  0.00    +0.000 C 
ATOM     18  C   UNL     1       4.465   2.478  19.663  0.00  0.00    +0.000 C 
BRANCH  17  19
ATOM     19  C   UNL     1       5.794   4.506  18.975  0.00  0.00    +0.000 C 
ATOM     20  O   UNL     1       6.686   4.894  19.727  0.00  0.00    +0.000 OA
ATOM     21  N   UNL     1       5.930   4.388  17.608  0.00  0.00    +0.000 N 
ATOM     22  H   UNL     1       5.050   4.228  17.136  0.00  0.00    +0.000 HD
BRANCH  21  23
ATOM     23  C   UNL     1       7.025   4.920  16.784  0.00  0.00    +0.000 C 
ATOM     24  C   UNL     1       7.296   4.084  15.530  0.00  0.00    +0.000 C 
ATOM     25  C   UNL     1       6.071   4.000  14.620  0.00  0.00    +0.000 C 
ATOM     26  C   UNL     1       5.430   5.359  14.320  0.00  0.00    +0.000 C 
ATOM     27  C   UNL     1       5.350   6.321  15.514  0.00  0.00    +0.000 C 
ATOM     28  C   UNL     1       6.666   6.349  16.313  0.00  0.00    +0.000 C 
ATOM     29  C   UNL     1       6.666   7.333  17.486  0.00  0.00    +0.000 C 
ENDBRANCH  21  23
ENDBRANCH  17  19
ENDBRANCH  16  17
ENDBRANCH   2  16
TORSDOF 7
ENDMDL
MODEL 8
REMARK VINA RESULT:      -6.8      2.742      8.675
REMARK  Name = 
REMARK  10 active torsions:
REMARK  status: ('A' for Active; 'I' for Inactive)
REMARK    1  A    between atoms: C_1  and  O_2
REMARK    2  A    between atoms: O_2  and  C_3
REMARK    3  A    between atoms: C_3  and  C_4
REMARK    4  A    between atoms: C_4  and  N_5
REMARK    5  A    between atoms: C_6  and  S_7
REMARK    6  A    between atoms: S_7  and  C_8
REMARK    7  A    between atoms: C_8  and  C_9
REMARK    8  A    between atoms: C_8  and  C_10
REMARK    9  A    between atoms: N_12  and  C_13
REMARK   10  A    between atoms: C_18  and  C_19
REMARK                            x       y       z     vdW  Elec       q    Type
REMARK                         _______ _______ _______ _____ _____    ______ ____
ROOT
ATOM      1  N   UNL     1       4.519   5.750  18.400  0.00  0.00    +0.000 N 
ATOM      2  C   UNL     1       3.244   6.276  18.212  0.00  0.00    +0.000 A 
ATOM      3  N   UNL     1       2.149   5.600  18.319  0.00  0.00    +0.000 NA
ATOM      4  C   UNL     1       2.239   4.223  18.575  0.00  0.00    +0.000 A 
ATOM      5  C   UNL     1       1.070   3.459  18.620  0.00  0.00    +0.000 A 
ATOM      6  C   UNL     1       1.127   2.072  18.806  0.00  0.00    +0.000 A 
ATOM      7  C   UNL     1       2.361   1.432  18.942  0.00  0.00    +0.000 A 
ATOM      8  C   UNL     1       3.530   2.184  18.906  0.00  0.00    +0.000 A 
ATOM      9  C   UNL     1       3.458   3.574  18.731  0.00  0.00    +0.000 A 
ATOM     10  C   UNL     1       4.678   4.387  18.669  0.00  0.00    +0.000 A 
ATOM     11  O   UNL     1       5.764   3.828  18.819  0.00  0.00    +0.000 OA
ENDROOT
BRANCH   1  12
ATOM     12  C   UNL     1       5.774   6.494  18.160  0.00  0.00    +0.000 C 
BRANCH  12  13
ATOM     13  C   UNL     1       6.274   6.553  16.710  0.00  0.00    +0.000 C 
BRANCH  13  15
ATOM     14  C   UNL     1       7.888   8.016  17.648  0.00  0.00    +0.000 C 
ATOM     15  O   UNL     1       7.651   6.947  16.745  0.00  0.00    +0.000 OA
ENDBRANCH  13  15
ENDBRANCH  12  13
ENDBRANCH   1  12
BRANCH   2  16
ATOM     16  S   UNL     1       3.143   7.952  17.732  0.00  0.00    +0.000 S 
BRANCH  16  17
ATOM     17  C   UNL     1       1.652   8.643  18.565  0.00  0.00    +0.000 C 
ATOM     18  C   UNL     1       1.664   8.474  20.083  0.00  0.00    +0.000 C 
BRANCH  17  19
ATOM     19  C   UNL     1       1.595  10.171  18.220  0.00  0.00    +0.000 C 
ATOM     20  O   UNL     1       2.407  10.704  17.466  0.00  0.00    +0.000 OA
ATOM     21  N   UNL     1       0.508  10.817  18.770  0.00  0.00    +0.000 N 
ATOM     22  H   UNL     1       0.057  10.281  19.498  0.00  0.00    +0.000 HD
BRANCH  21  23
ATOM     23  C   UNL     1       0.256  12.265  18.773  0.00  0.00    +0.000 C 
ATOM     24  C   UNL     1      -1.160  12.631  18.315  0.00  0.00    +0.000 C 
ATOM     25  C   UNL     1      -2.231  12.003  19.205  0.00  0.00    +0.000 C 
ATOM     26  C   UNL     1      -1.998  12.224  20.704  0.00  0.00    +0.000 C 
ATOM     27  C   UNL     1      -0.540  12.091  21.164  0.00  0.00    +0.000 C 
ATOM     28  C   UNL     1       0.429  12.813  20.209  0.00  0.00    +0.000 C 
ATOM     29  C   UNL     1       1.894  12.762  20.647  0.00  0.00    +0.000 C 
ENDBRANCH  21  23
ENDBRANCH  17  19
ENDBRANCH  16  17
ENDBRANCH   2  16
TORSDOF 7
ENDMDL
MODEL 9
REMARK VINA RESULT:      -6.8      2.814      8.854
REMARK  Name = 
REMARK  10 active torsions:
REMARK  status: ('A' for Active; 'I' for Inactive)
REMARK    1  A    between atoms: C_1  and  O_2
REMARK    2  A    between atoms: O_2  and  C_3
REMARK    3  A    between atoms: C_3  and  C_4
REMARK    4  A    between atoms: C_4  and  N_5
REMARK    5  A    between atoms: C_6  and  S_7
REMARK    6  A    between atoms: S_7  and  C_8
REMARK    7  A    between atoms: C_8  and  C_9
REMARK    8  A    between atoms: C_8  and  C_10
REMARK    9  A    between atoms: N_12  and  C_13
REMARK   10  A    between atoms: C_18  and  C_19
REMARK                            x       y       z     vdW  Elec       q    Type
REMARK                         _______ _______ _______ _____ _____    ______ ____
ROOT
ATOM      1  N   UNL     1       4.343   5.832  18.562  0.00  0.00    +0.000 N 
ATOM      2  C   UNL     1       3.113   6.453  18.763  0.00  0.00    +0.000 A 
ATOM      3  N   UNL     1       2.152   5.963  19.472  0.00  0.00    +0.000 NA
ATOM      4  C   UNL     1       2.319   4.686  20.030  0.00  0.00    +0.000 A 
ATOM      5  C   UNL     1       1.264   4.107  20.739  0.00  0.00    +0.000 A 
ATOM      6  C   UNL     1       1.373   2.807  21.251  0.00  0.00    +0.000 A 
ATOM      7  C   UNL     1       2.541   2.070  21.052  0.00  0.00    +0.000 A 
ATOM      8  C   UNL     1       3.601   2.640  20.354  0.00  0.00    +0.000 A 
ATOM      9  C   UNL     1       3.482   3.946  19.857  0.00  0.00    +0.000 A 
ATOM     10  C   UNL     1       4.578   4.563  19.100  0.00  0.00    +0.000 A 
ATOM     11  O   UNL     1       5.620   3.926  18.950  0.00  0.00    +0.000 OA
ENDROOT
BRANCH   1  12
ATOM     12  C   UNL     1       5.395   6.335  17.654  0.00  0.00    +0.000 C 
BRANCH  12  13
ATOM     13  C   UNL     1       5.275   5.943  16.175  0.00  0.00    +0.000 C 
BRANCH  13  15
ATOM     14  C   UNL     1       7.043   4.639  15.284  0.00  0.00    +0.000 C 
ATOM     15  O   UNL     1       6.595   5.943  15.620  0.00  0.00    +0.000 OA
ENDBRANCH  13  15
ENDBRANCH  12  13
ENDBRANCH   1  12
BRANCH   2  16
ATOM     16  S   UNL     1       2.846   7.966  17.933  0.00  0.00    +0.000 S 
BRANCH  16  17
ATOM     17  C   UNL     1       1.460   8.804  18.810  0.00  0.00    +0.000 C 
ATOM     18  C   UNL     1       1.560   8.723  20.332  0.00  0.00    +0.000 C 
BRANCH  17  19
ATOM     19  C   UNL     1       1.479  10.309  18.375  0.00  0.00    +0.000 C 
ATOM     20  O   UNL     1       2.282  10.744  17.552  0.00  0.00    +0.000 OA
ATOM     21  N   UNL     1       0.462  11.055  18.935  0.00  0.00    +0.000 N 
ATOM     22  H   UNL     1       0.018  10.592  19.716  0.00  0.00    +0.000 HD
BRANCH  21  23
ATOM     23  C   UNL     1       0.300  12.514  18.861  0.00  0.00    +0.000 C 
ATOM     24  C   UNL     1      -1.120  12.943  18.479  0.00  0.00    +0.000 C 
ATOM     25  C   UNL     1      -2.160  12.441  19.480  0.00  0.00    +0.000 C 
ATOM     26  C   UNL     1      -1.805  12.738  20.941  0.00  0.00    +0.000 C 
ATOM     27  C   UNL     1      -0.328  12.538  21.307  0.00  0.00    +0.000 C 
ATOM     28  C   UNL     1       0.610  13.136  20.242  0.00  0.00    +0.000 C 
ATOM     29  C   UNL     1       2.098  13.017  20.580  0.00  0.00    +0.000 C 
ENDBRANCH  21  23
ENDBRANCH  17  19
ENDBRANCH  16  17
ENDBRANCH   2  16
TORSDOF 7
ENDMDL
