MODEL 1
REMARK VINA RESULT:      -7.0      0.000      0.000
REMARK  Name = 
REMARK  13 active torsions:
REMARK  status: ('A' for Active; 'I' for Inactive)
REMARK    1  A    between atoms: C_1  and  O_2
REMARK    2  A    between atoms: O_2  and  C_3
REMARK    3  A    between atoms: C_6  and  C_7
REMARK    4  A    between atoms: C_7  and  C_8
REMARK    5  A    between atoms: C_7  and  C_10
REMARK    6  A    between atoms: C_7  and  C_19
REMARK    7  A    between atoms: C_10  and  C_11
REMARK    8  A    between atoms: C_11  and  C_12
REMARK    9  A    between atoms: C_12  and  N_13
REMARK   10  A    between atoms: C_19  and  C_20
REMARK   11  A    between atoms: C_19  and  C_21
REMARK   12  A    between atoms: C_23  and  O_24
REMARK   13  A    between atoms: O_24  and  C_25
REMARK                            x       y       z     vdW  Elec       q    Type
REMARK                         _______ _______ _______ _____ _____    ______ ____
ROOT
ATOM      1  C   UNL     1       2.562   4.721  19.447  0.00  0.00    +0.000 C 
ENDROOT
BRANCH   1   5
ATOM      2  C   UNL     1       1.544   8.991  19.112  0.00  0.00    +0.000 A 
ATOM      3  C   UNL     1       2.045   8.283  18.014  0.00  0.00    +0.000 A 
ATOM      4  C   UNL     1       2.395   6.935  18.117  0.00  0.00    +0.000 A 
ATOM      5  C   UNL     1       2.307   6.244  19.336  0.00  0.00    +0.000 A 
ATOM      6  C   UNL     1       1.925   7.007  20.453  0.00  0.00    +0.000 A 
ATOM      7  C   UNL     1       1.505   8.349  20.356  0.00  0.00    +0.000 A 
BRANCH   2   9
ATOM      8  C   UNL     1      -0.193  10.506  18.540  0.00  0.00    +0.000 C 
ATOM      9  O   UNL     1       1.138  10.294  19.006  0.00  0.00    +0.000 OA
ENDBRANCH   2   9
BRANCH   7  10
ATOM     10  O   UNL     1       1.069   8.829  21.561  0.00  0.00    +0.000 OA
ATOM     11  C   UNL     1      -0.312   8.768  21.882  0.00  0.00    +0.000 C 
ENDBRANCH   7  10
ENDBRANCH   1   5
BRANCH   1  12
ATOM     12  C   UNL     1       1.478   3.983  20.363  0.00  0.00    +0.000 C 
ATOM     13  C   UNL     1       0.622   2.904  19.685  0.00  0.00    +0.000 C 
ATOM     14  C   UNL     1       2.056   3.385  21.663  0.00  0.00    +0.000 C 
ENDBRANCH   1  12
BRANCH   1  15
ATOM     15  C   UNL     1       2.415   4.061  18.086  0.00  0.00    +0.000 C 
ATOM     16  N   UNL     1       2.292   3.513  16.956  0.00  0.00    +0.000 NA
ENDBRANCH   1  15
BRANCH   1  17
ATOM     17  C   UNL     1       4.027   4.426  19.929  0.00  0.00    +0.000 C 
BRANCH  17  18
ATOM     18  C   UNL     1       5.194   5.251  19.309  0.00  0.00    +0.000 C 
BRANCH  18  19
ATOM     19  C   UNL     1       6.071   4.507  18.283  0.00  0.00    +0.000 C 
BRANCH  19  20
ATOM     20  N   UNL     1       6.903   5.360  17.425  0.00  0.00    +0.000 NA
ATOM     21  C   UNL     1       6.248   6.605  16.989  0.00  0.00    +0.000 C 
ATOM     22  C   UNL     1       5.188   6.410  15.896  0.00  0.00    +0.000 C 
ATOM     23  O   UNL     1       5.744   5.755  14.748  0.00  0.00    +0.000 OA
ATOM     24  C   UNL     1       6.285   4.480  15.112  0.00  0.00    +0.000 C 
ATOM     25  C   UNL     1       7.348   4.610  16.219  0.00  0.00    +0.000 C 
ENDBRANCH  19  20
ENDBRANCH  18  19
ENDBRANCH  17  18
ENDBRANCH   1  17
TORSDOF 9
ENDMDL
MODEL 2
REMARK VINA RESULT:      -6.8      0.727      1.229
REMARK  Name = 
REMARK  13 active torsions:
REMARK  status: ('A' for Active; 'I' for Inactive)
REMARK    1  A    between atoms: C_1  and  O_2
REMARK    2  A    between atoms: O_2  and  C_3
REMARK    3  A    between atoms: C_6  and  C_7
REMARK    4  A    between atoms: C_7  and  C_8
REMARK    5  A    between atoms: C_7  and  C_10
REMARK    6  A    between atoms: C_7  and  C_19
REMARK    7  A    between atoms: C_10  and  C_11
REMARK    8  A    between atoms: C_11  and  C_12
REMARK    9  A    between atoms: C_12  and  N_13
REMARK   10  A    between atoms: C_19  and  C_20
REMARK   11  A    between atoms: C_19  and  C_21
REMARK   12  A    between atoms: C_23  and  O_24
REMARK   13  A    between atoms: O_24  and  C_25
REMARK                            x       y       z     vdW  Elec       q    Type
REMARK                         _______ _______ _______ _____ _____    ______ ____
ROOT
ATOM      1  C   UNL     1       2.377   4.445  19.455  0.00  0.00    +0.000 C 
ENDROOT
BRANCH   1   5
ATOM      2  C   UNL     1       1.658   8.780  19.178  0.00  0.00    +0.000 A 
ATOM      3  C   UNL     1       2.140   8.060  18.079  0.00  0.00    +0.000 A 
ATOM      4  C   UNL     1       2.396   6.689  18.164  0.00  0.00    +0.000 A 
ATOM      5  C   UNL     1       2.228   5.984  19.367  0.00  0.00    +0.000 A 
ATOM      6  C   UNL     1       1.868   6.751  20.488  0.00  0.00    +0.000 A 
ATOM      7  C   UNL     1       1.542   8.120  20.407  0.00  0.00    +0.000 A 
BRANCH   2   9
ATOM      8  C   UNL     1       0.030  10.418  18.624  0.00  0.00    +0.000 C 
ATOM      9  O   UNL     1       1.343  10.109  19.087  0.00  0.00    +0.000 OA
ENDBRANCH   2   9
BRANCH   7  10
ATOM     10  O   UNL     1       1.106   8.607  21.609  0.00  0.00    +0.000 OA
ATOM     11  C   UNL     1      -0.285   8.655  21.884  0.00  0.00    +0.000 C 
ENDBRANCH   7  10
ENDBRANCH   1   5
BRANCH   1  12
ATOM     12  C   UNL     1       1.208   3.764  20.308  0.00  0.00    +0.000 C 
ATOM     13  C   UNL     1       0.365   2.698  19.594  0.00  0.00    +0.000 C 
ATOM     14  C   UNL     1       1.676   3.177  21.657  0.00  0.00    +0.000 C 
ENDBRANCH   1  12
BRANCH   1  15
ATOM     15  C   UNL     1       2.246   3.824  18.074  0.00  0.00    +0.000 C 
ATOM     16  N   UNL     1       2.137   3.309  16.927  0.00  0.00    +0.000 NA
ENDBRANCH   1  15
BRANCH   1  17
ATOM     17  C   UNL     1       3.797   4.044  19.990  0.00  0.00    +0.000 C 
BRANCH  17  18
ATOM     18  C   UNL     1       5.049   4.736  19.371  0.00  0.00    +0.000 C 
BRANCH  18  19
ATOM     19  C   UNL     1       5.495   4.208  17.993  0.00  0.00    +0.000 C 
BRANCH  19  20
ATOM     20  N   UNL     1       5.219   5.095  16.856  0.00  0.00    +0.000 NA
ATOM     21  C   UNL     1       5.642   4.561  15.551  0.00  0.00    +0.000 C 
ATOM     22  C   UNL     1       7.159   4.604  15.314  0.00  0.00    +0.000 C 
ATOM     23  O   UNL     1       7.665   5.938  15.452  0.00  0.00    +0.000 OA
ATOM     24  C   UNL     1       7.378   6.450  16.758  0.00  0.00    +0.000 C 
ATOM     25  C   UNL     1       5.868   6.419  17.060  0.00  0.00    +0.000 C 
ENDBRANCH  19  20
ENDBRANCH  18  19
ENDBRANCH  17  18
ENDBRANCH   1  17
TORSDOF 9
ENDMDL
MODEL 3
REMARK VINA RESULT:      -6.7      1.136      1.323
REMARK  Name = 
REMARK  13 active torsions:
REMARK  status: ('A' for Active; 'I' for Inactive)
REMARK    1  A    between atoms: C_1  and  O_2
REMARK    2  A    between atoms: O_2  and  C_3
REMARK    3  A    between atoms: C_6  and  C_7
REMARK    4  A    between atoms: C_7  and  C_8
REMARK    5  A    between atoms: C_7  and  C_10
REMARK    6  A    between atoms: C_7  and  C_19
REMARK    7  A    between atoms: C_10  and  C_11
REMARK    8  A    between atoms: C_11  and  C_12
REMARK    9  A    between atoms: C_12  and  N_13
REMARK   10  A    between atoms: C_19  and  C_20
REMARK   11  A    between atoms: C_19  and  C_21
REMARK   12  A    between atoms: C_23  and  O_24
REMARK   13  A    between atoms: O_24  and  C_25
REMARK                            x       y       z     vdW  Elec       q    Type
REMARK                         _______ _______ _______ _____ _____    ______ ____
ROOT
ATOM      1  C   UNL     1       2.646   4.567  19.008  0.00  0.00    +0.000 C 
ENDROOT
BRANCH   1   5
ATOM      2  C   UNL     1       1.600   8.829  19.365  0.00  0.00    +0.000 A 
ATOM      3  C   UNL     1       2.060   8.301  18.154  0.00  0.00    +0.000 A 
ATOM      4  C   UNL     1       2.419   6.956  18.037  0.00  0.00    +0.000 A 
ATOM      5  C   UNL     1       2.381   6.088  19.139  0.00  0.00    +0.000 A 
ATOM      6  C   UNL     1       2.040   6.668  20.373  0.00  0.00    +0.000 A 
ATOM      7  C   UNL     1       1.612   8.005  20.497  0.00  0.00    +0.000 A 
BRANCH   2   9
ATOM      8  C   UNL     1       0.747  10.757  18.271  0.00  0.00    +0.000 C 
ATOM      9  O   UNL     1       1.185  10.129  19.474  0.00  0.00    +0.000 OA
ENDBRANCH   2   9
BRANCH   7  10
ATOM     10  O   UNL     1       1.220   8.293  21.777  0.00  0.00    +0.000 OA
ATOM     11  C   UNL     1      -0.107   8.728  22.024  0.00  0.00    +0.000 C 
ENDBRANCH   7  10
ENDBRANCH   1   5
BRANCH   1  12
ATOM     12  C   UNL     1       1.322   3.694  19.216  0.00  0.00    +0.000 C 
ATOM     13  C   UNL     1       1.275   2.333  18.506  0.00  0.00    +0.000 C 
ATOM     14  C   UNL     1       0.940   3.474  20.695  0.00  0.00    +0.000 C 
ENDBRANCH   1  12
BRANCH   1  15
ATOM     15  C   UNL     1       3.099   4.232  17.596  0.00  0.00    +0.000 C 
ATOM     16  N   UNL     1       3.476   3.955  16.425  0.00  0.00    +0.000 NA
ENDBRANCH   1  15
BRANCH   1  17
ATOM     17  C   UNL     1       3.801   4.109  19.967  0.00  0.00    +0.000 C 
BRANCH  17  18
ATOM     18  C   UNL     1       5.251   4.036  19.404  0.00  0.00    +0.000 C 
BRANCH  18  19
ATOM     19  C   UNL     1       6.048   5.356  19.429  0.00  0.00    +0.000 C 
BRANCH  19  20
ATOM     20  N   UNL     1       7.407   5.284  18.878  0.00  0.00    +0.000 NA
ATOM     21  C   UNL     1       8.061   6.592  18.703  0.00  0.00    +0.000 C 
ATOM     22  C   UNL     1       7.539   7.402  17.508  0.00  0.00    +0.000 C 
ATOM     23  O   UNL     1       7.659   6.660  16.288  0.00  0.00    +0.000 OA
ATOM     24  C   UNL     1       6.931   5.430  16.376  0.00  0.00    +0.000 C 
ATOM     25  C   UNL     1       7.402   4.577  17.568  0.00  0.00    +0.000 C 
ENDBRANCH  19  20
ENDBRANCH  18  19
ENDBRANCH  17  18
ENDBRANCH   1  17
TORSDOF 9
ENDMDL
MODEL 4
REMARK VINA RESULT:      -6.6      1.873      4.991
REMARK  Name = 
REMARK  13 active torsions:
REMARK  status: ('A' for Active; 'I' for Inactive)
REMARK    1  A    between atoms: C_1  and  O_2
REMARK    2  A    between atoms: O_2  and  C_3
REMARK    3  A    between atoms: C_6  and  C_7
REMARK    4  A    between atoms: C_7  and  C_8
REMARK    5  A    between atoms: C_7  and  C_10
REMARK    6  A    between atoms: C_7  and  C_19
REMARK    7  A    between atoms: C_10  and  C_11
REMARK    8  A    between atoms: C_11  and  C_12
REMARK    9  A    between atoms: C_12  and  N_13
REMARK   10  A    between atoms: C_19  and  C_20
REMARK   11  A    between atoms: C_19  and  C_21
REMARK   12  A    between atoms: C_23  and  O_24
REMARK   13  A    between atoms: O_24  and  C_25
REMARK                            x       y       z     vdW  Elec       q    Type
REMARK                         _______ _______ _______ _____ _____    ______ ____
ROOT
ATOM      1  C   UNL     1       4.737   5.815  17.583  0.00  0.00    +0.000 C 
ENDROOT
BRANCH   1   5
ATOM      2  C   UNL     1       1.674   8.312  19.523  0.00  0.00    +0.000 A 
ATOM      3  C   UNL     1       2.081   7.101  20.094  0.00  0.00    +0.000 A 
ATOM      4  C   UNL     1       3.033   6.289  19.474  0.00  0.00    +0.000 A 
ATOM      5  C   UNL     1       3.587   6.627  18.228  0.00  0.00    +0.000 A 
ATOM      6  C   UNL     1       3.069   7.780  17.614  0.00  0.00    +0.000 A 
ATOM      7  C   UNL     1       2.158   8.645  18.253  0.00  0.00    +0.000 A 
BRANCH   2   9
ATOM      8  C   UNL     1       0.811   9.128  21.580  0.00  0.00    +0.000 C 
ATOM      9  O   UNL     1       0.790   9.145  20.154  0.00  0.00    +0.000 OA
ENDBRANCH   2   9
BRANCH   7  10
ATOM     10  O   UNL     1       1.903   9.757  17.497  0.00  0.00    +0.000 OA
ATOM     11  C   UNL     1       2.306  11.033  17.968  0.00  0.00    +0.000 C 
ENDBRANCH   7  10
ENDBRANCH   1   5
BRANCH   1  12
ATOM     12  C   UNL     1       5.753   6.738  16.762  0.00  0.00    +0.000 C 
ATOM     13  C   UNL     1       7.060   7.123  17.470  0.00  0.00    +0.000 C 
ATOM     14  C   UNL     1       6.112   6.189  15.365  0.00  0.00    +0.000 C 
ENDBRANCH   1  12
BRANCH   1  15
ATOM     15  C   UNL     1       5.597   5.174  18.660  0.00  0.00    +0.000 C 
ATOM     16  N   UNL     1       6.310   4.642  19.554  0.00  0.00    +0.000 NA
ENDBRANCH   1  15
BRANCH   1  17
ATOM     17  C   UNL     1       4.177   4.642  16.703  0.00  0.00    +0.000 C 
BRANCH  17  18
ATOM     18  C   UNL     1       3.719   3.333  17.413  0.00  0.00    +0.000 C 
BRANCH  18  19
ATOM     19  C   UNL     1       2.204   3.203  17.668  0.00  0.00    +0.000 C 
BRANCH  19  20
ATOM     20  N   UNL     1       1.810   2.155  18.618  0.00  0.00    +0.000 NA
ATOM     21  C   UNL     1       0.665   2.510  19.473  0.00  0.00    +0.000 C 
ATOM     22  C   UNL     1       1.000   3.505  20.593  0.00  0.00    +0.000 C 
ATOM     23  O   UNL     1       2.059   3.011  21.423  0.00  0.00    +0.000 OA
ATOM     24  C   UNL     1       3.235   2.768  20.642  0.00  0.00    +0.000 C 
ATOM     25  C   UNL     1       2.957   1.785  19.490  0.00  0.00    +0.000 C 
ENDBRANCH  19  20
ENDBRANCH  18  19
ENDBRANCH  17  18
ENDBRANCH   1  17
TORSDOF 9
ENDMDL
MODEL 5
REMARK VINA RESULT:      -6.5      1.396      2.270
REMARK  Name = 
REMARK  13 active torsions:
REMARK  status: ('A' for Active; 'I' for Inactive)
REMARK    1  A    between atoms: C_1  and  O_2
REMARK    2  A    between atoms: O_2  and  C_3
REMARK    3  A    between atoms: C_6  and  C_7
REMARK    4  A    between atoms: C_7  and  C_8
REMARK    5  A    between atoms: C_7  and  C_10
REMARK    6  A    between atoms: C_7  and  C_19
REMARK    7  A    between atoms: C_10  and  C_11
REMARK    8  A    between atoms: C_11  and  C_12
REMARK    9  A    between atoms: C_12  and  N_13
REMARK   10  A    between atoms: C_19  and  C_20
REMARK   11  A    between atoms: C_19  and  C_21
REMARK   12  A    between atoms: C_23  and  O_24
REMARK   13  A    between atoms: O_24  and  C_25
REMARK                            x       y       z     vdW  Elec       q    Type
REMARK                         _______ _______ _______ _____ _____    ______ ____
ROOT
ATOM      1  C   UNL     1       2.419   3.958  19.508  0.00  0.00    +0.000 C 
ENDROOT
BRANCH   1   5
ATOM      2  C   UNL     1       1.664   8.265  20.021  0.00  0.00    +0.000 A 
ATOM      3  C   UNL     1       1.169   7.334  20.941  0.00  0.00    +0.000 A 
ATOM      4  C   UNL     1       1.381   5.963  20.773  0.00  0.00    +0.000 A 
ATOM      5  C   UNL     1       2.057   5.457  19.651  0.00  0.00    +0.000 A 
ATOM      6  C   UNL     1       2.431   6.398  18.678  0.00  0.00    +0.000 A 
ATOM      7  C   UNL     1       2.285   7.788  18.861  0.00  0.00    +0.000 A 
BRANCH   2   9
ATOM      8  C   UNL     1       0.317  10.196  19.709  0.00  0.00    +0.000 C 
ATOM      9  O   UNL     1       1.518   9.613  20.210  0.00  0.00    +0.000 OA
ENDBRANCH   2   9
BRANCH   7  10
ATOM     10  O   UNL     1       2.837   8.494  17.826  0.00  0.00    +0.000 OA
ATOM     11  C   UNL     1       3.924   7.941  17.101  0.00  0.00    +0.000 C 
ENDBRANCH   7  10
ENDBRANCH   1   5
BRANCH   1  12
ATOM     12  C   UNL     1       1.385   3.002  20.267  0.00  0.00    +0.000 C 
ATOM     13  C   UNL     1       0.858   1.794  19.479  0.00  0.00    +0.000 C 
ATOM     14  C   UNL     1       1.885   2.497  21.636  0.00  0.00    +0.000 C 
ENDBRANCH   1  12
BRANCH   1  15
ATOM     15  C   UNL     1       2.327   3.531  18.052  0.00  0.00    +0.000 C 
ATOM     16  N   UNL     1       2.249   3.177  16.843  0.00  0.00    +0.000 NA
ENDBRANCH   1  15
BRANCH   1  17
ATOM     17  C   UNL     1       3.898   3.688  19.958  0.00  0.00    +0.000 C 
BRANCH  17  18
ATOM     18  C   UNL     1       5.050   3.994  18.954  0.00  0.00    +0.000 C 
BRANCH  18  19
ATOM     19  C   UNL     1       5.956   5.187  19.318  0.00  0.00    +0.000 C 
BRANCH  19  20
ATOM     20  N   UNL     1       7.323   5.128  18.784  0.00  0.00    +0.000 NA
ATOM     21  C   UNL     1       8.027   6.421  18.772  0.00  0.00    +0.000 C 
ATOM     22  C   UNL     1       7.559   7.383  17.671  0.00  0.00    +0.000 C 
ATOM     23  O   UNL     1       7.676   6.782  16.375  0.00  0.00    +0.000 OA
ATOM     24  C   UNL     1       6.904   5.578  16.309  0.00  0.00    +0.000 C 
ATOM     25  C   UNL     1       7.319   4.576  17.402  0.00  0.00    +0.000 C 
ENDBRANCH  19  20
ENDBRANCH  18  19
ENDBRANCH  17  18
ENDBRANCH   1  17
TORSDOF 9
ENDMDL
MODEL 6
REMARK VINA RESULT:      -6.4      2.059      6.549
REMARK  Name = 
REMARK  13 active torsions:
REMARK  status: ('A' for Active; 'I' for Inactive)
REMARK    1  A    between atoms: C_1  and  O_2
REMARK    2  A    between atoms: O_2  and  C_3
REMARK    3  A    between atoms: C_6  and  C_7
REMARK    4  A    between atoms: C_7  and  C_8
REMARK    5  A    between atoms: C_7  and  C_10
REMARK    6  A    between atoms: C_7  and  C_19
REMARK    7  A    between atoms: C_10  and  C_11
REMARK    8  A    between atoms: C_11  and  C_12
REMARK    9  A    between atoms: C_12  and  N_13
REMARK   10  A    between atoms: C_19  and  C_20
REMARK   11  A    between atoms: C_19  and  C_21
REMARK   12  A    between atoms: C_23  and  O_24
REMARK   13  A    between atoms: O_24  and  C_25
REMARK                            x       y       z     vdW  Elec       q    Type
REMARK                         _______ _______ _______ _____ _____    ______ ____
ROOT
ATOM      1  C   UNL     1       3.874   4.238  18.255  0.00  0.00    +0.000 C 
ENDROOT
BRANCH   1   5
ATOM      2  C   UNL     1       6.908   5.050  15.170  0.00  0.00    +0.000 A 
ATOM      3  C   UNL     1       6.040   3.960  15.054  0.00  0.00    +0.000 A 
ATOM      4  C   UNL     1       5.091   3.678  16.040  0.00  0.00    +0.000 A 
ATOM      5  C   UNL     1       4.999   4.447  17.211  0.00  0.00    +0.000 A 
ATOM      6  C   UNL     1       5.965   5.456  17.366  0.00  0.00    +0.000 A 
ATOM      7  C   UNL     1       6.885   5.796  16.354  0.00  0.00    +0.000 A 
BRANCH   2   9
ATOM      8  C   UNL     1       7.491   4.893  12.872  0.00  0.00    +0.000 C 
ATOM      9  O   UNL     1       7.797   5.373  14.180  0.00  0.00    +0.000 OA
ENDBRANCH   2   9
BRANCH   7  10
ATOM     10  O   UNL     1       7.633   6.889  16.700  0.00  0.00    +0.000 OA
ATOM     11  C   UNL     1       7.753   7.254  18.066  0.00  0.00    +0.000 C 
ENDBRANCH   7  10
ENDBRANCH   1   5
BRANCH   1  12
ATOM     12  C   UNL     1       2.596   3.501  17.638  0.00  0.00    +0.000 C 
ATOM     13  C   UNL     1       2.128   2.222  18.348  0.00  0.00    +0.000 C 
ATOM     14  C   UNL     1       1.369   4.419  17.454  0.00  0.00    +0.000 C 
ENDBRANCH   1  12
BRANCH   1  15
ATOM     15  C   UNL     1       4.347   3.308  19.360  0.00  0.00    +0.000 C 
ATOM     16  N   UNL     1       4.740   2.535  20.277  0.00  0.00    +0.000 NA
ENDBRANCH   1  15
BRANCH   1  17
ATOM     17  C   UNL     1       3.486   5.592  18.948  0.00  0.00    +0.000 C 
BRANCH  17  18
ATOM     18  C   UNL     1       2.633   5.544  20.251  0.00  0.00    +0.000 C 
BRANCH  18  19
ATOM     19  C   UNL     1       1.509   6.593  20.356  0.00  0.00    +0.000 C 
BRANCH  19  20
ATOM     20  N   UNL     1       1.951   7.970  20.614  0.00  0.00    +0.000 NA
ATOM     21  C   UNL     1       1.353   8.585  21.810  0.00  0.00    +0.000 C 
ATOM     22  C   UNL     1      -0.112   9.009  21.635  0.00  0.00    +0.000 C 
ATOM     23  O   UNL     1      -0.261   9.910  20.530  0.00  0.00    +0.000 OA
ATOM     24  C   UNL     1       0.200   9.298  19.320  0.00  0.00    +0.000 C 
ATOM     25  C   UNL     1       1.664   8.838  19.439  0.00  0.00    +0.000 C 
ENDBRANCH  19  20
ENDBRANCH  18  19
ENDBRANCH  17  18
ENDBRANCH   1  17
TORSDOF 9
ENDMDL
MODEL 7
REMARK VINA RESULT:      -6.3      1.491      1.999
REMARK  Name = 
REMARK  13 active torsions:
REMARK  status: ('A' for Active; 'I' for Inactive)
REMARK    1  A    between atoms: C_1  and  O_2
REMARK    2  A    between atoms: O_2  and  C_3
REMARK    3  A    between atoms: C_6  and  C_7
REMARK    4  A    between atoms: C_7  and  C_8
REMARK    5  A    between atoms: C_7  and  C_10
REMARK    6  A    between atoms: C_7  and  C_19
REMARK    7  A    between atoms: C_10  and  C_11
REMARK    8  A    between atoms: C_11  and  C_12
REMARK    9  A    between atoms: C_12  and  N_13
REMARK   10  A    between atoms: C_19  and  C_20
REMARK   11  A    between atoms: C_19  and  C_21
REMARK   12  A    between atoms: C_23  and  O_24
REMARK   13  A    between atoms: O_24  and  C_25
REMARK                            x       y       z     vdW  Elec       q    Type
REMARK                         _______ _______ _______ _____ _____    ______ ____
ROOT
ATOM      1  C   UNL     1       2.609   5.589  19.090  0.00  0.00    +0.000 C 
ENDROOT
BRANCH   1   5
ATOM      2  C   UNL     1       1.055   9.708  19.055  0.00  0.00    +0.000 A 
ATOM      3  C   UNL     1       1.649   9.154  17.916  0.00  0.00    +0.000 A 
ATOM      4  C   UNL     1       2.168   7.858  17.924  0.00  0.00    +0.000 A 
ATOM      5  C   UNL     1       2.161   7.071  19.087  0.00  0.00    +0.000 A 
ATOM      6  C   UNL     1       1.678   7.693  20.251  0.00  0.00    +0.000 A 
ATOM      7  C   UNL     1       1.090   8.974  20.247  0.00  0.00    +0.000 A 
BRANCH   2   9
ATOM      8  C   UNL     1      -0.859  11.028  18.571  0.00  0.00    +0.000 C 
ATOM      9  O   UNL     1       0.486  10.952  19.039  0.00  0.00    +0.000 OA
ENDBRANCH   2   9
BRANCH   7  10
ATOM     10  O   UNL     1       0.588   9.303  21.477  0.00  0.00    +0.000 OA
ATOM     11  C   UNL     1       1.418   9.200  22.624  0.00  0.00    +0.000 C 
ENDBRANCH   7  10
ENDBRANCH   1   5
BRANCH   1  12
ATOM     12  C   UNL     1       2.218   4.833  20.445  0.00  0.00    +0.000 C 
ATOM     13  C   UNL     1       0.810   4.225  20.513  0.00  0.00    +0.000 C 
ATOM     14  C   UNL     1       3.228   3.746  20.871  0.00  0.00    +0.000 C 
ENDBRANCH   1  12
BRANCH   1  15
ATOM     15  C   UNL     1       1.877   4.816  18.004  0.00  0.00    +0.000 C 
ATOM     16  N   UNL     1       1.270   4.174  17.104  0.00  0.00    +0.000 NA
ENDBRANCH   1  15
BRANCH   1  17
ATOM     17  C   UNL     1       4.141   5.459  18.773  0.00  0.00    +0.000 C 
BRANCH  17  18
ATOM     18  C   UNL     1       4.613   5.631  17.298  0.00  0.00    +0.000 C 
BRANCH  18  19
ATOM     19  C   UNL     1       5.426   6.907  16.999  0.00  0.00    +0.000 C 
BRANCH  19  20
ATOM     20  N   UNL     1       6.839   6.691  16.663  0.00  0.00    +0.000 NA
ATOM     21  C   UNL     1       7.173   5.303  16.303  0.00  0.00    +0.000 C 
ATOM     22  C   UNL     1       7.232   4.340  17.497  0.00  0.00    +0.000 C 
ATOM     23  O   UNL     1       8.166   4.797  18.484  0.00  0.00    +0.000 OA
ATOM     24  C   UNL     1       7.803   6.102  18.949  0.00  0.00    +0.000 C 
ATOM     25  C   UNL     1       7.713   7.113  17.791  0.00  0.00    +0.000 C 
ENDBRANCH  19  20
ENDBRANCH  18  19
ENDBRANCH  17  18
ENDBRANCH   1  17
TORSDOF 9
ENDMDL
MODEL 8
REMARK VINA RESULT:      -6.3      2.362      6.373
REMARK  Name = 
REMARK  13 active torsions:
REMARK  status: ('A' for Active; 'I' for Inactive)
REMARK    1  A    between atoms: C_1  and  O_2
REMARK    2  A    between atoms: O_2  and  C_3
REMARK    3  A    between atoms: C_6  and  C_7
REMARK    4  A    between atoms: C_7  and  C_8
REMARK    5  A    between atoms: C_7  and  C_10
REMARK    6  A    between atoms: C_7  and  C_19
REMARK    7  A    between atoms: C_10  and  C_11
REMARK    8  A    between atoms: C_11  and  C_12
REMARK    9  A    between atoms: C_12  and  N_13
REMARK   10  A    between atoms: C_19  and  C_20
REMARK   11  A    between atoms: C_19  and  C_21
REMARK   12  A    between atoms: C_23  and  O_24
REMARK   13  A    between atoms: O_24  and  C_25
REMARK                            x       y       z     vdW  Elec       q    Type
REMARK                         _______ _______ _______ _____ _____    ______ ____
ROOT
ATOM      1  C   UNL     1       2.582   4.431  19.127  0.00  0.00    +0.000 C 
ENDROOT
BRANCH   1   5
ATOM      2  C   UNL     1       6.133   6.320  17.335  0.00  0.00    +0.000 A 
ATOM      3  C   UNL     1       4.847   6.628  16.877  0.00  0.00    +0.000 A 
ATOM      4  C   UNL     1       3.716   6.015  17.422  0.00  0.00    +0.000 A 
ATOM      5  C   UNL     1       3.822   5.029  18.416  0.00  0.00    +0.000 A 
ATOM      6  C   UNL     1       5.126   4.643  18.768  0.00  0.00    +0.000 A 
ATOM      7  C   UNL     1       6.276   5.296  18.279  0.00  0.00    +0.000 A 
BRANCH   2   9
ATOM      8  C   UNL     1       7.629   8.153  17.534  0.00  0.00    +0.000 C 
ATOM      9  O   UNL     1       7.242   6.961  16.854  0.00  0.00    +0.000 OA
ENDBRANCH   2   9
BRANCH   7  10
ATOM     10  O   UNL     1       7.416   4.817  18.865  0.00  0.00    +0.000 OA
ATOM     11  C   UNL     1       8.032   5.555  19.909  0.00  0.00    +0.000 C 
ENDBRANCH   7  10
ENDBRANCH   1   5
BRANCH   1  12
ATOM     12  C   UNL     1       1.749   3.447  18.180  0.00  0.00    +0.000 C 
ATOM     13  C   UNL     1       2.551   2.394  17.403  0.00  0.00    +0.000 C 
ATOM     14  C   UNL     1       0.584   2.728  18.893  0.00  0.00    +0.000 C 
ENDBRANCH   1  12
BRANCH   1  15
ATOM     15  C   UNL     1       3.015   3.555  20.291  0.00  0.00    +0.000 C 
ATOM     16  N   UNL     1       3.374   2.829  21.259  0.00  0.00    +0.000 NA
ENDBRANCH   1  15
BRANCH   1  17
ATOM     17  C   UNL     1       1.677   5.561  19.732  0.00  0.00    +0.000 C 
BRANCH  17  18
ATOM     18  C   UNL     1       2.298   6.972  19.956  0.00  0.00    +0.000 C 
BRANCH  18  19
ATOM     19  C   UNL     1       1.676   7.806  21.094  0.00  0.00    +0.000 C 
BRANCH  19  20
ATOM     20  N   UNL     1       0.410   8.475  20.769  0.00  0.00    +0.000 NA
ATOM     21  C   UNL     1       0.567   9.792  20.129  0.00  0.00    +0.000 C 
ATOM     22  C   UNL     1       0.998  10.911  21.088  0.00  0.00    +0.000 C 
ATOM     23  O   UNL     1       0.081  11.036  22.182  0.00  0.00    +0.000 OA
ATOM     24  C   UNL     1      -0.007   9.803  22.906  0.00  0.00    +0.000 C 
ATOM     25  C   UNL     1      -0.424   8.637  21.991  0.00  0.00    +0.000 C 
ENDBRANCH  19  20
ENDBRANCH  18  19
ENDBRANCH  17  18
ENDBRANCH   1  17
TORSDOF 9
ENDMDL
MODEL 9
REMARK VINA RESULT:      -6.3      1.921      4.929
REMARK  Name = 
REMARK  13 active torsions:
REMARK  status: ('A' for Active; 'I' for Inactive)
REMARK    1  A    between atoms: C_1  and  O_2
REMARK    2  A    between atoms: O_2  and  C_3
REMARK    3  A    between atoms: C_6  and  C_7
REMARK    4  A    between atoms: C_7  and  C_8
REMARK    5  A    between atoms: C_7  and  C_10
REMARK    6  A    between atoms: C_7  and  C_19
REMARK    7  A    between atoms: C_10  and  C_11
REMARK    8  A    between atoms: C_11  and  C_12
REMARK    9  A    between atoms: C_12  and  N_13
REMARK   10  A    between atoms: C_19  and  C_20
REMARK   11  A    between atoms: C_19  and  C_21
REMARK   12  A    between atoms: C_23  and  O_24
REMARK   13  A    between atoms: O_24  and  C_25
REMARK                            x       y       z     vdW  Elec       q    Type
REMARK                         _______ _______ _______ _____ _____    ______ ____
ROOT
ATOM      1  C   UNL     1       4.653   5.767  17.749  0.00  0.00    +0.000 C 
ENDROOT
BRANCH   1   5
ATOM      2  C   UNL     1       1.628   8.397  19.568  0.00  0.00    +0.000 A 
ATOM      3  C   UNL     1       1.993   7.193  20.179  0.00  0.00    +0.000 A 
ATOM      4  C   UNL     1       2.932   6.338  19.597  0.00  0.00    +0.000 A 
ATOM      5  C   UNL     1       3.515   6.627  18.352  0.00  0.00    +0.000 A 
ATOM      6  C   UNL     1       3.039   7.776  17.698  0.00  0.00    +0.000 A 
ATOM      7  C   UNL     1       2.142   8.682  18.298  0.00  0.00    +0.000 A 
BRANCH   2   9
ATOM      8  C   UNL     1       0.864   9.409  21.577  0.00  0.00    +0.000 C 
ATOM      9  O   UNL     1       0.757   9.271  20.161  0.00  0.00    +0.000 OA
ENDBRANCH   2   9
BRANCH   7  10
ATOM     10  O   UNL     1       1.929   9.779  17.508  0.00  0.00    +0.000 OA
ATOM     11  C   UNL     1       2.284  11.068  17.985  0.00  0.00    +0.000 C 
ENDBRANCH   7  10
ENDBRANCH   1   5
BRANCH   1  12
ATOM     12  C   UNL     1       5.409   6.505  16.548  0.00  0.00    +0.000 C 
ATOM     13  C   UNL     1       6.775   7.126  16.872  0.00  0.00    +0.000 C 
ATOM     14  C   UNL     1       5.567   5.641  15.279  0.00  0.00    +0.000 C 
ENDBRANCH   1  12
BRANCH   1  15
ATOM     15  C   UNL     1       5.738   5.527  18.785  0.00  0.00    +0.000 C 
ATOM     16  N   UNL     1       6.640   5.329  19.645  0.00  0.00    +0.000 NA
ENDBRANCH   1  15
BRANCH   1  17
ATOM     17  C   UNL     1       4.126   4.351  17.320  0.00  0.00    +0.000 C 
BRANCH  17  18
ATOM     18  C   UNL     1       4.583   3.108  18.140  0.00  0.00    +0.000 C 
BRANCH  18  19
ATOM     19  C   UNL     1       4.117   3.064  19.609  0.00  0.00    +0.000 C 
BRANCH  19  20
ATOM     20  N   UNL     1       3.072   2.077  19.911  0.00  0.00    +0.000 NA
ATOM     21  C   UNL     1       2.017   1.977  18.889  0.00  0.00    +0.000 C 
ATOM     22  C   UNL     1       1.021   3.146  18.896  0.00  0.00    +0.000 C 
ATOM     23  O   UNL     1       0.405   3.292  20.182  0.00  0.00    +0.000 OA
ATOM     24  C   UNL     1       1.397   3.513  21.190  0.00  0.00    +0.000 C 
ATOM     25  C   UNL     1       2.436   2.377  21.223  0.00  0.00    +0.000 C 
ENDBRANCH  19  20
ENDBRANCH  18  19
ENDBRANCH  17  18
ENDBRANCH   1  17
TORSDOF 9
ENDMDL
