MODEL 1
REMARK VINA RESULT:      -8.8      0.000      0.000
REMARK  Name = 
REMARK  2 active torsions:
REMARK  status: ('A' for Active; 'I' for Inactive)
REMARK    1  A    between atoms: C_6  and  N_7
REMARK    2  A    between atoms: N_7  and  C_8
REMARK                            x       y       z     vdW  Elec       q    Type
REMARK                         _______ _______ _______ _____ _____    ______ ____
ROOT
ATOM      1  N   UNL     1       0.885   2.838  21.367  0.00  0.00    +0.000 N 
ATOM      2  C   UNL     1       1.666   3.505  20.448  0.00  0.00    +0.000 A 
ATOM      3  N   UNL     1       2.127   2.813  19.405  0.00  0.00    +0.000 NA
ATOM      4  C   UNL     1       2.884   3.532  18.565  0.00  0.00    +0.000 A 
ATOM      5  C   UNL     1       3.185   4.886  18.698  0.00  0.00    +0.000 A 
ATOM      6  C   UNL     1       2.652   5.506  19.801  0.00  0.00    +0.000 A 
ATOM      7  N   UNL     1       1.877   4.809  20.665  0.00  0.00    +0.000 NA
ATOM      8  C   UNL     1       4.069   5.286  17.623  0.00  0.00    +0.000 A 
ATOM      9  C   UNL     1       4.673   6.497  17.326  0.00  0.00    +0.000 A 
ATOM     10  C   UNL     1       5.504   6.574  16.203  0.00  0.00    +0.000 A 
ATOM     11  C   UNL     1       5.734   5.448  15.395  0.00  0.00    +0.000 A 
ATOM     12  C   UNL     1       5.141   4.223  15.695  0.00  0.00    +0.000 A 
ATOM     13  C   UNL     1       4.315   4.158  16.805  0.00  0.00    +0.000 A 
ATOM     14  C   UNL     1       3.582   2.949  17.347  0.00  0.00    +0.000 C 
ATOM     15  H   UNL     1       0.449   2.037  20.936  0.00  0.00    +0.000 HD
ATOM     16  H   UNL     1       0.286   3.497  21.844  0.00  0.00    +0.000 HD
ENDROOT
BRANCH   6  17
ATOM     17  N   UNL     1       2.900   6.874  20.061  0.00  0.00    +0.000 N 
ATOM     18  H   UNL     1       3.876   7.080  19.877  0.00  0.00    +0.000 HD
BRANCH  17  19
ATOM     19  C   UNL     1       2.026   7.927  19.708  0.00  0.00    +0.000 A 
ATOM     20  C   UNL     1       1.941   8.376  18.383  0.00  0.00    +0.000 A 
ATOM     21  C   UNL     1       1.089   9.423  18.023  0.00  0.00    +0.000 A 
ATOM     22  C   UNL     1       0.288  10.012  18.993  0.00  0.00    +0.000 A 
ATOM     23 CL   UNL     1      -0.735  11.328  18.567  0.00  0.00    +0.000 Cl
ATOM     24  C   UNL     1       0.312   9.543  20.304  0.00  0.00    +0.000 A 
ATOM     25  C   UNL     1       1.168   8.492  20.659  0.00  0.00    +0.000 A 
ENDBRANCH  17  19
ENDBRANCH   6  17
TORSDOF 2
ENDMDL
MODEL 2
REMARK VINA RESULT:      -8.8      0.088      1.031
REMARK  Name = 
REMARK  2 active torsions:
REMARK  status: ('A' for Active; 'I' for Inactive)
REMARK    1  A    between atoms: C_6  and  N_7
REMARK    2  A    between atoms: N_7  and  C_8
REMARK                            x       y       z     vdW  Elec       q    Type
REMARK                         _______ _______ _______ _____ _____    ______ ____
ROOT
ATOM      1  N   UNL     1       0.770   2.865  21.245  0.00  0.00    +0.000 N 
ATOM      2  C   UNL     1       1.579   3.527  20.346  0.00  0.00    +0.000 A 
ATOM      3  N   UNL     1       2.059   2.833  19.313  0.00  0.00    +0.000 NA
ATOM      4  C   UNL     1       2.842   3.547  18.492  0.00  0.00    +0.000 A 
ATOM      5  C   UNL     1       3.151   4.899  18.635  0.00  0.00    +0.000 A 
ATOM      6  C   UNL     1       2.597   5.521  19.726  0.00  0.00    +0.000 A 
ATOM      7  N   UNL     1       1.796   4.829  20.570  0.00  0.00    +0.000 NA
ATOM      8  C   UNL     1       4.063   5.292  17.582  0.00  0.00    +0.000 A 
ATOM      9  C   UNL     1       4.684   6.499  17.301  0.00  0.00    +0.000 A 
ATOM     10  C   UNL     1       5.543   6.571  16.199  0.00  0.00    +0.000 A 
ATOM     11  C   UNL     1       5.783   5.444  15.394  0.00  0.00    +0.000 A 
ATOM     12  C   UNL     1       5.172   4.223  15.678  0.00  0.00    +0.000 A 
ATOM     13  C   UNL     1       4.320   4.164  16.768  0.00  0.00    +0.000 A 
ATOM     14  C   UNL     1       3.564   2.961  17.290  0.00  0.00    +0.000 C 
ATOM     15  H   UNL     1       0.339   2.068  20.802  0.00  0.00    +0.000 HD
ATOM     16  H   UNL     1       0.166   3.529  21.709  0.00  0.00    +0.000 HD
ENDROOT
BRANCH   6  17
ATOM     17  N   UNL     1       2.850   6.886  19.995  0.00  0.00    +0.000 N 
ATOM     18  H   UNL     1       3.825   7.091  19.806  0.00  0.00    +0.000 HD
BRANCH  17  19
ATOM     19  C   UNL     1       1.977   7.944  19.655  0.00  0.00    +0.000 A 
ATOM     20  C   UNL     1       1.150   8.532  20.622  0.00  0.00    +0.000 A 
ATOM     21  C   UNL     1       0.275   9.571  20.297  0.00  0.00    +0.000 A 
ATOM     22  C   UNL     1       0.246  10.053  18.994  0.00  0.00    +0.000 A 
ATOM     23 CL   UNL     1      -0.855  11.306  18.575  0.00  0.00    +0.000 Cl
ATOM     24  C   UNL     1       1.102   9.526  18.031  0.00  0.00    +0.000 A 
ATOM     25  C   UNL     1       1.977   8.483  18.362  0.00  0.00    +0.000 A 
ENDBRANCH  17  19
ENDBRANCH   6  17
TORSDOF 2
ENDMDL
MODEL 3
REMARK VINA RESULT:      -7.9      2.462      3.869
REMARK  Name = 
REMARK  2 active torsions:
REMARK  status: ('A' for Active; 'I' for Inactive)
REMARK    1  A    between atoms: C_6  and  N_7
REMARK    2  A    between atoms: N_7  and  C_8
REMARK                            x       y       z     vdW  Elec       q    Type
REMARK                         _______ _______ _______ _____ _____    ______ ____
ROOT
ATOM      1  N   UNL     1       7.887   6.260  18.598  0.00  0.00    +0.000 N 
ATOM      2  C   UNL     1       6.601   5.762  18.590  0.00  0.00    +0.000 A 
ATOM      3  N   UNL     1       6.406   4.537  19.077  0.00  0.00    +0.000 NA
ATOM      4  C   UNL     1       5.131   4.125  19.024  0.00  0.00    +0.000 A 
ATOM      5  C   UNL     1       4.057   4.867  18.538  0.00  0.00    +0.000 A 
ATOM      6  C   UNL     1       4.365   6.120  18.071  0.00  0.00    +0.000 A 
ATOM      7  N   UNL     1       5.642   6.568  18.116  0.00  0.00    +0.000 NA
ATOM      8  C   UNL     1       2.855   4.062  18.601  0.00  0.00    +0.000 A 
ATOM      9  C   UNL     1       1.549   4.320  18.217  0.00  0.00    +0.000 A 
ATOM     10  C   UNL     1       0.588   3.320  18.393  0.00  0.00    +0.000 A 
ATOM     11  C   UNL     1       0.933   2.072  18.939  0.00  0.00    +0.000 A 
ATOM     12  C   UNL     1       2.248   1.800  19.316  0.00  0.00    +0.000 A 
ATOM     13  C   UNL     1       3.192   2.799  19.143  0.00  0.00    +0.000 A 
ATOM     14  C   UNL     1       4.672   2.739  19.450  0.00  0.00    +0.000 C 
ATOM     15  H   UNL     1       8.432   5.802  19.312  0.00  0.00    +0.000 HD
ATOM     16  H   UNL     1       7.858   7.270  18.604  0.00  0.00    +0.000 HD
ENDROOT
BRANCH   6  17
ATOM     17  N   UNL     1       3.367   6.965  17.532  0.00  0.00    +0.000 N 
ATOM     18  H   UNL     1       2.869   6.472  16.799  0.00  0.00    +0.000 HD
BRANCH  17  19
ATOM     19  C   UNL     1       2.540   7.817  18.298  0.00  0.00    +0.000 A 
ATOM     20  C   UNL     1       1.924   8.934  17.716  0.00  0.00    +0.000 A 
ATOM     21  C   UNL     1       1.114   9.790  18.465  0.00  0.00    +0.000 A 
ATOM     22  C   UNL     1       0.889   9.513  19.807  0.00  0.00    +0.000 A 
ATOM     23 CL   UNL     1      -0.075  10.582  20.748  0.00  0.00    +0.000 Cl
ATOM     24  C   UNL     1       1.442   8.376  20.392  0.00  0.00    +0.000 A 
ATOM     25  C   UNL     1       2.254   7.521  19.636  0.00  0.00    +0.000 A 
ENDBRANCH  17  19
ENDBRANCH   6  17
TORSDOF 2
ENDMDL
MODEL 4
REMARK VINA RESULT:      -7.9      2.466      3.966
REMARK  Name = 
REMARK  2 active torsions:
REMARK  status: ('A' for Active; 'I' for Inactive)
REMARK    1  A    between atoms: C_6  and  N_7
REMARK    2  A    between atoms: N_7  and  C_8
REMARK                            x       y       z     vdW  Elec       q    Type
REMARK                         _______ _______ _______ _____ _____    ______ ____
ROOT
ATOM      1  N   UNL     1       7.872   6.365  18.534  0.00  0.00    +0.000 N 
ATOM      2  C   UNL     1       6.595   5.846  18.537  0.00  0.00    +0.000 A 
ATOM      3  N   UNL     1       6.423   4.619  19.030  0.00  0.00    +0.000 NA
ATOM      4  C   UNL     1       5.156   4.186  18.989  0.00  0.00    +0.000 A 
ATOM      5  C   UNL     1       4.066   4.908  18.506  0.00  0.00    +0.000 A 
ATOM      6  C   UNL     1       4.350   6.164  18.032  0.00  0.00    +0.000 A 
ATOM      7  N   UNL     1       5.619   6.633  18.066  0.00  0.00    +0.000 NA
ATOM      8  C   UNL     1       2.878   4.083  18.581  0.00  0.00    +0.000 A 
ATOM      9  C   UNL     1       1.565   4.319  18.204  0.00  0.00    +0.000 A 
ATOM     10  C   UNL     1       0.622   3.303  18.392  0.00  0.00    +0.000 A 
ATOM     11  C   UNL     1       0.992   2.063  18.941  0.00  0.00    +0.000 A 
ATOM     12  C   UNL     1       2.313   1.815  19.310  0.00  0.00    +0.000 A 
ATOM     13  C   UNL     1       3.239   2.829  19.126  0.00  0.00    +0.000 A 
ATOM     14  C   UNL     1       4.723   2.795  19.423  0.00  0.00    +0.000 C 
ATOM     15  H   UNL     1       8.430   5.919  19.246  0.00  0.00    +0.000 HD
ATOM     16  H   UNL     1       7.827   7.374  18.536  0.00  0.00    +0.000 HD
ENDROOT
BRANCH   6  17
ATOM     17  N   UNL     1       3.334   6.989  17.495  0.00  0.00    +0.000 N 
ATOM     18  H   UNL     1       2.829   6.480  16.779  0.00  0.00    +0.000 HD
BRANCH  17  19
ATOM     19  C   UNL     1       2.511   7.846  18.262  0.00  0.00    +0.000 A 
ATOM     20  C   UNL     1       2.236   7.562  19.607  0.00  0.00    +0.000 A 
ATOM     21  C   UNL     1       1.415   8.395  20.372  0.00  0.00    +0.000 A 
ATOM     22  C   UNL     1       0.887   9.544  19.798  0.00  0.00    +0.000 A 
ATOM     23 CL   UNL     1      -0.156  10.554  20.720  0.00  0.00    +0.000 Cl
ATOM     24  C   UNL     1       1.196   9.877  18.481  0.00  0.00    +0.000 A 
ATOM     25  C   UNL     1       2.019   9.038  17.718  0.00  0.00    +0.000 A 
ENDBRANCH  17  19
ENDBRANCH   6  17
TORSDOF 2
ENDMDL
MODEL 5
REMARK VINA RESULT:      -7.8      2.437      4.063
REMARK  Name = 
REMARK  2 active torsions:
REMARK  status: ('A' for Active; 'I' for Inactive)
REMARK    1  A    between atoms: C_6  and  N_7
REMARK    2  A    between atoms: N_7  and  C_8
REMARK                            x       y       z     vdW  Elec       q    Type
REMARK                         _______ _______ _______ _____ _____    ______ ____
ROOT
ATOM      1  N   UNL     1       7.341   7.551  17.082  0.00  0.00    +0.000 N 
ATOM      2  C   UNL     1       6.223   6.799  17.373  0.00  0.00    +0.000 A 
ATOM      3  N   UNL     1       6.402   5.520  17.706  0.00  0.00    +0.000 NA
ATOM      4  C   UNL     1       5.266   4.859  17.964  0.00  0.00    +0.000 A 
ATOM      5  C   UNL     1       3.983   5.401  17.927  0.00  0.00    +0.000 A 
ATOM      6  C   UNL     1       3.910   6.728  17.584  0.00  0.00    +0.000 A 
ATOM      7  N   UNL     1       5.041   7.426  17.323  0.00  0.00    +0.000 NA
ATOM      8  C   UNL     1       3.018   4.361  18.215  0.00  0.00    +0.000 A 
ATOM      9  C   UNL     1       1.633   4.375  18.269  0.00  0.00    +0.000 A 
ATOM     10  C   UNL     1       0.961   3.184  18.564  0.00  0.00    +0.000 A 
ATOM     11  C   UNL     1       1.669   1.992  18.794  0.00  0.00    +0.000 A 
ATOM     12  C   UNL     1       3.062   1.967  18.729  0.00  0.00    +0.000 A 
ATOM     13  C   UNL     1       3.718   3.152  18.440  0.00  0.00    +0.000 A 
ATOM     14  C   UNL     1       5.207   3.375  18.292  0.00  0.00    +0.000 C 
ATOM     15  H   UNL     1       8.153   7.154  17.530  0.00  0.00    +0.000 HD
ATOM     16  H   UNL     1       7.144   8.528  17.247  0.00  0.00    +0.000 HD
ENDROOT
BRANCH   6  17
ATOM     17  N   UNL     1       2.665   7.391  17.490  0.00  0.00    +0.000 N 
ATOM     18  H   UNL     1       2.017   6.818  16.960  0.00  0.00    +0.000 HD
BRANCH  17  19
ATOM     19  C   UNL     1       2.053   8.098  18.550  0.00  0.00    +0.000 A 
ATOM     20  C   UNL     1       2.051   7.580  19.852  0.00  0.00    +0.000 A 
ATOM     21  C   UNL     1       1.441   8.263  20.906  0.00  0.00    +0.000 A 
ATOM     22  C   UNL     1       0.849   9.497  20.665  0.00  0.00    +0.000 A 
ATOM     23 CL   UNL     1       0.060  10.328  21.948  0.00  0.00    +0.000 Cl
ATOM     24  C   UNL     1       0.891  10.059  19.392  0.00  0.00    +0.000 A 
ATOM     25  C   UNL     1       1.504   9.368  18.338  0.00  0.00    +0.000 A 
ENDBRANCH  17  19
ENDBRANCH   6  17
TORSDOF 2
ENDMDL
MODEL 6
REMARK VINA RESULT:      -7.7      2.354      4.219
REMARK  Name = 
REMARK  2 active torsions:
REMARK  status: ('A' for Active; 'I' for Inactive)
REMARK    1  A    between atoms: C_6  and  N_7
REMARK    2  A    between atoms: N_7  and  C_8
REMARK                            x       y       z     vdW  Elec       q    Type
REMARK                         _______ _______ _______ _____ _____    ______ ____
ROOT
ATOM      1  N   UNL     1       6.842   7.159  16.650  0.00  0.00    +0.000 N 
ATOM      2  C   UNL     1       5.799   6.572  17.334  0.00  0.00    +0.000 A 
ATOM      3  N   UNL     1       6.059   5.475  18.045  0.00  0.00    +0.000 NA
ATOM      4  C   UNL     1       4.990   4.963  18.671  0.00  0.00    +0.000 A 
ATOM      5  C   UNL     1       3.701   5.490  18.640  0.00  0.00    +0.000 A 
ATOM      6  C   UNL     1       3.543   6.626  17.887  0.00  0.00    +0.000 A 
ATOM      7  N   UNL     1       4.604   7.172  17.248  0.00  0.00    +0.000 NA
ATOM      8  C   UNL     1       2.816   4.627  19.395  0.00  0.00    +0.000 A 
ATOM      9  C   UNL     1       1.453   4.689  19.640  0.00  0.00    +0.000 A 
ATOM     10  C   UNL     1       0.864   3.680  20.410  0.00  0.00    +0.000 A 
ATOM     11  C   UNL     1       1.630   2.618  20.920  0.00  0.00    +0.000 A 
ATOM     12  C   UNL     1       2.999   2.542  20.667  0.00  0.00    +0.000 A 
ATOM     13  C   UNL     1       3.574   3.548  19.908  0.00  0.00    +0.000 A 
ATOM     14  C   UNL     1       5.021   3.676  19.481  0.00  0.00    +0.000 C 
ATOM     15  H   UNL     1       7.720   6.917  17.084  0.00  0.00    +0.000 HD
ATOM     16  H   UNL     1       6.643   8.139  16.506  0.00  0.00    +0.000 HD
ENDROOT
BRANCH   6  17
ATOM     17  N   UNL     1       2.279   7.247  17.758  0.00  0.00    +0.000 N 
ATOM     18  H   UNL     1       1.565   6.536  17.642  0.00  0.00    +0.000 HD
BRANCH  17  19
ATOM     19  C   UNL     1       1.849   8.356  18.522  0.00  0.00    +0.000 A 
ATOM     20  C   UNL     1       1.567   8.220  19.889  0.00  0.00    +0.000 A 
ATOM     21  C   UNL     1       1.132   9.305  20.653  0.00  0.00    +0.000 A 
ATOM     22  C   UNL     1       1.005  10.551  20.053  0.00  0.00    +0.000 A 
ATOM     23 CL   UNL     1       0.432  11.885  20.976  0.00  0.00    +0.000 Cl
ATOM     24  C   UNL     1       1.337  10.723  18.712  0.00  0.00    +0.000 A 
ATOM     25  C   UNL     1       1.773   9.631  17.950  0.00  0.00    +0.000 A 
ENDBRANCH  17  19
ENDBRANCH   6  17
TORSDOF 2
ENDMDL
MODEL 7
REMARK VINA RESULT:      -7.7      2.356      4.127
REMARK  Name = 
REMARK  2 active torsions:
REMARK  status: ('A' for Active; 'I' for Inactive)
REMARK    1  A    between atoms: C_6  and  N_7
REMARK    2  A    between atoms: N_7  and  C_8
REMARK                            x       y       z     vdW  Elec       q    Type
REMARK                         _______ _______ _______ _____ _____    ______ ____
ROOT
ATOM      1  N   UNL     1       6.801   7.157  16.689  0.00  0.00    +0.000 N 
ATOM      2  C   UNL     1       5.761   6.571  17.378  0.00  0.00    +0.000 A 
ATOM      3  N   UNL     1       6.023   5.467  18.080  0.00  0.00    +0.000 NA
ATOM      4  C   UNL     1       4.957   4.956  18.712  0.00  0.00    +0.000 A 
ATOM      5  C   UNL     1       3.670   5.490  18.697  0.00  0.00    +0.000 A 
ATOM      6  C   UNL     1       3.511   6.633  17.954  0.00  0.00    +0.000 A 
ATOM      7  N   UNL     1       4.569   7.178  17.309  0.00  0.00    +0.000 NA
ATOM      8  C   UNL     1       2.788   4.627  19.454  0.00  0.00    +0.000 A 
ATOM      9  C   UNL     1       1.428   4.694  19.713  0.00  0.00    +0.000 A 
ATOM     10  C   UNL     1       0.841   3.684  20.481  0.00  0.00    +0.000 A 
ATOM     11  C   UNL     1       1.606   2.614  20.976  0.00  0.00    +0.000 A 
ATOM     12  C   UNL     1       2.972   2.532  20.709  0.00  0.00    +0.000 A 
ATOM     13  C   UNL     1       3.545   3.541  19.952  0.00  0.00    +0.000 A 
ATOM     14  C   UNL     1       4.988   3.664  19.512  0.00  0.00    +0.000 C 
ATOM     15  H   UNL     1       7.682   6.907  17.112  0.00  0.00    +0.000 HD
ATOM     16  H   UNL     1       6.607   8.139  16.554  0.00  0.00    +0.000 HD
ENDROOT
BRANCH   6  17
ATOM     17  N   UNL     1       2.249   7.262  17.841  0.00  0.00    +0.000 N 
ATOM     18  H   UNL     1       1.526   6.554  17.767  0.00  0.00    +0.000 HD
BRANCH  17  19
ATOM     19  C   UNL     1       1.851   8.397  18.584  0.00  0.00    +0.000 A 
ATOM     20  C   UNL     1       1.759   9.657  17.975  0.00  0.00    +0.000 A 
ATOM     21  C   UNL     1       1.377  10.788  18.700  0.00  0.00    +0.000 A 
ATOM     22  C   UNL     1       1.052  10.657  20.044  0.00  0.00    +0.000 A 
ATOM     23 CL   UNL     1       0.619  12.050  20.955  0.00  0.00    +0.000 Cl
ATOM     24  C   UNL     1       1.078   9.406  20.655  0.00  0.00    +0.000 A 
ATOM     25  C   UNL     1       1.463   8.274  19.923  0.00  0.00    +0.000 A 
ENDBRANCH  17  19
ENDBRANCH   6  17
TORSDOF 2
ENDMDL
MODEL 8
REMARK VINA RESULT:      -7.5      1.833      4.017
REMARK  Name = 
REMARK  2 active torsions:
REMARK  status: ('A' for Active; 'I' for Inactive)
REMARK    1  A    between atoms: C_6  and  N_7
REMARK    2  A    between atoms: N_7  and  C_8
REMARK                            x       y       z     vdW  Elec       q    Type
REMARK                         _______ _______ _______ _____ _____    ______ ____
ROOT
ATOM      1  N   UNL     1       5.542   6.655  15.360  0.00  0.00    +0.000 N 
ATOM      2  C   UNL     1       4.791   6.097  16.372  0.00  0.00    +0.000 A 
ATOM      3  N   UNL     1       4.521   4.794  16.301  0.00  0.00    +0.000 NA
ATOM      4  C   UNL     1       3.780   4.333  17.319  0.00  0.00    +0.000 A 
ATOM      5  C   UNL     1       3.319   5.088  18.395  0.00  0.00    +0.000 A 
ATOM      6  C   UNL     1       3.662   6.417  18.378  0.00  0.00    +0.000 A 
ATOM      7  N   UNL     1       4.415   6.911  17.367  0.00  0.00    +0.000 NA
ATOM      8  C   UNL     1       2.513   4.247  19.255  0.00  0.00    +0.000 A 
ATOM      9  C   UNL     1       1.813   4.519  20.420  0.00  0.00    +0.000 A 
ATOM     10  C   UNL     1       1.099   3.483  21.031  0.00  0.00    +0.000 A 
ATOM     11  C   UNL     1       1.081   2.192  20.477  0.00  0.00    +0.000 A 
ATOM     12  C   UNL     1       1.772   1.913  19.298  0.00  0.00    +0.000 A 
ATOM     13  C   UNL     1       2.480   2.945  18.703  0.00  0.00    +0.000 A 
ATOM     14  C   UNL     1       3.282   2.900  17.421  0.00  0.00    +0.000 C 
ATOM     15  H   UNL     1       6.106   5.947  14.915  0.00  0.00    +0.000 HD
ATOM     16  H   UNL     1       6.011   7.482  15.702  0.00  0.00    +0.000 HD
ENDROOT
BRANCH   6  17
ATOM     17  N   UNL     1       3.238   7.294  19.402  0.00  0.00    +0.000 N 
ATOM     18  H   UNL     1       4.048   7.718  19.840  0.00  0.00    +0.000 HD
BRANCH  17  19
ATOM     19  C   UNL     1       2.132   8.170  19.299  0.00  0.00    +0.000 A 
ATOM     20  C   UNL     1       1.384   8.518  20.432  0.00  0.00    +0.000 A 
ATOM     21  C   UNL     1       0.284   9.373  20.342  0.00  0.00    +0.000 A 
ATOM     22  C   UNL     1      -0.058   9.915  19.110  0.00  0.00    +0.000 A 
ATOM     23 CL   UNL     1      -1.435  10.937  18.981  0.00  0.00    +0.000 Cl
ATOM     24  C   UNL     1       0.707   9.631  17.981  0.00  0.00    +0.000 A 
ATOM     25  C   UNL     1       1.810   8.771  18.077  0.00  0.00    +0.000 A 
ENDBRANCH  17  19
ENDBRANCH   6  17
TORSDOF 2
ENDMDL
MODEL 9
REMARK VINA RESULT:      -7.4      1.824      3.884
REMARK  Name = 
REMARK  2 active torsions:
REMARK  status: ('A' for Active; 'I' for Inactive)
REMARK    1  A    between atoms: C_6  and  N_7
REMARK    2  A    between atoms: N_7  and  C_8
REMARK                            x       y       z     vdW  Elec       q    Type
REMARK                         _______ _______ _______ _____ _____    ______ ____
ROOT
ATOM      1  N   UNL     1       5.599   6.604  15.367  0.00  0.00    +0.000 N 
ATOM      2  C   UNL     1       4.836   6.050  16.372  0.00  0.00    +0.000 A 
ATOM      3  N   UNL     1       4.558   4.748  16.299  0.00  0.00    +0.000 NA
ATOM      4  C   UNL     1       3.805   4.292  17.309  0.00  0.00    +0.000 A 
ATOM      5  C   UNL     1       3.339   5.050  18.381  0.00  0.00    +0.000 A 
ATOM      6  C   UNL     1       3.690   6.376  18.367  0.00  0.00    +0.000 A 
ATOM      7  N   UNL     1       4.455   6.867  17.364  0.00  0.00    +0.000 NA
ATOM      8  C   UNL     1       2.520   4.214  19.234  0.00  0.00    +0.000 A 
ATOM      9  C   UNL     1       1.811   4.490  20.392  0.00  0.00    +0.000 A 
ATOM     10  C   UNL     1       1.086   3.458  20.997  0.00  0.00    +0.000 A 
ATOM     11  C   UNL     1       1.065   2.167  20.442  0.00  0.00    +0.000 A 
ATOM     12  C   UNL     1       1.765   1.884  19.270  0.00  0.00    +0.000 A 
ATOM     13  C   UNL     1       2.484   2.912  18.682  0.00  0.00    +0.000 A 
ATOM     14  C   UNL     1       3.298   2.862  17.407  0.00  0.00    +0.000 C 
ATOM     15  H   UNL     1       6.163   5.892  14.927  0.00  0.00    +0.000 HD
ATOM     16  H   UNL     1       6.069   7.428  15.713  0.00  0.00    +0.000 HD
ENDROOT
BRANCH   6  17
ATOM     17  N   UNL     1       3.261   7.257  19.388  0.00  0.00    +0.000 N 
ATOM     18  H   UNL     1       4.071   7.653  19.853  0.00  0.00    +0.000 HD
BRANCH  17  19
ATOM     19  C   UNL     1       2.185   8.164  19.262  0.00  0.00    +0.000 A 
ATOM     20  C   UNL     1       1.824   8.682  18.010  0.00  0.00    +0.000 A 
ATOM     21  C   UNL     1       0.769   9.587  17.874  0.00  0.00    +0.000 A 
ATOM     22  C   UNL     1       0.042   9.958  18.998  0.00  0.00    +0.000 A 
ATOM     23 CL   UNL     1      -1.233  11.102  18.847  0.00  0.00    +0.000 Cl
ATOM     24  C   UNL     1       0.344   9.410  20.242  0.00  0.00    +0.000 A 
ATOM     25  C   UNL     1       1.404   8.503  20.373  0.00  0.00    +0.000 A 
ENDBRANCH  17  19
ENDBRANCH   6  17
TORSDOF 2
ENDMDL
