MODEL 1
REMARK VINA RESULT:      -7.5      0.000      0.000
REMARK  Name = 
REMARK  4 active torsions:
REMARK  status: ('A' for Active; 'I' for Inactive)
REMARK    1  A    between atoms: C_1  and  C_2
REMARK    2  A    between atoms: C_4  and  C_5
REMARK    3  A    between atoms: C_8  and  N_9
REMARK    4  A    between atoms: C_10  and  C_12
REMARK                            x       y       z     vdW  Elec       q    Type
REMARK                         _______ _______ _______ _____ _____    ______ ____
ROOT
ATOM      1  C   UNL     1       0.457  10.093  21.721  0.00  0.00    +0.000 A 
ATOM      2  N   UNL     1       1.175   9.417  22.632  0.00  0.00    +0.000 NA
ATOM      3  N   UNL     1       1.775   8.453  21.908  0.00  0.00    +0.000 N 
ATOM      4  C   UNL     1       1.517   8.519  20.561  0.00  0.00    +0.000 A 
ATOM      5  C   UNL     1       0.655   9.579  20.417  0.00  0.00    +0.000 A 
ATOM      6 BR   UNL     1      -0.035  10.230  18.800  0.00  0.00    +0.000 Br
ATOM      7  H   UNL     1       2.381   7.774  22.366  0.00  0.00    +0.000 HD
ENDROOT
BRANCH   1  11
ATOM      8  C   UNL     1      -3.384  12.336  23.810  0.00  0.00    +0.000 C 
ATOM      9  C   UNL     1      -2.117  12.198  23.044  0.00  0.00    +0.000 A 
ATOM     10  N   UNL     1      -1.471  11.064  22.898  0.00  0.00    +0.000 NA
ATOM     11  C   UNL     1      -0.374  11.249  22.076  0.00  0.00    +0.000 A 
ATOM     12  C   UNL     1      -0.169  12.548  21.655  0.00  0.00    +0.000 A 
ATOM     13  S   UNL     1      -1.424  13.555  22.248  0.00  0.00    +0.000 S 
ENDBRANCH   1  11
BRANCH   4  14
ATOM     14  N   UNL     1       2.072   7.661  19.625  0.00  0.00    +0.000 N 
ATOM     15  C   UNL     1       2.185   6.307  19.879  0.00  0.00    +0.000 C 
ATOM     16  O   UNL     1       1.778   5.775  20.916  0.00  0.00    +0.000 OA
ATOM     17  H   UNL     1       2.424   8.062  18.760  0.00  0.00    +0.000 HD
BRANCH  15  18
ATOM     18  C   UNL     1       2.786   5.439  18.830  0.00  0.00    +0.000 A 
ATOM     19  C   UNL     1       3.870   6.002  18.130  0.00  0.00    +0.000 A 
ATOM     20  C   UNL     1       4.489   5.312  17.086  0.00  0.00    +0.000 A 
ATOM     21  C   UNL     1       4.030   4.050  16.727  0.00  0.00    +0.000 A 
ATOM     22  C   UNL     1       2.956   3.479  17.413  0.00  0.00    +0.000 A 
ATOM     23  C   UNL     1       2.330   4.167  18.463  0.00  0.00    +0.000 A 
ATOM     24 CL   UNL     1       0.978   3.385  19.203  0.00  0.00    +0.000 Cl
ENDBRANCH  15  18
ENDBRANCH   4  14
TORSDOF 3
ENDMDL
MODEL 2
REMARK VINA RESULT:      -7.3      0.865      1.257
REMARK  Name = 
REMARK  4 active torsions:
REMARK  status: ('A' for Active; 'I' for Inactive)
REMARK    1  A    between atoms: C_1  and  C_2
REMARK    2  A    between atoms: C_4  and  C_5
REMARK    3  A    between atoms: C_8  and  N_9
REMARK    4  A    between atoms: C_10  and  C_12
REMARK                            x       y       z     vdW  Elec       q    Type
REMARK                         _______ _______ _______ _____ _____    ______ ____
ROOT
ATOM      1  C   UNL     1       0.526  10.061  21.791  0.00  0.00    +0.000 A 
ATOM      2  N   UNL     1       1.241   9.363  22.688  0.00  0.00    +0.000 NA
ATOM      3  N   UNL     1       1.812   8.392  21.951  0.00  0.00    +0.000 N 
ATOM      4  C   UNL     1       1.538   8.474  20.607  0.00  0.00    +0.000 A 
ATOM      5  C   UNL     1       0.697   9.552  20.482  0.00  0.00    +0.000 A 
ATOM      6 BR   UNL     1       0.001  10.230  18.878  0.00  0.00    +0.000 Br
ATOM      7  H   UNL     1       2.409   7.697  22.396  0.00  0.00    +0.000 HD
ENDROOT
BRANCH   1  11
ATOM      8  C   UNL     1      -0.393  14.869  22.219  0.00  0.00    +0.000 C 
ATOM      9  C   UNL     1      -0.632  13.405  22.322  0.00  0.00    +0.000 A 
ATOM     10  N   UNL     1       0.189  12.496  21.849  0.00  0.00    +0.000 NA
ATOM     11  C   UNL     1      -0.276  11.232  22.165  0.00  0.00    +0.000 A 
ATOM     12  C   UNL     1      -1.486  11.201  22.829  0.00  0.00    +0.000 A 
ATOM     13  S   UNL     1      -2.026  12.801  23.127  0.00  0.00    +0.000 S 
ENDBRANCH   1  11
BRANCH   4  14
ATOM     14  N   UNL     1       2.063   7.610  19.659  0.00  0.00    +0.000 N 
ATOM     15  C   UNL     1       2.176   6.256  19.912  0.00  0.00    +0.000 C 
ATOM     16  O   UNL     1       1.794   5.728  20.960  0.00  0.00    +0.000 OA
ATOM     17  H   UNL     1       2.393   8.008  18.783  0.00  0.00    +0.000 HD
BRANCH  15  18
ATOM     18  C   UNL     1       2.744   5.383  18.849  0.00  0.00    +0.000 A 
ATOM     19  C   UNL     1       3.834   5.926  18.142  0.00  0.00    +0.000 A 
ATOM     20  C   UNL     1       4.424   5.229  17.086  0.00  0.00    +0.000 A 
ATOM     21  C   UNL     1       3.930   3.983  16.720  0.00  0.00    +0.000 A 
ATOM     22  C   UNL     1       2.849   3.433  17.413  0.00  0.00    +0.000 A 
ATOM     23  C   UNL     1       2.252   4.127  18.476  0.00  0.00    +0.000 A 
ATOM     24 CL   UNL     1       0.888   3.372  19.223  0.00  0.00    +0.000 Cl
ENDBRANCH  15  18
ENDBRANCH   4  14
TORSDOF 3
ENDMDL
MODEL 3
REMARK VINA RESULT:      -7.3      3.777      8.295
REMARK  Name = 
REMARK  4 active torsions:
REMARK  status: ('A' for Active; 'I' for Inactive)
REMARK    1  A    between atoms: C_1  and  C_2
REMARK    2  A    between atoms: C_4  and  C_5
REMARK    3  A    between atoms: C_8  and  N_9
REMARK    4  A    between atoms: C_10  and  C_12
REMARK                            x       y       z     vdW  Elec       q    Type
REMARK                         _______ _______ _______ _____ _____    ______ ____
ROOT
ATOM      1  C   UNL     1       2.849   6.136  19.540  0.00  0.00    +0.000 A 
ATOM      2  N   UNL     1       2.386   5.628  20.693  0.00  0.00    +0.000 NA
ATOM      3  N   UNL     1       1.613   6.614  21.185  0.00  0.00    +0.000 N 
ATOM      4  C   UNL     1       1.515   7.711  20.366  0.00  0.00    +0.000 A 
ATOM      5  C   UNL     1       2.317   7.424  19.289  0.00  0.00    +0.000 A 
ATOM      6 BR   UNL     1       2.570   8.505  17.779  0.00  0.00    +0.000 Br
ATOM      7  H   UNL     1       1.141   6.494  22.080  0.00  0.00    +0.000 HD
ENDROOT
BRANCH   1  11
ATOM      8  C   UNL     1       7.232   4.745  17.805  0.00  0.00    +0.000 C 
ATOM      9  C   UNL     1       5.751   4.797  17.928  0.00  0.00    +0.000 A 
ATOM     10  N   UNL     1       5.118   5.483  18.853  0.00  0.00    +0.000 NA
ATOM     11  C   UNL     1       3.752   5.388  18.657  0.00  0.00    +0.000 A 
ATOM     12  C   UNL     1       3.364   4.574  17.612  0.00  0.00    +0.000 A 
ATOM     13  S   UNL     1       4.750   3.964  16.806  0.00  0.00    +0.000 S 
ENDBRANCH   1  11
BRANCH   4  14
ATOM     14  N   UNL     1       0.731   8.819  20.649  0.00  0.00    +0.000 N 
ATOM     15  C   UNL     1       0.925   9.553  21.804  0.00  0.00    +0.000 C 
ATOM     16  O   UNL     1       1.812   9.303  22.625  0.00  0.00    +0.000 OA
ATOM     17  H   UNL     1      -0.015   9.054  19.999  0.00  0.00    +0.000 HD
BRANCH  15  18
ATOM     18  C   UNL     1       0.052  10.734  22.046  0.00  0.00    +0.000 A 
ATOM     19  C   UNL     1      -0.970  10.544  22.996  0.00  0.00    +0.000 A 
ATOM     20  C   UNL     1      -1.889  11.556  23.276  0.00  0.00    +0.000 A 
ATOM     21  C   UNL     1      -1.800  12.772  22.607  0.00  0.00    +0.000 A 
ATOM     22  C   UNL     1      -0.791  12.975  21.663  0.00  0.00    +0.000 A 
ATOM     23  C   UNL     1       0.136  11.961  21.377  0.00  0.00    +0.000 A 
ATOM     24 CL   UNL     1       1.305  12.306  20.153  0.00  0.00    +0.000 Cl
ENDBRANCH  15  18
ENDBRANCH   4  14
TORSDOF 3
ENDMDL
MODEL 4
REMARK VINA RESULT:      -7.2      1.203      1.501
REMARK  Name = 
REMARK  4 active torsions:
REMARK  status: ('A' for Active; 'I' for Inactive)
REMARK    1  A    between atoms: C_1  and  C_2
REMARK    2  A    between atoms: C_4  and  C_5
REMARK    3  A    between atoms: C_8  and  N_9
REMARK    4  A    between atoms: C_10  and  C_12
REMARK                            x       y       z     vdW  Elec       q    Type
REMARK                         _______ _______ _______ _____ _____    ______ ____
ROOT
ATOM      1  C   UNL     1       0.597  10.007  21.557  0.00  0.00    +0.000 A 
ATOM      2  N   UNL     1       1.281   9.330  22.493  0.00  0.00    +0.000 NA
ATOM      3  N   UNL     1       1.833   8.313  21.807  0.00  0.00    +0.000 N 
ATOM      4  C   UNL     1       1.579   8.342  20.458  0.00  0.00    +0.000 A 
ATOM      5  C   UNL     1       0.770   9.437  20.273  0.00  0.00    +0.000 A 
ATOM      6 BR   UNL     1       0.113  10.062  18.632  0.00  0.00    +0.000 Br
ATOM      7  H   UNL     1       2.405   7.622  22.290  0.00  0.00    +0.000 HD
ENDROOT
BRANCH   1  11
ATOM      8  C   UNL     1      -3.142  12.507  23.536  0.00  0.00    +0.000 C 
ATOM      9  C   UNL     1      -1.877  12.281  22.788  0.00  0.00    +0.000 A 
ATOM     10  N   UNL     1      -1.289  11.111  22.684  0.00  0.00    +0.000 NA
ATOM     11  C   UNL     1      -0.176  11.215  21.869  0.00  0.00    +0.000 A 
ATOM     12  C   UNL     1       0.099  12.488  21.411  0.00  0.00    +0.000 A 
ATOM     13  S   UNL     1      -1.108  13.576  21.960  0.00  0.00    +0.000 S 
ENDBRANCH   1  11
BRANCH   4  14
ATOM     14  N   UNL     1       2.091   7.424  19.555  0.00  0.00    +0.000 N 
ATOM     15  C   UNL     1       2.188   6.084  19.879  0.00  0.00    +0.000 C 
ATOM     16  O   UNL     1       1.803   5.616  20.954  0.00  0.00    +0.000 OA
ATOM     17  H   UNL     1       2.424   7.771  18.659  0.00  0.00    +0.000 HD
BRANCH  15  18
ATOM     18  C   UNL     1       2.744   5.150  18.862  0.00  0.00    +0.000 A 
ATOM     19  C   UNL     1       1.791   4.385  18.161  0.00  0.00    +0.000 A 
ATOM     20  C   UNL     1       2.185   3.436  17.217  0.00  0.00    +0.000 A 
ATOM     21  C   UNL     1       3.537   3.234  16.964  0.00  0.00    +0.000 A 
ATOM     22  C   UNL     1       4.493   3.985  17.652  0.00  0.00    +0.000 A 
ATOM     23  C   UNL     1       4.103   4.942  18.601  0.00  0.00    +0.000 A 
ATOM     24 CL   UNL     1       5.374   5.772  19.427  0.00  0.00    +0.000 Cl
ENDBRANCH  15  18
ENDBRANCH   4  14
TORSDOF 3
ENDMDL
MODEL 5
REMARK VINA RESULT:      -7.2      1.794      2.094
REMARK  Name = 
REMARK  4 active torsions:
REMARK  status: ('A' for Active; 'I' for Inactive)
REMARK    1  A    between atoms: C_1  and  C_2
REMARK    2  A    between atoms: C_4  and  C_5
REMARK    3  A    between atoms: C_8  and  N_9
REMARK    4  A    between atoms: C_10  and  C_12
REMARK                            x       y       z     vdW  Elec       q    Type
REMARK                         _______ _______ _______ _____ _____    ______ ____
ROOT
ATOM      1  C   UNL     1       0.897   9.789  20.941  0.00  0.00    +0.000 A 
ATOM      2  N   UNL     1       1.110   9.140  22.097  0.00  0.00    +0.000 NA
ATOM      3  N   UNL     1       1.629   7.961  21.706  0.00  0.00    +0.000 N 
ATOM      4  C   UNL     1       1.813   7.852  20.349  0.00  0.00    +0.000 A 
ATOM      5  C   UNL     1       1.337   9.031  19.830  0.00  0.00    +0.000 A 
ATOM      6 BR   UNL     1       1.356   9.531  18.024  0.00  0.00    +0.000 Br
ATOM      7  H   UNL     1       1.874   7.256  22.399  0.00  0.00    +0.000 HD
ENDROOT
BRANCH   1  11
ATOM      8  C   UNL     1       0.855  14.633  21.769  0.00  0.00    +0.000 C 
ATOM      9  C   UNL     1       0.370  13.312  21.287  0.00  0.00    +0.000 A 
ATOM     10  N   UNL     1       1.077  12.207  21.353  0.00  0.00    +0.000 NA
ATOM     11  C   UNL     1       0.326  11.140  20.893  0.00  0.00    +0.000 A 
ATOM     12  C   UNL     1      -0.932  11.467  20.424  0.00  0.00    +0.000 A 
ATOM     13  S   UNL     1      -1.209  13.147  20.629  0.00  0.00    +0.000 S 
ENDBRANCH   1  11
BRANCH   4  14
ATOM     14  N   UNL     1       2.382   6.748  19.733  0.00  0.00    +0.000 N 
ATOM     15  C   UNL     1       1.967   5.466  20.044  0.00  0.00    +0.000 C 
ATOM     16  O   UNL     1       1.060   5.222  20.845  0.00  0.00    +0.000 OA
ATOM     17  H   UNL     1       3.136   6.908  19.071  0.00  0.00    +0.000 HD
BRANCH  15  18
ATOM     18  C   UNL     1       2.616   4.325  19.343  0.00  0.00    +0.000 A 
ATOM     19  C   UNL     1       2.844   4.513  17.966  0.00  0.00    +0.000 A 
ATOM     20  C   UNL     1       3.399   3.499  17.184  0.00  0.00    +0.000 A 
ATOM     21  C   UNL     1       3.731   2.281  17.768  0.00  0.00    +0.000 A 
ATOM     22  C   UNL     1       3.511   2.081  19.132  0.00  0.00    +0.000 A 
ATOM     23  C   UNL     1       2.955   3.096  19.924  0.00  0.00    +0.000 A 
ATOM     24 CL   UNL     1       2.679   2.716  21.587  0.00  0.00    +0.000 Cl
ENDBRANCH  15  18
ENDBRANCH   4  14
TORSDOF 3
ENDMDL
MODEL 6
REMARK VINA RESULT:      -7.1      2.619      3.419
REMARK  Name = 
REMARK  4 active torsions:
REMARK  status: ('A' for Active; 'I' for Inactive)
REMARK    1  A    between atoms: C_1  and  C_2
REMARK    2  A    between atoms: C_4  and  C_5
REMARK    3  A    between atoms: C_8  and  N_9
REMARK    4  A    between atoms: C_10  and  C_12
REMARK                            x       y       z     vdW  Elec       q    Type
REMARK                         _______ _______ _______ _____ _____    ______ ____
ROOT
ATOM      1  C   UNL     1       1.265   8.165  20.478  0.00  0.00    +0.000 A 
ATOM      2  N   UNL     1       1.554   7.006  21.091  0.00  0.00    +0.000 NA
ATOM      3  N   UNL     1       2.310   6.352  20.189  0.00  0.00    +0.000 N 
ATOM      4  C   UNL     1       2.565   7.069  19.046  0.00  0.00    +0.000 A 
ATOM      5  C   UNL     1       1.889   8.253  19.210  0.00  0.00    +0.000 A 
ATOM      6 BR   UNL     1       1.881   9.697  18.015  0.00  0.00    +0.000 Br
ATOM      7  H   UNL     1       2.660   5.418  20.398  0.00  0.00    +0.000 HD
ENDROOT
BRANCH   1  11
ATOM      8  C   UNL     1      -1.620  12.143  20.514  0.00  0.00    +0.000 C 
ATOM      9  C   UNL     1      -0.855  10.989  21.058  0.00  0.00    +0.000 A 
ATOM     10  N   UNL     1      -0.234  10.107  20.309  0.00  0.00    +0.000 NA
ATOM     11  C   UNL     1       0.442   9.203  21.109  0.00  0.00    +0.000 A 
ATOM     12  C   UNL     1       0.271   9.380  22.468  0.00  0.00    +0.000 A 
ATOM     13  S   UNL     1      -0.707  10.759  22.755  0.00  0.00    +0.000 S 
ENDBRANCH   1  11
BRANCH   4  14
ATOM     14  N   UNL     1       3.363   6.611  18.009  0.00  0.00    +0.000 N 
ATOM     15  C   UNL     1       4.506   5.876  18.261  0.00  0.00    +0.000 C 
ATOM     16  O   UNL     1       4.869   5.553  19.395  0.00  0.00    +0.000 OA
ATOM     17  H   UNL     1       3.100   6.861  17.059  0.00  0.00    +0.000 HD
BRANCH  15  18
ATOM     18  C   UNL     1       5.317   5.410  17.102  0.00  0.00    +0.000 A 
ATOM     19  C   UNL     1       4.728   4.396  16.323  0.00  0.00    +0.000 A 
ATOM     20  C   UNL     1       5.406   3.837  15.239  0.00  0.00    +0.000 A 
ATOM     21  C   UNL     1       6.684   4.283  14.921  0.00  0.00    +0.000 A 
ATOM     22  C   UNL     1       7.281   5.288  15.686  0.00  0.00    +0.000 A 
ATOM     23  C   UNL     1       6.603   5.855  16.775  0.00  0.00    +0.000 A 
ATOM     24 CL   UNL     1       7.461   7.053  17.680  0.00  0.00    +0.000 Cl
ENDBRANCH  15  18
ENDBRANCH   4  14
TORSDOF 3
ENDMDL
MODEL 7
REMARK VINA RESULT:      -7.1      1.629      1.797
REMARK  Name = 
REMARK  4 active torsions:
REMARK  status: ('A' for Active; 'I' for Inactive)
REMARK    1  A    between atoms: C_1  and  C_2
REMARK    2  A    between atoms: C_4  and  C_5
REMARK    3  A    between atoms: C_8  and  N_9
REMARK    4  A    between atoms: C_10  and  C_12
REMARK                            x       y       z     vdW  Elec       q    Type
REMARK                         _______ _______ _______ _____ _____    ______ ____
ROOT
ATOM      1  C   UNL     1       0.917   9.802  20.924  0.00  0.00    +0.000 A 
ATOM      2  N   UNL     1       1.187   9.199  22.093  0.00  0.00    +0.000 NA
ATOM      3  N   UNL     1       1.721   8.020  21.723  0.00  0.00    +0.000 N 
ATOM      4  C   UNL     1       1.858   7.867  20.366  0.00  0.00    +0.000 A 
ATOM      5  C   UNL     1       1.335   9.016  19.824  0.00  0.00    +0.000 A 
ATOM      6 BR   UNL     1       1.276   9.451  18.002  0.00  0.00    +0.000 Br
ATOM      7  H   UNL     1       2.007   7.346  22.431  0.00  0.00    +0.000 HD
ENDROOT
BRANCH   1  11
ATOM      8  C   UNL     1      -2.809  12.979  20.502  0.00  0.00    +0.000 C 
ATOM      9  C   UNL     1      -1.406  12.512  20.664  0.00  0.00    +0.000 A 
ATOM     10  N   UNL     1      -1.067  11.250  20.791  0.00  0.00    +0.000 NA
ATOM     11  C   UNL     1       0.311  11.137  20.850  0.00  0.00    +0.000 A 
ATOM     12  C   UNL     1       0.999  12.334  20.827  0.00  0.00    +0.000 A 
ATOM     13  S   UNL     1      -0.105  13.635  20.657  0.00  0.00    +0.000 S 
ENDBRANCH   1  11
BRANCH   4  14
ATOM     14  N   UNL     1       2.430   6.755  19.768  0.00  0.00    +0.000 N 
ATOM     15  C   UNL     1       1.946   5.484  20.015  0.00  0.00    +0.000 C 
ATOM     16  O   UNL     1       0.972   5.258  20.739  0.00  0.00    +0.000 OA
ATOM     17  H   UNL     1       3.239   6.900  19.169  0.00  0.00    +0.000 HD
BRANCH  15  18
ATOM     18  C   UNL     1       2.604   4.334  19.338  0.00  0.00    +0.000 A 
ATOM     19  C   UNL     1       2.872   4.513  17.967  0.00  0.00    +0.000 A 
ATOM     20  C   UNL     1       3.439   3.491  17.205  0.00  0.00    +0.000 A 
ATOM     21  C   UNL     1       3.744   2.273  17.803  0.00  0.00    +0.000 A 
ATOM     22  C   UNL     1       3.484   2.081  19.162  0.00  0.00    +0.000 A 
ATOM     23  C   UNL     1       2.915   3.105  19.934  0.00  0.00    +0.000 A 
ATOM     24 CL   UNL     1       2.590   2.735  21.590  0.00  0.00    +0.000 Cl
ENDBRANCH  15  18
ENDBRANCH   4  14
TORSDOF 3
ENDMDL
MODEL 8
REMARK VINA RESULT:      -7.1      1.699      2.243
REMARK  Name = 
REMARK  4 active torsions:
REMARK  status: ('A' for Active; 'I' for Inactive)
REMARK    1  A    between atoms: C_1  and  C_2
REMARK    2  A    between atoms: C_4  and  C_5
REMARK    3  A    between atoms: C_8  and  N_9
REMARK    4  A    between atoms: C_10  and  C_12
REMARK                            x       y       z     vdW  Elec       q    Type
REMARK                         _______ _______ _______ _____ _____    ______ ____
ROOT
ATOM      1  C   UNL     1       0.855  10.050  21.260  0.00  0.00    +0.000 A 
ATOM      2  N   UNL     1       1.357   9.374  22.306  0.00  0.00    +0.000 NA
ATOM      3  N   UNL     1       1.819   8.237  21.753  0.00  0.00    +0.000 N 
ATOM      4  C   UNL     1       1.687   8.182  20.387  0.00  0.00    +0.000 A 
ATOM      5  C   UNL     1       1.055   9.353  20.045  0.00  0.00    +0.000 A 
ATOM      6 BR   UNL     1       0.633   9.913  18.306  0.00  0.00    +0.000 Br
ATOM      7  H   UNL     1       2.247   7.522  22.340  0.00  0.00    +0.000 HD
ENDROOT
BRANCH   1  11
ATOM      8  C   UNL     1       0.860  14.945  21.700  0.00  0.00    +0.000 C 
ATOM      9  C   UNL     1       0.302  13.570  21.592  0.00  0.00    +0.000 A 
ATOM     10  N   UNL     1       1.034  12.500  21.383  0.00  0.00    +0.000 NA
ATOM     11  C   UNL     1       0.233  11.372  21.405  0.00  0.00    +0.000 A 
ATOM     12  C   UNL     1      -1.116  11.613  21.571  0.00  0.00    +0.000 A 
ATOM     13  S   UNL     1      -1.384  13.294  21.777  0.00  0.00    +0.000 S 
ENDBRANCH   1  11
BRANCH   4  14
ATOM     14  N   UNL     1       2.141   7.129  19.609  0.00  0.00    +0.000 N 
ATOM     15  C   UNL     1       2.064   5.824  20.059  0.00  0.00    +0.000 C 
ATOM     16  O   UNL     1       1.565   5.509  21.143  0.00  0.00    +0.000 OA
ATOM     17  H   UNL     1       2.564   7.348  18.711  0.00  0.00    +0.000 HD
BRANCH  15  18
ATOM     18  C   UNL     1       2.567   4.740  19.172  0.00  0.00    +0.000 A 
ATOM     19  C   UNL     1       1.588   3.842  18.703  0.00  0.00    +0.000 A 
ATOM     20  C   UNL     1       1.936   2.752  17.905  0.00  0.00    +0.000 A 
ATOM     21  C   UNL     1       3.269   2.541  17.568  0.00  0.00    +0.000 A 
ATOM     22  C   UNL     1       4.250   3.424  18.026  0.00  0.00    +0.000 A 
ATOM     23  C   UNL     1       3.906   4.523  18.827  0.00  0.00    +0.000 A 
ATOM     24 CL   UNL     1       5.210   5.514  19.379  0.00  0.00    +0.000 Cl
ENDBRANCH  15  18
ENDBRANCH   4  14
TORSDOF 3
ENDMDL
MODEL 9
REMARK VINA RESULT:      -6.9      3.153      3.869
REMARK  Name = 
REMARK  4 active torsions:
REMARK  status: ('A' for Active; 'I' for Inactive)
REMARK    1  A    between atoms: C_1  and  C_2
REMARK    2  A    between atoms: C_4  and  C_5
REMARK    3  A    between atoms: C_8  and  N_9
REMARK    4  A    between atoms: C_10  and  C_12
REMARK                            x       y       z     vdW  Elec       q    Type
REMARK                         _______ _______ _______ _____ _____    ______ ____
ROOT
ATOM      1  C   UNL     1       1.425   9.908  18.616  0.00  0.00    +0.000 A 
ATOM      2  N   UNL     1       2.006   9.444  17.498  0.00  0.00    +0.000 NA
ATOM      3  N   UNL     1       2.505   8.252  17.873  0.00  0.00    +0.000 N 
ATOM      4  C   UNL     1       2.218   7.906  19.171  0.00  0.00    +0.000 A 
ATOM      5  C   UNL     1       1.518   8.975  19.676  0.00  0.00    +0.000 A 
ATOM      6 BR   UNL     1       0.784   9.101  21.396  0.00  0.00    +0.000 Br
ATOM      7  H   UNL     1       3.021   7.682  17.205  0.00  0.00    +0.000 HD
ENDROOT
BRANCH   1  11
ATOM      8  C   UNL     1       1.206  14.806  18.944  0.00  0.00    +0.000 C 
ATOM      9  C   UNL     1       0.713  13.410  18.811  0.00  0.00    +0.000 A 
ATOM     10  N   UNL     1       1.500  12.364  18.702  0.00  0.00    +0.000 NA
ATOM     11  C   UNL     1       0.743  11.207  18.667  0.00  0.00    +0.000 A 
ATOM     12  C   UNL     1      -0.624  11.399  18.689  0.00  0.00    +0.000 A 
ATOM     13  S   UNL     1      -0.973  13.072  18.828  0.00  0.00    +0.000 S 
ENDBRANCH   1  11
BRANCH   4  14
ATOM     14  N   UNL     1       2.588   6.702  19.749  0.00  0.00    +0.000 N 
ATOM     15  C   UNL     1       2.348   5.500  19.109  0.00  0.00    +0.000 C 
ATOM     16  O   UNL     1       1.835   5.419  17.990  0.00  0.00    +0.000 OA
ATOM     17  H   UNL     1       3.010   6.727  20.674  0.00  0.00    +0.000 HD
BRANCH  15  18
ATOM     18  C   UNL     1       2.774   4.244  19.783  0.00  0.00    +0.000 A 
ATOM     19  C   UNL     1       1.943   3.810  20.833  0.00  0.00    +0.000 A 
ATOM     20  C   UNL     1       2.259   2.674  21.579  0.00  0.00    +0.000 A 
ATOM     21  C   UNL     1       3.414   1.958  21.288  0.00  0.00    +0.000 A 
ATOM     22  C   UNL     1       4.249   2.376  20.249  0.00  0.00    +0.000 A 
ATOM     23  C   UNL     1       3.935   3.516  19.494  0.00  0.00    +0.000 A 
ATOM     24 CL   UNL     1       5.068   3.968  18.270  0.00  0.00    +0.000 Cl
ENDBRANCH  15  18
ENDBRANCH   4  14
TORSDOF 3
ENDMDL
