MODEL 1
REMARK VINA RESULT:      -9.0      0.000      0.000
REMARK  Name = 
REMARK  7 active torsions:
REMARK  status: ('A' for Active; 'I' for Inactive)
REMARK    1  A    between atoms: C_1  and  C_2
REMARK    2  A    between atoms: C_2  and  O_3
REMARK    3  A    between atoms: C_2  and  C_20
REMARK    4  A    between atoms: O_3  and  C_4
REMARK    5  A    between atoms: C_12  and  C_13
REMARK    6  A    between atoms: C_22  and  C_23
REMARK    7  A    between atoms: C_28  and  C_29
REMARK                            x       y       z     vdW  Elec       q    Type
REMARK                         _______ _______ _______ _____ _____    ______ ____
ROOT
ATOM      1  O   UNL     1       0.550   8.806  19.648  0.00  0.00    +0.000 OA
ENDROOT
BRANCH   1   2
ATOM      2  C   UNL     1       0.115  10.055  20.209  0.00  0.00    +0.000 C 
ATOM      3  C   UNL     1       1.255  10.835  20.900  0.00  0.00    +0.000 C 
ATOM      4  N   UNL     1       0.847  12.211  20.803  0.00  0.00    +0.000 N 
ATOM      5  C   UNL     1       1.724  13.280  20.842  0.00  0.00    +0.000 C 
ATOM      6  O   UNL     1       2.819  13.302  21.372  0.00  0.00    +0.000 OA
ATOM      7  C   UNL     1       1.062  14.408  20.094  0.00  0.00    +0.000 C 
ATOM      8  C   UNL     1       0.138  13.659  19.128  0.00  0.00    +0.000 C 
ATOM      9  C   UNL     1      -0.254  12.405  19.891  0.00  0.00    +0.000 C 
ATOM     10  C   UNL     1      -0.306  11.080  19.108  0.00  0.00    +0.000 C 
BRANCH  10  11
ATOM     11  C   UNL     1      -1.583  10.880  18.317  0.00  0.00    +0.000 A 
ATOM     12  C   UNL     1      -2.708  11.637  18.705  0.00  0.00    +0.000 A 
ATOM     13  C   UNL     1      -3.884  11.629  17.955  0.00  0.00    +0.000 A 
ATOM     14  C   UNL     1      -3.959  10.838  16.818  0.00  0.00    +0.000 A 
ATOM     15  F   UNL     1      -5.061  10.875  16.063  0.00  0.00    +0.000 F 
ATOM     16  C   UNL     1      -2.889  10.025  16.452  0.00  0.00    +0.000 A 
ATOM     17  C   UNL     1      -1.704  10.039  17.203  0.00  0.00    +0.000 A 
ENDBRANCH  10  11
ENDBRANCH   1   2
BRANCH   1  19
ATOM     18  C   UNL     1       1.873   9.523  17.741  0.00  0.00    +0.000 C 
ATOM     19  C   UNL     1       1.886   8.837  19.108  0.00  0.00    +0.000 C 
BRANCH  19  20
ATOM     20  C   UNL     1       2.466   7.438  19.025  0.00  0.00    +0.000 A 
ATOM     21  C   UNL     1       2.027   6.434  19.901  0.00  0.00    +0.000 A 
ATOM     22  C   UNL     1       2.462   5.109  19.754  0.00  0.00    +0.000 A 
ATOM     23  C   UNL     1       3.362   4.800  18.719  0.00  0.00    +0.000 A 
ATOM     24  C   UNL     1       3.832   5.793  17.846  0.00  0.00    +0.000 A 
ATOM     25  C   UNL     1       3.378   7.108  18.013  0.00  0.00    +0.000 A 
BRANCH  22  26
ATOM     26  C   UNL     1       1.951   4.017  20.668  0.00  0.00    +0.000 C 
ATOM     27  F   UNL     1       2.379   2.773  20.315  0.00  0.00    +0.000 F 
ATOM     28  F   UNL     1       2.350   4.195  21.958  0.00  0.00    +0.000 F 
ATOM     29  F   UNL     1       0.592   3.953  20.698  0.00  0.00    +0.000 F 
ENDBRANCH  22  26
BRANCH  24  30
ATOM     30  C   UNL     1       4.790   5.480  16.722  0.00  0.00    +0.000 C 
ATOM     31  F   UNL     1       6.077   5.323  17.134  0.00  0.00    +0.000 F 
ATOM     32  F   UNL     1       4.462   4.327  16.074  0.00  0.00    +0.000 F 
ATOM     33  F   UNL     1       4.812   6.452  15.771  0.00  0.00    +0.000 F 
ENDBRANCH  24  30
ENDBRANCH  19  20
ENDBRANCH   1  19
TORSDOF 6
ENDMDL
MODEL 2
REMARK VINA RESULT:      -8.9      3.362      8.667
REMARK  Name = 
REMARK  7 active torsions:
REMARK  status: ('A' for Active; 'I' for Inactive)
REMARK    1  A    between atoms: C_1  and  C_2
REMARK    2  A    between atoms: C_2  and  O_3
REMARK    3  A    between atoms: C_2  and  C_20
REMARK    4  A    between atoms: O_3  and  C_4
REMARK    5  A    between atoms: C_12  and  C_13
REMARK    6  A    between atoms: C_22  and  C_23
REMARK    7  A    between atoms: C_28  and  C_29
REMARK                            x       y       z     vdW  Elec       q    Type
REMARK                         _______ _______ _______ _____ _____    ______ ____
ROOT
ATOM      1  O   UNL     1       2.080   6.353  17.911  0.00  0.00    +0.000 OA
ENDROOT
BRANCH   1   2
ATOM      2  C   UNL     1       2.906   5.775  18.934  0.00  0.00    +0.000 C 
ATOM      3  C   UNL     1       2.092   5.204  20.116  0.00  0.00    +0.000 C 
ATOM      4  N   UNL     1       2.932   4.166  20.650  0.00  0.00    +0.000 N 
ATOM      5  C   UNL     1       2.458   3.089  21.379  0.00  0.00    +0.000 C 
ATOM      6  O   UNL     1       1.435   3.049  22.035  0.00  0.00    +0.000 OA
ATOM      7  C   UNL     1       3.452   1.972  21.192  0.00  0.00    +0.000 C 
ATOM      8  C   UNL     1       4.072   2.312  19.832  0.00  0.00    +0.000 C 
ATOM      9  C   UNL     1       4.030   3.830  19.778  0.00  0.00    +0.000 C 
ATOM     10  C   UNL     1       3.637   4.486  18.441  0.00  0.00    +0.000 C 
BRANCH  10  11
ATOM     11  C   UNL     1       4.772   4.578  17.441  0.00  0.00    +0.000 A 
ATOM     12  C   UNL     1       4.470   4.283  16.095  0.00  0.00    +0.000 A 
ATOM     13  C   UNL     1       5.409   4.475  15.081  0.00  0.00    +0.000 A 
ATOM     14  C   UNL     1       6.675   4.940  15.406  0.00  0.00    +0.000 A 
ATOM     15  F   UNL     1       7.556   5.184  14.432  0.00  0.00    +0.000 F 
ATOM     16  C   UNL     1       7.022   5.169  16.735  0.00  0.00    +0.000 A 
ATOM     17  C   UNL     1       6.076   4.982  17.754  0.00  0.00    +0.000 A 
ENDBRANCH  10  11
ENDBRANCH   1   2
BRANCH   1  19
ATOM     18  C   UNL     1       3.808   8.057  18.016  0.00  0.00    +0.000 C 
ATOM     19  C   UNL     1       2.358   7.743  17.647  0.00  0.00    +0.000 C 
BRANCH  19  20
ATOM     20  C   UNL     1       1.386   8.638  18.392  0.00  0.00    +0.000 A 
ATOM     21  C   UNL     1       0.379   9.327  17.697  0.00  0.00    +0.000 A 
ATOM     22  C   UNL     1      -0.601  10.057  18.386  0.00  0.00    +0.000 A 
ATOM     23  C   UNL     1      -0.553  10.102  19.791  0.00  0.00    +0.000 A 
ATOM     24  C   UNL     1       0.458   9.439  20.503  0.00  0.00    +0.000 A 
ATOM     25  C   UNL     1       1.422   8.714  19.791  0.00  0.00    +0.000 A 
BRANCH  22  26
ATOM     26  C   UNL     1      -1.714  10.760  17.641  0.00  0.00    +0.000 C 
ATOM     27  F   UNL     1      -2.925  10.655  18.255  0.00  0.00    +0.000 F 
ATOM     28  F   UNL     1      -1.480  12.094  17.502  0.00  0.00    +0.000 F 
ATOM     29  F   UNL     1      -1.888  10.273  16.382  0.00  0.00    +0.000 F 
ENDBRANCH  22  26
BRANCH  24  30
ATOM     30  C   UNL     1       0.521   9.466  22.012  0.00  0.00    +0.000 C 
ATOM     31  F   UNL     1       1.732   9.097  22.511  0.00  0.00    +0.000 F 
ATOM     32  F   UNL     1       0.273  10.708  22.514  0.00  0.00    +0.000 F 
ATOM     33  F   UNL     1      -0.393   8.639  22.586  0.00  0.00    +0.000 F 
ENDBRANCH  24  30
ENDBRANCH  19  20
ENDBRANCH   1  19
TORSDOF 6
ENDMDL
MODEL 3
REMARK VINA RESULT:      -8.9      3.321      8.650
REMARK  Name = 
REMARK  7 active torsions:
REMARK  status: ('A' for Active; 'I' for Inactive)
REMARK    1  A    between atoms: C_1  and  C_2
REMARK    2  A    between atoms: C_2  and  O_3
REMARK    3  A    between atoms: C_2  and  C_20
REMARK    4  A    between atoms: O_3  and  C_4
REMARK    5  A    between atoms: C_12  and  C_13
REMARK    6  A    between atoms: C_22  and  C_23
REMARK    7  A    between atoms: C_28  and  C_29
REMARK                            x       y       z     vdW  Elec       q    Type
REMARK                         _______ _______ _______ _____ _____    ______ ____
ROOT
ATOM      1  O   UNL     1       1.921   6.590  17.947  0.00  0.00    +0.000 OA
ENDROOT
BRANCH   1   2
ATOM      2  C   UNL     1       2.855   5.988  18.857  0.00  0.00    +0.000 C 
ATOM      3  C   UNL     1       2.175   5.362  20.093  0.00  0.00    +0.000 C 
ATOM      4  N   UNL     1       3.077   4.318  20.499  0.00  0.00    +0.000 N 
ATOM      5  C   UNL     1       2.693   3.208  21.231  0.00  0.00    +0.000 C 
ATOM      6  O   UNL     1       1.744   3.129  21.988  0.00  0.00    +0.000 OA
ATOM      7  C   UNL     1       3.676   2.114  20.901  0.00  0.00    +0.000 C 
ATOM      8  C   UNL     1       4.147   2.513  19.498  0.00  0.00    +0.000 C 
ATOM      9  C   UNL     1       4.083   4.031  19.506  0.00  0.00    +0.000 C 
ATOM     10  C   UNL     1       3.546   4.728  18.242  0.00  0.00    +0.000 C 
BRANCH  10  11
ATOM     11  C   UNL     1       4.569   4.874  17.135  0.00  0.00    +0.000 A 
ATOM     12  C   UNL     1       5.704   5.667  17.406  0.00  0.00    +0.000 A 
ATOM     13  C   UNL     1       6.766   5.748  16.505  0.00  0.00    +0.000 A 
ATOM     14  C   UNL     1       6.694   5.055  15.305  0.00  0.00    +0.000 A 
ATOM     15  F   UNL     1       7.736   5.080  14.468  0.00  0.00    +0.000 F 
ATOM     16  C   UNL     1       5.555   4.323  14.981  0.00  0.00    +0.000 A 
ATOM     17  C   UNL     1       4.490   4.237  15.890  0.00  0.00    +0.000 A 
ENDBRANCH  10  11
ENDBRANCH   1   2
BRANCH   1  19
ATOM     18  C   UNL     1       3.635   8.311  18.003  0.00  0.00    +0.000 C 
ATOM     19  C   UNL     1       2.177   7.984  17.679  0.00  0.00    +0.000 C 
BRANCH  19  20
ATOM     20  C   UNL     1       1.220   8.866  18.458  0.00  0.00    +0.000 A 
ATOM     21  C   UNL     1       0.251   9.628  17.787  0.00  0.00    +0.000 A 
ATOM     22  C   UNL     1      -0.718  10.350  18.500  0.00  0.00    +0.000 A 
ATOM     23  C   UNL     1      -0.696  10.312  19.906  0.00  0.00    +0.000 A 
ATOM     24  C   UNL     1       0.279   9.575  20.596  0.00  0.00    +0.000 A 
ATOM     25  C   UNL     1       1.233   8.860  19.859  0.00  0.00    +0.000 A 
BRANCH  22  26
ATOM     26  C   UNL     1      -1.793  11.132  17.778  0.00  0.00    +0.000 C 
ATOM     27  F   UNL     1      -3.005  11.080  18.396  0.00  0.00    +0.000 F 
ATOM     28  F   UNL     1      -1.485  12.453  17.671  0.00  0.00    +0.000 F 
ATOM     29  F   UNL     1      -1.999  10.687  16.509  0.00  0.00    +0.000 F 
ENDBRANCH  22  26
BRANCH  24  30
ATOM     30  C   UNL     1       0.313   9.512  22.104  0.00  0.00    +0.000 C 
ATOM     31  F   UNL     1      -0.601   8.655  22.633  0.00  0.00    +0.000 F 
ATOM     32  F   UNL     1       1.525   9.100  22.573  0.00  0.00    +0.000 F 
ATOM     33  F   UNL     1       0.078  10.721  22.681  0.00  0.00    +0.000 F 
ENDBRANCH  24  30
ENDBRANCH  19  20
ENDBRANCH   1  19
TORSDOF 6
ENDMDL
MODEL 4
REMARK VINA RESULT:      -8.8      0.143      3.080
REMARK  Name = 
REMARK  7 active torsions:
REMARK  status: ('A' for Active; 'I' for Inactive)
REMARK    1  A    between atoms: C_1  and  C_2
REMARK    2  A    between atoms: C_2  and  O_3
REMARK    3  A    between atoms: C_2  and  C_20
REMARK    4  A    between atoms: O_3  and  C_4
REMARK    5  A    between atoms: C_12  and  C_13
REMARK    6  A    between atoms: C_22  and  C_23
REMARK    7  A    between atoms: C_28  and  C_29
REMARK                            x       y       z     vdW  Elec       q    Type
REMARK                         _______ _______ _______ _____ _____    ______ ____
ROOT
ATOM      1  O   UNL     1       0.501   8.860  19.676  0.00  0.00    +0.000 OA
ENDROOT
BRANCH   1   2
ATOM      2  C   UNL     1       0.085  10.113  20.241  0.00  0.00    +0.000 C 
ATOM      3  C   UNL     1       1.240  10.884  20.916  0.00  0.00    +0.000 C 
ATOM      4  N   UNL     1       0.842  12.263  20.822  0.00  0.00    +0.000 N 
ATOM      5  C   UNL     1       1.729  13.325  20.848  0.00  0.00    +0.000 C 
ATOM      6  O   UNL     1       2.831  13.339  21.362  0.00  0.00    +0.000 OA
ATOM      7  C   UNL     1       1.067  14.457  20.106  0.00  0.00    +0.000 C 
ATOM      8  C   UNL     1       0.123  13.714  19.154  0.00  0.00    +0.000 C 
ATOM      9  C   UNL     1      -0.269  12.465  19.924  0.00  0.00    +0.000 C 
ATOM     10  C   UNL     1      -0.343  11.140  19.144  0.00  0.00    +0.000 C 
BRANCH  10  11
ATOM     11  C   UNL     1      -1.631  10.949  18.370  0.00  0.00    +0.000 A 
ATOM     12  C   UNL     1      -2.748  11.709  18.780  0.00  0.00    +0.000 A 
ATOM     13  C   UNL     1      -3.934  11.709  18.047  0.00  0.00    +0.000 A 
ATOM     14  C   UNL     1      -4.029  10.925  16.906  0.00  0.00    +0.000 A 
ATOM     15  F   UNL     1      -5.142  10.971  16.168  0.00  0.00    +0.000 F 
ATOM     16  C   UNL     1      -2.968  10.111  16.520  0.00  0.00    +0.000 A 
ATOM     17  C   UNL     1      -1.772  10.115  17.254  0.00  0.00    +0.000 A 
ENDBRANCH  10  11
ENDBRANCH   1   2
BRANCH   1  19
ATOM     18  C   UNL     1       1.891   9.683  17.862  0.00  0.00    +0.000 C 
ATOM     19  C   UNL     1       1.846   8.867  19.155  0.00  0.00    +0.000 C 
BRANCH  19  20
ATOM     20  C   UNL     1       2.348   7.452  18.940  0.00  0.00    +0.000 A 
ATOM     21  C   UNL     1       3.261   7.171  17.912  0.00  0.00    +0.000 A 
ATOM     22  C   UNL     1       3.827   5.894  17.781  0.00  0.00    +0.000 A 
ATOM     23  C   UNL     1       3.455   4.889  18.692  0.00  0.00    +0.000 A 
ATOM     24  C   UNL     1       2.527   5.143  19.713  0.00  0.00    +0.000 A 
ATOM     25  C   UNL     1       1.979   6.428  19.823  0.00  0.00    +0.000 A 
BRANCH  22  26
ATOM     26  C   UNL     1       4.848   5.603  16.703  0.00  0.00    +0.000 C 
ATOM     27  F   UNL     1       4.614   4.437  16.039  0.00  0.00    +0.000 F 
ATOM     28  F   UNL     1       4.883   6.575  15.751  0.00  0.00    +0.000 F 
ATOM     29  F   UNL     1       6.114   5.509  17.194  0.00  0.00    +0.000 F 
ENDBRANCH  22  26
BRANCH  24  30
ATOM     30  C   UNL     1       2.122   4.081  20.707  0.00  0.00    +0.000 C 
ATOM     31  F   UNL     1       0.781   3.855  20.743  0.00  0.00    +0.000 F 
ATOM     32  F   UNL     1       2.695   2.875  20.432  0.00  0.00    +0.000 F 
ATOM     33  F   UNL     1       2.489   4.391  21.978  0.00  0.00    +0.000 F 
ENDBRANCH  24  30
ENDBRANCH  19  20
ENDBRANCH   1  19
TORSDOF 6
ENDMDL
MODEL 5
REMARK VINA RESULT:      -8.8      3.374      8.690
REMARK  Name = 
REMARK  7 active torsions:
REMARK  status: ('A' for Active; 'I' for Inactive)
REMARK    1  A    between atoms: C_1  and  C_2
REMARK    2  A    between atoms: C_2  and  O_3
REMARK    3  A    between atoms: C_2  and  C_20
REMARK    4  A    between atoms: O_3  and  C_4
REMARK    5  A    between atoms: C_12  and  C_13
REMARK    6  A    between atoms: C_22  and  C_23
REMARK    7  A    between atoms: C_28  and  C_29
REMARK                            x       y       z     vdW  Elec       q    Type
REMARK                         _______ _______ _______ _____ _____    ______ ____
ROOT
ATOM      1  O   UNL     1       3.523   7.111  19.294  0.00  0.00    +0.000 OA
ENDROOT
BRANCH   1   2
ATOM      2  C   UNL     1       3.649   5.700  19.526  0.00  0.00    +0.000 C 
ATOM      3  C   UNL     1       2.419   5.092  20.234  0.00  0.00    +0.000 C 
ATOM      4  N   UNL     1       2.413   3.718  19.808  0.00  0.00    +0.000 N 
ATOM      5  C   UNL     1       1.282   2.922  19.787  0.00  0.00    +0.000 C 
ATOM      6  O   UNL     1       0.288   3.053  20.475  0.00  0.00    +0.000 OA
ATOM      7  C   UNL     1       1.518   1.867  18.737  0.00  0.00    +0.000 C 
ATOM      8  C   UNL     1       2.505   2.562  17.793  0.00  0.00    +0.000 C 
ATOM      9  C   UNL     1       3.312   3.469  18.707  0.00  0.00    +0.000 C 
ATOM     10  C   UNL     1       3.647   4.882  18.195  0.00  0.00    +0.000 C 
BRANCH  10  11
ATOM     11  C   UNL     1       4.835   4.933  17.257  0.00  0.00    +0.000 A 
ATOM     12  C   UNL     1       4.736   4.208  16.050  0.00  0.00    +0.000 A 
ATOM     13  C   UNL     1       5.716   4.305  15.062  0.00  0.00    +0.000 A 
ATOM     14  C   UNL     1       6.825   5.109  15.280  0.00  0.00    +0.000 A 
ATOM     15  F   UNL     1       7.733   5.253  14.311  0.00  0.00    +0.000 F 
ATOM     16  C   UNL     1       6.983   5.779  16.491  0.00  0.00    +0.000 A 
ATOM     17  C   UNL     1       5.995   5.686  17.483  0.00  0.00    +0.000 A 
ENDBRANCH  10  11
ENDBRANCH   1   2
BRANCH   1  19
ATOM     18  C   UNL     1       3.092   8.022  17.084  0.00  0.00    +0.000 C 
ATOM     19  C   UNL     1       2.476   7.464  18.367  0.00  0.00    +0.000 C 
BRANCH  19  20
ATOM     20  C   UNL     1       1.510   8.449  18.996  0.00  0.00    +0.000 A 
ATOM     21  C   UNL     1       0.630   9.192  18.194  0.00  0.00    +0.000 A 
ATOM     22  C   UNL     1      -0.353  10.012  18.770  0.00  0.00    +0.000 A 
ATOM     23  C   UNL     1      -0.435  10.092  20.171  0.00  0.00    +0.000 A 
ATOM     24  C   UNL     1       0.450   9.375  20.992  0.00  0.00    +0.000 A 
ATOM     25  C   UNL     1       1.419   8.561  20.391  0.00  0.00    +0.000 A 
BRANCH  22  26
ATOM     26  C   UNL     1      -1.333  10.774  17.906  0.00  0.00    +0.000 C 
ATOM     27  F   UNL     1      -2.578  10.861  18.451  0.00  0.00    +0.000 F 
ATOM     28  F   UNL     1      -0.933  12.056  17.682  0.00  0.00    +0.000 F 
ATOM     29  F   UNL     1      -1.498  10.209  16.680  0.00  0.00    +0.000 F 
ENDBRANCH  22  26
BRANCH  24  30
ATOM     30  C   UNL     1       0.372   9.439  22.498  0.00  0.00    +0.000 C 
ATOM     31  F   UNL     1       1.565   9.221  23.113  0.00  0.00    +0.000 F 
ATOM     32  F   UNL     1      -0.057  10.655  22.939  0.00  0.00    +0.000 F 
ATOM     33  F   UNL     1      -0.493   8.525  23.014  0.00  0.00    +0.000 F 
ENDBRANCH  24  30
ENDBRANCH  19  20
ENDBRANCH   1  19
TORSDOF 6
ENDMDL
MODEL 6
REMARK VINA RESULT:      -8.8      1.098      1.488
REMARK  Name = 
REMARK  7 active torsions:
REMARK  status: ('A' for Active; 'I' for Inactive)
REMARK    1  A    between atoms: C_1  and  C_2
REMARK    2  A    between atoms: C_2  and  O_3
REMARK    3  A    between atoms: C_2  and  C_20
REMARK    4  A    between atoms: O_3  and  C_4
REMARK    5  A    between atoms: C_12  and  C_13
REMARK    6  A    between atoms: C_22  and  C_23
REMARK    7  A    between atoms: C_28  and  C_29
REMARK                            x       y       z     vdW  Elec       q    Type
REMARK                         _______ _______ _______ _____ _____    ______ ____
ROOT
ATOM      1  O   UNL     1       0.949   9.599  19.676  0.00  0.00    +0.000 OA
ENDROOT
BRANCH   1   2
ATOM      2  C   UNL     1       0.518  10.877  20.169  0.00  0.00    +0.000 C 
ATOM      3  C   UNL     1       1.690  11.847  20.436  0.00  0.00    +0.000 C 
ATOM      4  N   UNL     1       1.107  13.152  20.276  0.00  0.00    +0.000 N 
ATOM      5  C   UNL     1       1.832  14.285  19.952  0.00  0.00    +0.000 C 
ATOM      6  O   UNL     1       3.012  14.481  20.171  0.00  0.00    +0.000 OA
ATOM      7  C   UNL     1       0.875  15.226  19.266  0.00  0.00    +0.000 C 
ATOM      8  C   UNL     1      -0.161  14.263  18.676  0.00  0.00    +0.000 C 
ATOM      9  C   UNL     1      -0.199  13.111  19.666  0.00  0.00    +0.000 C 
ATOM     10  C   UNL     1      -0.281  11.683  19.096  0.00  0.00    +0.000 C 
BRANCH  10  11
ATOM     11  C   UNL     1      -1.679  11.258  18.696  0.00  0.00    +0.000 A 
ATOM     12  C   UNL     1      -2.754  12.023  19.196  0.00  0.00    +0.000 A 
ATOM     13  C   UNL     1      -4.064  11.797  18.774  0.00  0.00    +0.000 A 
ATOM     14  C   UNL     1      -4.320  10.783  17.863  0.00  0.00    +0.000 A 
ATOM     15  F   UNL     1      -5.565  10.605  17.409  0.00  0.00    +0.000 F 
ATOM     16  C   UNL     1      -3.288   9.966  17.409  0.00  0.00    +0.000 A 
ATOM     17  C   UNL     1      -1.969  10.196  17.829  0.00  0.00    +0.000 A 
ENDBRANCH  10  11
ENDBRANCH   1   2
BRANCH   1  19
ATOM     18  C   UNL     1       1.303   9.053  22.016  0.00  0.00    +0.000 C 
ATOM     19  C   UNL     1       0.865   8.535  20.646  0.00  0.00    +0.000 C 
BRANCH  19  20
ATOM     20  C   UNL     1       1.694   7.342  20.209  0.00  0.00    +0.000 A 
ATOM     21  C   UNL     1       1.514   6.091  20.819  0.00  0.00    +0.000 A 
ATOM     22  C   UNL     1       2.183   4.954  20.342  0.00  0.00    +0.000 A 
ATOM     23  C   UNL     1       3.054   5.088  19.246  0.00  0.00    +0.000 A 
ATOM     24  C   UNL     1       3.267   6.334  18.637  0.00  0.00    +0.000 A 
ATOM     25  C   UNL     1       2.583   7.453  19.131  0.00  0.00    +0.000 A 
BRANCH  22  26
ATOM     26  C   UNL     1       1.952   3.596  20.967  0.00  0.00    +0.000 C 
ATOM     27  F   UNL     1       2.687   2.605  20.391  0.00  0.00    +0.000 F 
ATOM     28  F   UNL     1       2.271   3.577  22.290  0.00  0.00    +0.000 F 
ATOM     29  F   UNL     1       0.653   3.197  20.885  0.00  0.00    +0.000 F 
ENDBRANCH  22  26
BRANCH  24  30
ATOM     30  C   UNL     1       4.189   6.498  17.453  0.00  0.00    +0.000 C 
ATOM     31  F   UNL     1       3.910   7.591  16.694  0.00  0.00    +0.000 F 
ATOM     32  F   UNL     1       5.492   6.630  17.832  0.00  0.00    +0.000 F 
ATOM     33  F   UNL     1       4.149   5.432  16.610  0.00  0.00    +0.000 F 
ENDBRANCH  24  30
ENDBRANCH  19  20
ENDBRANCH   1  19
TORSDOF 6
ENDMDL
MODEL 7
REMARK VINA RESULT:      -8.7      3.773      8.382
REMARK  Name = 
REMARK  7 active torsions:
REMARK  status: ('A' for Active; 'I' for Inactive)
REMARK    1  A    between atoms: C_1  and  C_2
REMARK    2  A    between atoms: C_2  and  O_3
REMARK    3  A    between atoms: C_2  and  C_20
REMARK    4  A    between atoms: O_3  and  C_4
REMARK    5  A    between atoms: C_12  and  C_13
REMARK    6  A    between atoms: C_22  and  C_23
REMARK    7  A    between atoms: C_28  and  C_29
REMARK                            x       y       z     vdW  Elec       q    Type
REMARK                         _______ _______ _______ _____ _____    ______ ____
ROOT
ATOM      1  O   UNL     1       3.577   7.086  19.347  0.00  0.00    +0.000 OA
ENDROOT
BRANCH   1   2
ATOM      2  C   UNL     1       3.699   5.673  19.577  0.00  0.00    +0.000 C 
ATOM      3  C   UNL     1       2.472   5.072  20.295  0.00  0.00    +0.000 C 
ATOM      4  N   UNL     1       2.457   3.697  19.870  0.00  0.00    +0.000 N 
ATOM      5  C   UNL     1       1.321   2.906  19.858  0.00  0.00    +0.000 C 
ATOM      6  O   UNL     1       0.334   3.042  20.555  0.00  0.00    +0.000 OA
ATOM      7  C   UNL     1       1.544   1.850  18.806  0.00  0.00    +0.000 C 
ATOM      8  C   UNL     1       2.526   2.541  17.854  0.00  0.00    +0.000 C 
ATOM      9  C   UNL     1       3.344   3.445  18.761  0.00  0.00    +0.000 C 
ATOM     10  C   UNL     1       3.682   4.856  18.246  0.00  0.00    +0.000 C 
BRANCH  10  11
ATOM     11  C   UNL     1       4.862   4.902  17.298  0.00  0.00    +0.000 A 
ATOM     12  C   UNL     1       4.732   4.215  16.072  0.00  0.00    +0.000 A 
ATOM     13  C   UNL     1       5.705   4.314  15.078  0.00  0.00    +0.000 A 
ATOM     14  C   UNL     1       6.837   5.081  15.308  0.00  0.00    +0.000 A 
ATOM     15  F   UNL     1       7.741   5.228  14.334  0.00  0.00    +0.000 F 
ATOM     16  C   UNL     1       7.025   5.710  16.535  0.00  0.00    +0.000 A 
ATOM     17  C   UNL     1       6.044   5.617  17.534  0.00  0.00    +0.000 A 
ENDBRANCH  10  11
ENDBRANCH   1   2
BRANCH   1  19
ATOM     18  C   UNL     1       2.742   7.751  17.165  0.00  0.00    +0.000 C 
ATOM     19  C   UNL     1       2.388   7.464  18.624  0.00  0.00    +0.000 C 
BRANCH  19  20
ATOM     20  C   UNL     1       1.715   8.654  19.280  0.00  0.00    +0.000 A 
ATOM     21  C   UNL     1       1.087   8.517  20.527  0.00  0.00    +0.000 A 
ATOM     22  C   UNL     1       0.571   9.634  21.201  0.00  0.00    +0.000 A 
ATOM     23  C   UNL     1       0.678  10.900  20.599  0.00  0.00    +0.000 A 
ATOM     24  C   UNL     1       1.282  11.056  19.342  0.00  0.00    +0.000 A 
ATOM     25  C   UNL     1       1.792   9.924  18.692  0.00  0.00    +0.000 A 
BRANCH  22  26
ATOM     26  C   UNL     1      -0.062   9.494  22.568  0.00  0.00    +0.000 C 
ATOM     27  F   UNL     1      -0.929   8.447  22.656  0.00  0.00    +0.000 F 
ATOM     28  F   UNL     1       0.863   9.296  23.547  0.00  0.00    +0.000 F 
ATOM     29  F   UNL     1      -0.769  10.598  22.932  0.00  0.00    +0.000 F 
ENDBRANCH  22  26
BRANCH  24  30
ATOM     30  C   UNL     1       1.417  12.408  18.683  0.00  0.00    +0.000 C 
ATOM     31  F   UNL     1       0.261  12.856  18.122  0.00  0.00    +0.000 F 
ATOM     32  F   UNL     1       1.801  13.373  19.566  0.00  0.00    +0.000 F 
ATOM     33  F   UNL     1       2.346  12.413  17.691  0.00  0.00    +0.000 F 
ENDBRANCH  24  30
ENDBRANCH  19  20
ENDBRANCH   1  19
TORSDOF 6
ENDMDL
MODEL 8
REMARK VINA RESULT:      -8.7      3.386      8.659
REMARK  Name = 
REMARK  7 active torsions:
REMARK  status: ('A' for Active; 'I' for Inactive)
REMARK    1  A    between atoms: C_1  and  C_2
REMARK    2  A    between atoms: C_2  and  O_3
REMARK    3  A    between atoms: C_2  and  C_20
REMARK    4  A    between atoms: O_3  and  C_4
REMARK    5  A    between atoms: C_12  and  C_13
REMARK    6  A    between atoms: C_22  and  C_23
REMARK    7  A    between atoms: C_28  and  C_29
REMARK                            x       y       z     vdW  Elec       q    Type
REMARK                         _______ _______ _______ _____ _____    ______ ____
ROOT
ATOM      1  O   UNL     1       3.510   7.133  19.377  0.00  0.00    +0.000 OA
ENDROOT
BRANCH   1   2
ATOM      2  C   UNL     1       3.718   5.725  19.568  0.00  0.00    +0.000 C 
ATOM      3  C   UNL     1       2.603   5.059  20.403  0.00  0.00    +0.000 C 
ATOM      4  N   UNL     1       2.603   3.691  19.959  0.00  0.00    +0.000 N 
ATOM      5  C   UNL     1       1.509   2.849  20.055  0.00  0.00    +0.000 C 
ATOM      6  O   UNL     1       0.597   2.931  20.856  0.00  0.00    +0.000 OA
ATOM      7  C   UNL     1       1.663   1.817  18.968  0.00  0.00    +0.000 C 
ATOM      8  C   UNL     1       2.505   2.564  17.928  0.00  0.00    +0.000 C 
ATOM      9  C   UNL     1       3.376   3.493  18.757  0.00  0.00    +0.000 C 
ATOM     10  C   UNL     1       3.593   4.924  18.233  0.00  0.00    +0.000 C 
BRANCH  10  11
ATOM     11  C   UNL     1       4.662   5.035  17.165  0.00  0.00    +0.000 A 
ATOM     12  C   UNL     1       5.882   5.640  17.534  0.00  0.00    +0.000 A 
ATOM     13  C   UNL     1       6.973   5.662  16.665  0.00  0.00    +0.000 A 
ATOM     14  C   UNL     1       6.849   5.102  15.403  0.00  0.00    +0.000 A 
ATOM     15  F   UNL     1       7.911   5.066  14.592  0.00  0.00    +0.000 F 
ATOM     16  C   UNL     1       5.635   4.563  14.987  0.00  0.00    +0.000 A 
ATOM     17  C   UNL     1       4.539   4.535  15.862  0.00  0.00    +0.000 A 
ENDBRANCH  10  11
ENDBRANCH   1   2
BRANCH   1  19
ATOM     18  C   UNL     1       3.046   7.980  17.148  0.00  0.00    +0.000 C 
ATOM     19  C   UNL     1       2.450   7.450  18.452  0.00  0.00    +0.000 C 
BRANCH  19  20
ATOM     20  C   UNL     1       1.479   8.441  19.066  0.00  0.00    +0.000 A 
ATOM     21  C   UNL     1       0.603   9.175  18.251  0.00  0.00    +0.000 A 
ATOM     22  C   UNL     1      -0.383  10.000  18.813  0.00  0.00    +0.000 A 
ATOM     23  C   UNL     1      -0.472  10.095  20.213  0.00  0.00    +0.000 A 
ATOM     24  C   UNL     1       0.409   9.388  21.046  0.00  0.00    +0.000 A 
ATOM     25  C   UNL     1       1.382   8.568  20.458  0.00  0.00    +0.000 A 
BRANCH  22  26
ATOM     26  C   UNL     1      -1.359  10.753  17.936  0.00  0.00    +0.000 C 
ATOM     27  F   UNL     1      -1.544  10.177  16.716  0.00  0.00    +0.000 F 
ATOM     28  F   UNL     1      -2.595  10.841  18.499  0.00  0.00    +0.000 F 
ATOM     29  F   UNL     1      -0.963  12.032  17.691  0.00  0.00    +0.000 F 
ENDBRANCH  22  26
BRANCH  24  30
ATOM     30  C   UNL     1       0.323   9.468  22.551  0.00  0.00    +0.000 C 
ATOM     31  F   UNL     1      -0.077  10.685  23.007  0.00  0.00    +0.000 F 
ATOM     32  F   UNL     1      -0.563   8.568  23.063  0.00  0.00    +0.000 F 
ATOM     33  F   UNL     1       1.514   9.210  23.155  0.00  0.00    +0.000 F 
ENDBRANCH  24  30
ENDBRANCH  19  20
ENDBRANCH   1  19
TORSDOF 6
ENDMDL
MODEL 9
REMARK VINA RESULT:      -8.7      1.054      3.278
REMARK  Name = 
REMARK  7 active torsions:
REMARK  status: ('A' for Active; 'I' for Inactive)
REMARK    1  A    between atoms: C_1  and  C_2
REMARK    2  A    between atoms: C_2  and  O_3
REMARK    3  A    between atoms: C_2  and  C_20
REMARK    4  A    between atoms: O_3  and  C_4
REMARK    5  A    between atoms: C_12  and  C_13
REMARK    6  A    between atoms: C_22  and  C_23
REMARK    7  A    between atoms: C_28  and  C_29
REMARK                            x       y       z     vdW  Elec       q    Type
REMARK                         _______ _______ _______ _____ _____    ______ ____
ROOT
ATOM      1  O   UNL     1       1.270   9.718  19.672  0.00  0.00    +0.000 OA
ENDROOT
BRANCH   1   2
ATOM      2  C   UNL     1       0.753  10.964  20.164  0.00  0.00    +0.000 C 
ATOM      3  C   UNL     1       1.861  11.983  20.509  0.00  0.00    +0.000 C 
ATOM      4  N   UNL     1       1.225  13.263  20.341  0.00  0.00    +0.000 N 
ATOM      5  C   UNL     1       1.910  14.435  20.074  0.00  0.00    +0.000 C 
ATOM      6  O   UNL     1       3.067  14.682  20.358  0.00  0.00    +0.000 OA
ATOM      7  C   UNL     1       0.945  15.342  19.355  0.00  0.00    +0.000 C 
ATOM      8  C   UNL     1      -0.011  14.343  18.695  0.00  0.00    +0.000 C 
ATOM      9  C   UNL     1      -0.044  13.171  19.662  0.00  0.00    +0.000 C 
ATOM     10  C   UNL     1      -0.028  11.752  19.064  0.00  0.00    +0.000 C 
BRANCH  10  11
ATOM     11  C   UNL     1      -1.381  11.269  18.584  0.00  0.00    +0.000 A 
ATOM     12  C   UNL     1      -2.520  11.922  19.100  0.00  0.00    +0.000 A 
ATOM     13  C   UNL     1      -3.798  11.646  18.616  0.00  0.00    +0.000 A 
ATOM     14  C   UNL     1      -3.957  10.689  17.625  0.00  0.00    +0.000 A 
ATOM     15  F   UNL     1      -5.172  10.466  17.115  0.00  0.00    +0.000 F 
ATOM     16  C   UNL     1      -2.859   9.977  17.149  0.00  0.00    +0.000 A 
ATOM     17  C   UNL     1      -1.572  10.260  17.631  0.00  0.00    +0.000 A 
ENDBRANCH  10  11
ENDBRANCH   1   2
BRANCH   1  19
ATOM     18  C   UNL     1       1.382   8.903  21.958  0.00  0.00    +0.000 C 
ATOM     19  C   UNL     1       0.979   8.586  20.517  0.00  0.00    +0.000 C 
BRANCH  19  20
ATOM     20  C   UNL     1       1.674   7.339  20.005  0.00  0.00    +0.000 A 
ATOM     21  C   UNL     1       2.571   7.417  18.929  0.00  0.00    +0.000 A 
ATOM     22  C   UNL     1       3.314   6.297  18.526  0.00  0.00    +0.000 A 
ATOM     23  C   UNL     1       3.134   5.082  19.210  0.00  0.00    +0.000 A 
ATOM     24  C   UNL     1       2.225   4.976  20.274  0.00  0.00    +0.000 A 
ATOM     25  C   UNL     1       1.499   6.111  20.658  0.00  0.00    +0.000 A 
BRANCH  22  26
ATOM     26  C   UNL     1       4.317   6.393  17.398  0.00  0.00    +0.000 C 
ATOM     27  F   UNL     1       4.353   5.282  16.612  0.00  0.00    +0.000 F 
ATOM     28  F   UNL     1       4.053   7.434  16.561  0.00  0.00    +0.000 F 
ATOM     29  F   UNL     1       5.589   6.579  17.844  0.00  0.00    +0.000 F 
ENDBRANCH  22  26
BRANCH  24  30
ATOM     30  C   UNL     1       2.026   3.683  21.028  0.00  0.00    +0.000 C 
ATOM     31  F   UNL     1       0.733   3.262  21.051  0.00  0.00    +0.000 F 
ATOM     32  F   UNL     1       2.742   2.657  20.488  0.00  0.00    +0.000 F 
ATOM     33  F   UNL     1       2.418   3.772  22.327  0.00  0.00    +0.000 F 
ENDBRANCH  24  30
ENDBRANCH  19  20
ENDBRANCH   1  19
TORSDOF 6
ENDMDL
