MODEL 1
REMARK VINA RESULT:      -6.5      0.000      0.000
REMARK  Name = 
REMARK  7 active torsions:
REMARK  status: ('A' for Active; 'I' for Inactive)
REMARK    1  A    between atoms: C_1  and  C_2
REMARK    2  A    between atoms: C_2  and  O_3
REMARK    3  A    between atoms: O_3  and  C_4
REMARK    4  A    between atoms: C_4  and  C_6
REMARK    5  A    between atoms: C_9  and  N_10
REMARK    6  A    between atoms: C_11  and  S_12
REMARK    7  A    between atoms: N_13  and  N_14
REMARK                            x       y       z     vdW  Elec       q    Type
REMARK                         _______ _______ _______ _____ _____    ______ ____
ROOT
ATOM      1  C   UNL     1       2.240   3.664  18.331  0.00  0.00    +0.000 A 
ATOM      2  C   UNL     1       2.440   5.001  17.972  0.00  0.00    +0.000 A 
ATOM      3  C   UNL     1       3.631   5.386  17.344  0.00  0.00    +0.000 A 
ATOM      4  C   UNL     1       4.640   4.452  17.055  0.00  0.00    +0.000 A 
ATOM      5  C   UNL     1       4.394   3.114  17.373  0.00  0.00    +0.000 A 
ATOM      6  C   UNL     1       3.217   2.721  18.017  0.00  0.00    +0.000 A 
ENDROOT
BRANCH   4   7
ATOM      7  N   UNL     1       5.857   4.922  16.543  0.00  0.00    +0.000 N 
ATOM      8  C   UNL     1       6.411   4.944  15.290  0.00  0.00    +0.000 C 
ATOM      9  N   UNL     1       7.532   5.614  15.144  0.00  0.00    +0.000 NA
ATOM     10  H   UNL     1       6.476   5.337  17.229  0.00  0.00    +0.000 HD
BRANCH   9  11
ATOM     11  N   UNL     1       8.154   5.572  13.940  0.00  0.00    +0.000 N 
ATOM     12  H   UNL     1       8.137   6.484  13.483  0.00  0.00    +0.000 HD
ATOM     13  H   UNL     1       7.747   4.880  13.306  0.00  0.00    +0.000 HD
ENDBRANCH   9  11
BRANCH   8  14
ATOM     14  S   UNL     1       5.694   4.054  13.941  0.00  0.00    +0.000 S 
ATOM     15  H   UNL     1       4.792   4.983  13.612  0.00  0.00    +0.000 HD
ENDBRANCH   8  14
ENDBRANCH   4   7
BRANCH   1  16
ATOM     16  C   UNL     1       0.983   3.185  18.954  0.00  0.00    +0.000 C 
ATOM     17  O   UNL     1       0.307   2.282  18.486  0.00  0.00    +0.000 OA
BRANCH  16  18
ATOM     18  O   UNL     1       0.685   3.934  20.039  0.00  0.00    +0.000 OA
BRANCH  18  20
ATOM     19  C   UNL     1       1.595   2.530  21.722  0.00  0.00    +0.000 C 
ATOM     20  C   UNL     1       1.666   3.903  21.082  0.00  0.00    +0.000 C 
ENDBRANCH  18  20
ENDBRANCH  16  18
ENDBRANCH   1  16
TORSDOF 6
ENDMDL
MODEL 2
REMARK VINA RESULT:      -6.3      0.206      1.218
REMARK  Name = 
REMARK  7 active torsions:
REMARK  status: ('A' for Active; 'I' for Inactive)
REMARK    1  A    between atoms: C_1  and  C_2
REMARK    2  A    between atoms: C_2  and  O_3
REMARK    3  A    between atoms: O_3  and  C_4
REMARK    4  A    between atoms: C_4  and  C_6
REMARK    5  A    between atoms: C_9  and  N_10
REMARK    6  A    between atoms: C_11  and  S_12
REMARK    7  A    between atoms: N_13  and  N_14
REMARK                            x       y       z     vdW  Elec       q    Type
REMARK                         _______ _______ _______ _____ _____    ______ ____
ROOT
ATOM      1  C   UNL     1       2.361   3.691  18.334  0.00  0.00    +0.000 A 
ATOM      2  C   UNL     1       3.436   2.822  18.123  0.00  0.00    +0.000 A 
ATOM      3  C   UNL     1       4.642   3.315  17.609  0.00  0.00    +0.000 A 
ATOM      4  C   UNL     1       4.805   4.676  17.302  0.00  0.00    +0.000 A 
ATOM      5  C   UNL     1       3.735   5.533  17.574  0.00  0.00    +0.000 A 
ATOM      6  C   UNL     1       2.520   5.050  18.069  0.00  0.00    +0.000 A 
ENDROOT
BRANCH   4   7
ATOM      7  N   UNL     1       5.990   5.081  16.673  0.00  0.00    +0.000 N 
ATOM      8  C   UNL     1       6.438   5.033  15.379  0.00  0.00    +0.000 C 
ATOM      9  N   UNL     1       7.564   5.655  15.113  0.00  0.00    +0.000 NA
ATOM     10  H   UNL     1       6.677   5.500  17.288  0.00  0.00    +0.000 HD
BRANCH   9  11
ATOM     11  N   UNL     1       8.081   5.543  13.865  0.00  0.00    +0.000 N 
ATOM     12  H   UNL     1       8.162   6.455  13.415  0.00  0.00    +0.000 HD
ATOM     13  H   UNL     1       7.532   4.927  13.261  0.00  0.00    +0.000 HD
ENDBRANCH   9  11
BRANCH   8  14
ATOM     14  S   UNL     1       5.582   4.116  14.132  0.00  0.00    +0.000 S 
ATOM     15  H   UNL     1       5.918   4.908  13.109  0.00  0.00    +0.000 HD
ENDBRANCH   8  14
ENDBRANCH   4   7
BRANCH   1  16
ATOM     16  C   UNL     1       1.076   3.241  18.920  0.00  0.00    +0.000 C 
ATOM     17  O   UNL     1       0.394   2.352  18.432  0.00  0.00    +0.000 OA
BRANCH  16  18
ATOM     18  O   UNL     1       0.761   3.998  19.995  0.00  0.00    +0.000 OA
BRANCH  18  20
ATOM     19  C   UNL     1       1.508   2.533  21.707  0.00  0.00    +0.000 C 
ATOM     20  C   UNL     1       1.684   3.906  21.088  0.00  0.00    +0.000 C 
ENDBRANCH  18  20
ENDBRANCH  16  18
ENDBRANCH   1  16
TORSDOF 6
ENDMDL
MODEL 3
REMARK VINA RESULT:      -6.1      4.506      6.792
REMARK  Name = 
REMARK  7 active torsions:
REMARK  status: ('A' for Active; 'I' for Inactive)
REMARK    1  A    between atoms: C_1  and  C_2
REMARK    2  A    between atoms: C_2  and  O_3
REMARK    3  A    between atoms: O_3  and  C_4
REMARK    4  A    between atoms: C_4  and  C_6
REMARK    5  A    between atoms: C_9  and  N_10
REMARK    6  A    between atoms: C_11  and  S_12
REMARK    7  A    between atoms: N_13  and  N_14
REMARK                            x       y       z     vdW  Elec       q    Type
REMARK                         _______ _______ _______ _____ _____    ______ ____
ROOT
ATOM      1  C   UNL     1       5.953   4.541  16.290  0.00  0.00    +0.000 A 
ATOM      2  C   UNL     1       4.556   4.538  16.226  0.00  0.00    +0.000 A 
ATOM      3  C   UNL     1       3.801   4.560  17.406  0.00  0.00    +0.000 A 
ATOM      4  C   UNL     1       4.418   4.590  18.668  0.00  0.00    +0.000 A 
ATOM      5  C   UNL     1       5.814   4.647  18.704  0.00  0.00    +0.000 A 
ATOM      6  C   UNL     1       6.577   4.607  17.534  0.00  0.00    +0.000 A 
ENDROOT
BRANCH   4   7
ATOM      7  N   UNL     1       3.611   4.481  19.807  0.00  0.00    +0.000 N 
ATOM      8  C   UNL     1       2.809   3.488  20.308  0.00  0.00    +0.000 C 
ATOM      9  N   UNL     1       2.304   3.674  21.506  0.00  0.00    +0.000 NA
ATOM     10  H   UNL     1       3.601   5.299  20.403  0.00  0.00    +0.000 HD
BRANCH   9  11
ATOM     11  N   UNL     1       1.430   2.756  21.986  0.00  0.00    +0.000 N 
ATOM     12  H   UNL     1       1.889   2.108  22.627  0.00  0.00    +0.000 HD
ATOM     13  H   UNL     1       0.975   2.216  21.246  0.00  0.00    +0.000 HD
ENDBRANCH   9  11
BRANCH   8  14
ATOM     14  S   UNL     1       2.407   2.051  19.359  0.00  0.00    +0.000 S 
ATOM     15  H   UNL     1       2.895   1.159  20.226  0.00  0.00    +0.000 HD
ENDBRANCH   8  14
ENDBRANCH   4   7
BRANCH   1  16
ATOM     16  C   UNL     1       6.806   4.567  15.079  0.00  0.00    +0.000 C 
ATOM     17  O   UNL     1       7.707   5.376  14.913  0.00  0.00    +0.000 OA
BRANCH  16  18
ATOM     18  O   UNL     1       6.390   3.634  14.193  0.00  0.00    +0.000 OA
BRANCH  18  20
ATOM     19  C   UNL     1       5.610   3.093  12.018  0.00  0.00    +0.000 C 
ATOM     20  C   UNL     1       6.514   4.012  12.816  0.00  0.00    +0.000 C 
ENDBRANCH  18  20
ENDBRANCH  16  18
ENDBRANCH   1  16
TORSDOF 6
ENDMDL
MODEL 4
REMARK VINA RESULT:      -6.1      4.623      6.862
REMARK  Name = 
REMARK  7 active torsions:
REMARK  status: ('A' for Active; 'I' for Inactive)
REMARK    1  A    between atoms: C_1  and  C_2
REMARK    2  A    between atoms: C_2  and  O_3
REMARK    3  A    between atoms: O_3  and  C_4
REMARK    4  A    between atoms: C_4  and  C_6
REMARK    5  A    between atoms: C_9  and  N_10
REMARK    6  A    between atoms: C_11  and  S_12
REMARK    7  A    between atoms: N_13  and  N_14
REMARK                            x       y       z     vdW  Elec       q    Type
REMARK                         _______ _______ _______ _____ _____    ______ ____
ROOT
ATOM      1  C   UNL     1       5.713   4.632  16.802  0.00  0.00    +0.000 A 
ATOM      2  C   UNL     1       4.632   3.757  16.656  0.00  0.00    +0.000 A 
ATOM      3  C   UNL     1       3.962   3.279  17.789  0.00  0.00    +0.000 A 
ATOM      4  C   UNL     1       4.348   3.664  19.084  0.00  0.00    +0.000 A 
ATOM      5  C   UNL     1       5.396   4.581  19.201  0.00  0.00    +0.000 A 
ATOM      6  C   UNL     1       6.083   5.051  18.078  0.00  0.00    +0.000 A 
ENDROOT
BRANCH   4   7
ATOM      7  N   UNL     1       3.721   3.051  20.177  0.00  0.00    +0.000 N 
ATOM      8  C   UNL     1       2.527   3.253  20.819  0.00  0.00    +0.000 C 
ATOM      9  N   UNL     1       2.184   2.375  21.734  0.00  0.00    +0.000 NA
ATOM     10  H   UNL     1       4.246   2.295  20.600  0.00  0.00    +0.000 HD
BRANCH   9  11
ATOM     11  N   UNL     1       1.058   2.602  22.452  0.00  0.00    +0.000 N 
ATOM     12  H   UNL     1       0.527   3.385  22.071  0.00  0.00    +0.000 HD
ATOM     13  H   UNL     1       1.247   2.785  23.441  0.00  0.00    +0.000 HD
ENDBRANCH   9  11
BRANCH   8  14
ATOM     14  S   UNL     1       1.521   4.669  20.487  0.00  0.00    +0.000 S 
ATOM     15  H   UNL     1       1.209   4.930  21.760  0.00  0.00    +0.000 HD
ENDBRANCH   8  14
ENDBRANCH   4   7
BRANCH   1  16
ATOM     16  C   UNL     1       6.432   5.211  15.642  0.00  0.00    +0.000 C 
ATOM     17  O   UNL     1       7.402   5.944  15.755  0.00  0.00    +0.000 OA
BRANCH  16  18
ATOM     18  O   UNL     1       5.813   4.867  14.490  0.00  0.00    +0.000 OA
BRANCH  18  20
ATOM     19  C   UNL     1       5.665   3.464  12.581  0.00  0.00    +0.000 C 
ATOM     20  C   UNL     1       6.611   4.092  13.585  0.00  0.00    +0.000 C 
ENDBRANCH  18  20
ENDBRANCH  16  18
ENDBRANCH   1  16
TORSDOF 6
ENDMDL
MODEL 5
REMARK VINA RESULT:      -6.1      4.532      6.833
REMARK  Name = 
REMARK  7 active torsions:
REMARK  status: ('A' for Active; 'I' for Inactive)
REMARK    1  A    between atoms: C_1  and  C_2
REMARK    2  A    between atoms: C_2  and  O_3
REMARK    3  A    between atoms: O_3  and  C_4
REMARK    4  A    between atoms: C_4  and  C_6
REMARK    5  A    between atoms: C_9  and  N_10
REMARK    6  A    between atoms: C_11  and  S_12
REMARK    7  A    between atoms: N_13  and  N_14
REMARK                            x       y       z     vdW  Elec       q    Type
REMARK                         _______ _______ _______ _____ _____    ______ ____
ROOT
ATOM      1  C   UNL     1       6.030   4.463  16.218  0.00  0.00    +0.000 A 
ATOM      2  C   UNL     1       6.623   4.639  17.473  0.00  0.00    +0.000 A 
ATOM      3  C   UNL     1       5.854   4.497  18.635  0.00  0.00    +0.000 A 
ATOM      4  C   UNL     1       4.488   4.174  18.574  0.00  0.00    +0.000 A 
ATOM      5  C   UNL     1       3.933   3.950  17.311  0.00  0.00    +0.000 A 
ATOM      6  C   UNL     1       4.686   4.106  16.143  0.00  0.00    +0.000 A 
ENDROOT
BRANCH   4   7
ATOM      7  N   UNL     1       3.749   4.173  19.763  0.00  0.00    +0.000 N 
ATOM      8  C   UNL     1       2.797   3.337  20.286  0.00  0.00    +0.000 C 
ATOM      9  N   UNL     1       2.417   3.563  21.523  0.00  0.00    +0.000 NA
ATOM     10  H   UNL     1       3.943   4.948  20.385  0.00  0.00    +0.000 HD
BRANCH   9  11
ATOM     11  N   UNL     1       1.408   2.815  22.032  0.00  0.00    +0.000 N 
ATOM     12  H   UNL     1       1.188   2.026  21.423  0.00  0.00    +0.000 HD
ATOM     13  H   UNL     1       0.553   3.355  22.189  0.00  0.00    +0.000 HD
ENDBRANCH   9  11
BRANCH   8  14
ATOM     14  S   UNL     1       2.054   2.055  19.319  0.00  0.00    +0.000 S 
ATOM     15  H   UNL     1       2.025   1.137  20.290  0.00  0.00    +0.000 HD
ENDBRANCH   8  14
ENDBRANCH   4   7
BRANCH   1  16
ATOM     16  C   UNL     1       6.800   4.552  14.954  0.00  0.00    +0.000 C 
ATOM     17  O   UNL     1       7.609   5.438  14.725  0.00  0.00    +0.000 OA
BRANCH  16  18
ATOM     18  O   UNL     1       6.417   3.573  14.104  0.00  0.00    +0.000 OA
BRANCH  18  20
ATOM     19  C   UNL     1       5.335   3.254  12.015  0.00  0.00    +0.000 C 
ATOM     20  C   UNL     1       6.509   3.910  12.714  0.00  0.00    +0.000 C 
ENDBRANCH  18  20
ENDBRANCH  16  18
ENDBRANCH   1  16
TORSDOF 6
ENDMDL
MODEL 6
REMARK VINA RESULT:      -6.1      4.569      6.743
REMARK  Name = 
REMARK  7 active torsions:
REMARK  status: ('A' for Active; 'I' for Inactive)
REMARK    1  A    between atoms: C_1  and  C_2
REMARK    2  A    between atoms: C_2  and  O_3
REMARK    3  A    between atoms: O_3  and  C_4
REMARK    4  A    between atoms: C_4  and  C_6
REMARK    5  A    between atoms: C_9  and  N_10
REMARK    6  A    between atoms: C_11  and  S_12
REMARK    7  A    between atoms: N_13  and  N_14
REMARK                            x       y       z     vdW  Elec       q    Type
REMARK                         _______ _______ _______ _____ _____    ______ ____
ROOT
ATOM      1  C   UNL     1       5.333   4.933  16.886  0.00  0.00    +0.000 A 
ATOM      2  C   UNL     1       5.718   5.271  18.187  0.00  0.00    +0.000 A 
ATOM      3  C   UNL     1       5.182   4.577  19.278  0.00  0.00    +0.000 A 
ATOM      4  C   UNL     1       4.259   3.532  19.099  0.00  0.00    +0.000 A 
ATOM      5  C   UNL     1       3.932   3.177  17.787  0.00  0.00    +0.000 A 
ATOM      6  C   UNL     1       4.447   3.875  16.691  0.00  0.00    +0.000 A 
ENDROOT
BRANCH   4   7
ATOM      7  N   UNL     1       3.664   2.965  20.233  0.00  0.00    +0.000 N 
ATOM      8  C   UNL     1       2.440   3.109  20.832  0.00  0.00    +0.000 C 
ATOM      9  N   UNL     1       2.157   2.291  21.820  0.00  0.00    +0.000 NA
ATOM     10  H   UNL     1       4.247   2.306  20.735  0.00  0.00    +0.000 HD
BRANCH   9  11
ATOM     11  N   UNL     1       0.996   2.473  22.494  0.00  0.00    +0.000 N 
ATOM     12  H   UNL     1       1.168   2.763  23.456  0.00  0.00    +0.000 HD
ATOM     13  H   UNL     1       0.406   1.638  22.504  0.00  0.00    +0.000 HD
ENDBRANCH   9  11
BRANCH   8  14
ATOM     14  S   UNL     1       1.314   4.385  20.350  0.00  0.00    +0.000 S 
ATOM     15  H   UNL     1       0.908   4.698  21.584  0.00  0.00    +0.000 HD
ENDBRANCH   8  14
ENDBRANCH   4   7
BRANCH   1  16
ATOM     16  C   UNL     1       5.900   5.597  15.688  0.00  0.00    +0.000 C 
ATOM     17  O   UNL     1       5.424   6.608  15.196  0.00  0.00    +0.000 OA
BRANCH  16  18
ATOM     18  O   UNL     1       6.944   4.884  15.209  0.00  0.00    +0.000 OA
BRANCH  18  20
ATOM     19  C   UNL     1       6.133   3.710  13.312  0.00  0.00    +0.000 C 
ATOM     20  C   UNL     1       7.036   4.834  13.780  0.00  0.00    +0.000 C 
ENDBRANCH  18  20
ENDBRANCH  16  18
ENDBRANCH   1  16
TORSDOF 6
ENDMDL
MODEL 7
REMARK VINA RESULT:      -6.0      4.429      6.772
REMARK  Name = 
REMARK  7 active torsions:
REMARK  status: ('A' for Active; 'I' for Inactive)
REMARK    1  A    between atoms: C_1  and  C_2
REMARK    2  A    between atoms: C_2  and  O_3
REMARK    3  A    between atoms: O_3  and  C_4
REMARK    4  A    between atoms: C_4  and  C_6
REMARK    5  A    between atoms: C_9  and  N_10
REMARK    6  A    between atoms: C_11  and  S_12
REMARK    7  A    between atoms: N_13  and  N_14
REMARK                            x       y       z     vdW  Elec       q    Type
REMARK                         _______ _______ _______ _____ _____    ______ ____
ROOT
ATOM      1  C   UNL     1       5.940   4.873  15.350  0.00  0.00    +0.000 A 
ATOM      2  C   UNL     1       5.404   6.105  15.738  0.00  0.00    +0.000 A 
ATOM      3  C   UNL     1       4.527   6.174  16.828  0.00  0.00    +0.000 A 
ATOM      4  C   UNL     1       4.171   5.025  17.554  0.00  0.00    +0.000 A 
ATOM      5  C   UNL     1       4.763   3.815  17.181  0.00  0.00    +0.000 A 
ATOM      6  C   UNL     1       5.625   3.731  16.084  0.00  0.00    +0.000 A 
ENDROOT
BRANCH   4   7
ATOM      7  N   UNL     1       3.193   5.142  18.549  0.00  0.00    +0.000 N 
ATOM      8  C   UNL     1       2.233   4.293  19.038  0.00  0.00    +0.000 C 
ATOM      9  N   UNL     1       1.571   4.688  20.102  0.00  0.00    +0.000 NA
ATOM     10  H   UNL     1       3.170   6.037  19.021  0.00  0.00    +0.000 HD
BRANCH   9  11
ATOM     11  N   UNL     1       0.552   3.915  20.548  0.00  0.00    +0.000 N 
ATOM     12  H   UNL     1      -0.345   4.239  20.183  0.00  0.00    +0.000 HD
ATOM     13  H   UNL     1       0.496   3.880  21.568  0.00  0.00    +0.000 HD
ENDBRANCH   9  11
BRANCH   8  14
ATOM     14  S   UNL     1       1.847   2.766  18.235  0.00  0.00    +0.000 S 
ATOM     15  H   UNL     1       0.610   3.104  17.859  0.00  0.00    +0.000 HD
ENDBRANCH   8  14
ENDBRANCH   4   7
BRANCH   1  16
ATOM     16  C   UNL     1       6.910   4.741  14.237  0.00  0.00    +0.000 C 
ATOM     17  O   UNL     1       7.734   5.600  13.963  0.00  0.00    +0.000 OA
BRANCH  16  18
ATOM     18  O   UNL     1       6.689   3.593  13.558  0.00  0.00    +0.000 OA
BRANCH  18  20
ATOM     19  C   UNL     1       5.104   3.175  11.841  0.00  0.00    +0.000 C 
ATOM     20  C   UNL     1       6.470   3.757  12.151  0.00  0.00    +0.000 C 
ENDBRANCH  18  20
ENDBRANCH  16  18
ENDBRANCH   1  16
TORSDOF 6
ENDMDL
MODEL 8
REMARK VINA RESULT:      -6.0      4.589      6.829
REMARK  Name = 
REMARK  7 active torsions:
REMARK  status: ('A' for Active; 'I' for Inactive)
REMARK    1  A    between atoms: C_1  and  C_2
REMARK    2  A    between atoms: C_2  and  O_3
REMARK    3  A    between atoms: O_3  and  C_4
REMARK    4  A    between atoms: C_4  and  C_6
REMARK    5  A    between atoms: C_9  and  N_10
REMARK    6  A    between atoms: C_11  and  S_12
REMARK    7  A    between atoms: N_13  and  N_14
REMARK                            x       y       z     vdW  Elec       q    Type
REMARK                         _______ _______ _______ _____ _____    ______ ____
ROOT
ATOM      1  C   UNL     1       5.772   5.673  17.317  0.00  0.00    +0.000 A 
ATOM      2  C   UNL     1       6.090   4.588  18.140  0.00  0.00    +0.000 A 
ATOM      3  C   UNL     1       5.204   4.193  19.151  0.00  0.00    +0.000 A 
ATOM      4  C   UNL     1       3.987   4.863  19.359  0.00  0.00    +0.000 A 
ATOM      5  C   UNL     1       3.667   5.909  18.488  0.00  0.00    +0.000 A 
ATOM      6  C   UNL     1       4.552   6.323  17.488  0.00  0.00    +0.000 A 
ENDROOT
BRANCH   4   7
ATOM      7  N   UNL     1       3.207   4.502  20.465  0.00  0.00    +0.000 N 
ATOM      8  C   UNL     1       2.380   3.443  20.734  0.00  0.00    +0.000 C 
ATOM      9  N   UNL     1       1.916   3.343  21.959  0.00  0.00    +0.000 NA
ATOM     10  H   UNL     1       3.247   5.148  21.243  0.00  0.00    +0.000 HD
BRANCH   9  11
ATOM     11  N   UNL     1       1.019   2.364  22.230  0.00  0.00    +0.000 N 
ATOM     12  H   UNL     1       0.203   2.432  21.622  0.00  0.00    +0.000 HD
ATOM     13  H   UNL     1       0.704   2.370  23.203  0.00  0.00    +0.000 HD
ENDBRANCH   9  11
BRANCH   8  14
ATOM     14  S   UNL     1       1.895   2.299  19.476  0.00  0.00    +0.000 S 
ATOM     15  H   UNL     1       0.778   1.880  20.079  0.00  0.00    +0.000 HD
ENDBRANCH   8  14
ENDBRANCH   4   7
BRANCH   1  16
ATOM     16  C   UNL     1       6.644   6.108  16.201  0.00  0.00    +0.000 C 
ATOM     17  O   UNL     1       7.666   6.758  16.365  0.00  0.00    +0.000 OA
BRANCH  16  18
ATOM     18  O   UNL     1       6.103   5.746  15.016  0.00  0.00    +0.000 OA
BRANCH  18  20
ATOM     19  C   UNL     1       5.923   3.834  13.620  0.00  0.00    +0.000 C 
ATOM     20  C   UNL     1       6.886   4.819  14.254  0.00  0.00    +0.000 C 
ENDBRANCH  18  20
ENDBRANCH  16  18
ENDBRANCH   1  16
TORSDOF 6
ENDMDL
MODEL 9
REMARK VINA RESULT:      -5.9      1.980      2.084
REMARK  Name = 
REMARK  7 active torsions:
REMARK  status: ('A' for Active; 'I' for Inactive)
REMARK    1  A    between atoms: C_1  and  C_2
REMARK    2  A    between atoms: C_2  and  O_3
REMARK    3  A    between atoms: O_3  and  C_4
REMARK    4  A    between atoms: C_4  and  C_6
REMARK    5  A    between atoms: C_9  and  N_10
REMARK    6  A    between atoms: C_11  and  S_12
REMARK    7  A    between atoms: N_13  and  N_14
REMARK                            x       y       z     vdW  Elec       q    Type
REMARK                         _______ _______ _______ _____ _____    ______ ____
ROOT
ATOM      1  C   UNL     1       1.852   3.711  18.507  0.00  0.00    +0.000 A 
ATOM      2  C   UNL     1       1.808   5.085  18.763  0.00  0.00    +0.000 A 
ATOM      3  C   UNL     1       2.787   5.928  18.222  0.00  0.00    +0.000 A 
ATOM      4  C   UNL     1       3.822   5.425  17.416  0.00  0.00    +0.000 A 
ATOM      5  C   UNL     1       3.812   4.057  17.130  0.00  0.00    +0.000 A 
ATOM      6  C   UNL     1       2.851   3.203  17.679  0.00  0.00    +0.000 A 
ENDROOT
BRANCH   4   7
ATOM      7  N   UNL     1       4.840   6.300  17.014  0.00  0.00    +0.000 N 
ATOM      8  C   UNL     1       6.141   6.482  17.405  0.00  0.00    +0.000 C 
ATOM      9  N   UNL     1       6.869   7.311  16.692  0.00  0.00    +0.000 NA
ATOM     10  H   UNL     1       4.581   6.945  16.278  0.00  0.00    +0.000 HD
BRANCH   9  11
ATOM     11  N   UNL     1       8.128   7.585  17.113  0.00  0.00    +0.000 N 
ATOM     12  H   UNL     1       8.675   6.732  17.224  0.00  0.00    +0.000 HD
ATOM     13  H   UNL     1       8.148   8.105  17.993  0.00  0.00    +0.000 HD
ENDBRANCH   9  11
BRANCH   8  14
ATOM     14  S   UNL     1       6.796   5.696  18.847  0.00  0.00    +0.000 S 
ATOM     15  H   UNL     1       7.469   4.739  18.202  0.00  0.00    +0.000 HD
ENDBRANCH   8  14
ENDBRANCH   4   7
BRANCH   1  16
ATOM     16  C   UNL     1       0.819   2.774  19.009  0.00  0.00    +0.000 C 
ATOM     17  O   UNL     1       0.245   1.966  18.295  0.00  0.00    +0.000 OA
BRANCH  16  18
ATOM     18  O   UNL     1       0.576   3.005  20.319  0.00  0.00    +0.000 OA
BRANCH  18  20
ATOM     19  C   UNL     1       2.283   3.479  21.899  0.00  0.00    +0.000 C 
ATOM     20  C   UNL     1       1.492   2.375  21.223  0.00  0.00    +0.000 C 
ENDBRANCH  18  20
ENDBRANCH  16  18
ENDBRANCH   1  16
TORSDOF 6
ENDMDL
