MODEL 1
REMARK VINA RESULT:      -6.5      0.000      0.000
REMARK  Name = 
REMARK  5 active torsions:
REMARK  status: ('A' for Active; 'I' for Inactive)
REMARK    1  A    between atoms: C_2  and  O_3
REMARK    2  A    between atoms: C_2  and  C_4
REMARK    3  A    between atoms: C_5  and  C_6
REMARK    4  A    between atoms: CA_9  and  C_10
REMARK    5  A    between atoms: C_10  and  OXT_12
REMARK                            x       y       z     vdW  Elec       q    Type
REMARK                         _______ _______ _______ _____ _____    ______ ____
ROOT
ATOM      1  C   UNL     1       5.963   4.804  15.478  0.00  0.00    +0.000 A 
ATOM      2  C   UNL     1       5.405   5.872  16.190  0.00  0.00    +0.000 A 
ATOM      3  C   UNL     1       5.990   6.307  17.379  0.00  0.00    +0.000 A 
ATOM      4  CA  UNL     1       7.116   5.642  17.834  0.00  0.00    +0.000 A 
ATOM      5  N   UNL     1       7.694   4.586  17.190  0.00  0.00    +0.000 NA
ATOM      6  C   UNL     1       7.096   4.201  16.034  0.00  0.00    +0.000 A 
ENDROOT
BRANCH   1   8
ATOM      7  C   UNL     1       6.087   3.615  13.299  0.00  0.00    +0.000 C 
ATOM      8  C   UNL     1       5.380   4.274  14.232  0.00  0.00    +0.000 C 
BRANCH   7  10
ATOM      9  O   UNL     1       4.580   3.488  11.494  0.00  0.00    +0.000 OA
ATOM     10  C   UNL     1       5.566   3.030  12.048  0.00  0.00    +0.000 C 
BRANCH  10  11
ATOM     11  O   UNL     1       6.230   1.952  11.593  0.00  0.00    +0.000 OA
ATOM     12  H   UNL     1       7.125   1.833  11.950  0.00  0.00    +0.000 HD
ENDBRANCH  10  11
ENDBRANCH   7  10
ENDBRANCH   1   8
BRANCH   4  13
ATOM     13  C   UNL     1       7.775   6.063  19.105  0.00  0.00    +0.000 C 
ATOM     14  O   UNL     1       7.703   5.460  20.160  0.00  0.00    +0.000 OA
BRANCH  13  15
ATOM     15  OXT UNL     1       8.472   7.210  18.921  0.00  0.00    +0.000 OA
ATOM     16  HXT UNL     1       8.290   7.817  19.677  0.00  0.00    +0.000 HD
ENDBRANCH  13  15
ENDBRANCH   4  13
TORSDOF 5
ENDMDL
MODEL 2
REMARK VINA RESULT:      -6.4      4.407      4.904
REMARK  Name = 
REMARK  5 active torsions:
REMARK  status: ('A' for Active; 'I' for Inactive)
REMARK    1  A    between atoms: C_2  and  O_3
REMARK    2  A    between atoms: C_2  and  C_4
REMARK    3  A    between atoms: C_5  and  C_6
REMARK    4  A    between atoms: CA_9  and  C_10
REMARK    5  A    between atoms: C_10  and  OXT_12
REMARK                            x       y       z     vdW  Elec       q    Type
REMARK                         _______ _______ _______ _____ _____    ______ ____
ROOT
ATOM      1  C   UNL     1       3.867   3.971  17.411  0.00  0.00    +0.000 A 
ATOM      2  C   UNL     1       2.471   3.904  17.496  0.00  0.00    +0.000 A 
ATOM      3  C   UNL     1       1.856   3.550  18.697  0.00  0.00    +0.000 A 
ATOM      4  CA  UNL     1       2.663   3.254  19.782  0.00  0.00    +0.000 A 
ATOM      5  N   UNL     1       4.028   3.288  19.752  0.00  0.00    +0.000 NA
ATOM      6  C   UNL     1       4.584   3.643  18.565  0.00  0.00    +0.000 A 
ENDROOT
BRANCH   1   8
ATOM      7  C   UNL     1       5.904   4.141  15.998  0.00  0.00    +0.000 C 
ATOM      8  C   UNL     1       4.582   4.309  16.167  0.00  0.00    +0.000 C 
BRANCH   7  10
ATOM      9  O   UNL     1       6.458   3.834  13.730  0.00  0.00    +0.000 OA
ATOM     10  C   UNL     1       6.680   4.424  14.774  0.00  0.00    +0.000 C 
BRANCH  10  11
ATOM     11  O   UNL     1       7.655   5.340  14.907  0.00  0.00    +0.000 OA
ATOM     12  H   UNL     1       8.011   5.444  15.805  0.00  0.00    +0.000 HD
ENDBRANCH  10  11
ENDBRANCH   7  10
ENDBRANCH   1   8
BRANCH   4  13
ATOM     13  C   UNL     1       2.055   2.861  21.086  0.00  0.00    +0.000 C 
ATOM     14  O   UNL     1       2.681   2.530  22.076  0.00  0.00    +0.000 OA
BRANCH  13  15
ATOM     15  OXT UNL     1       0.703   2.929  21.019  0.00  0.00    +0.000 OA
ATOM     16  HXT UNL     1       0.321   2.244  21.616  0.00  0.00    +0.000 HD
ENDBRANCH  13  15
ENDBRANCH   4  13
TORSDOF 5
ENDMDL
MODEL 3
REMARK VINA RESULT:      -6.3      4.332      4.826
REMARK  Name = 
REMARK  5 active torsions:
REMARK  status: ('A' for Active; 'I' for Inactive)
REMARK    1  A    between atoms: C_2  and  O_3
REMARK    2  A    between atoms: C_2  and  C_4
REMARK    3  A    between atoms: C_5  and  C_6
REMARK    4  A    between atoms: CA_9  and  C_10
REMARK    5  A    between atoms: C_10  and  OXT_12
REMARK                            x       y       z     vdW  Elec       q    Type
REMARK                         _______ _______ _______ _____ _____    ______ ____
ROOT
ATOM      1  C   UNL     1       4.257   4.544  17.792  0.00  0.00    +0.000 A 
ATOM      2  C   UNL     1       2.915   4.945  17.803  0.00  0.00    +0.000 A 
ATOM      3  C   UNL     1       2.073   4.554  18.844  0.00  0.00    +0.000 A 
ATOM      4  CA  UNL     1       2.599   3.753  19.843  0.00  0.00    +0.000 A 
ATOM      5  N   UNL     1       3.893   3.320  19.875  0.00  0.00    +0.000 NA
ATOM      6  C   UNL     1       4.678   3.728  18.846  0.00  0.00    +0.000 A 
ENDROOT
BRANCH   1   8
ATOM      7  C   UNL     1       5.668   4.010  15.817  0.00  0.00    +0.000 C 
ATOM      8  C   UNL     1       5.193   4.896  16.709  0.00  0.00    +0.000 C 
BRANCH   7  10
ATOM      9  O   UNL     1       7.367   5.223  14.730  0.00  0.00    +0.000 OA
ATOM     10  C   UNL     1       6.578   4.294  14.690  0.00  0.00    +0.000 C 
BRANCH  10  11
ATOM     11  O   UNL     1       6.447   3.487  13.623  0.00  0.00    +0.000 OA
ATOM     12  H   UNL     1       7.238   3.403  13.065  0.00  0.00    +0.000 HD
ENDBRANCH  10  11
ENDBRANCH   7  10
ENDBRANCH   1   8
BRANCH   4  13
ATOM     13  C   UNL     1       1.737   3.300  20.974  0.00  0.00    +0.000 C 
ATOM     14  O   UNL     1       2.117   3.138  22.118  0.00  0.00    +0.000 OA
BRANCH  13  15
ATOM     15  OXT UNL     1       0.465   3.101  20.551  0.00  0.00    +0.000 OA
ATOM     16  HXT UNL     1      -0.149   3.577  21.158  0.00  0.00    +0.000 HD
ENDBRANCH  13  15
ENDBRANCH   4  13
TORSDOF 5
ENDMDL
MODEL 4
REMARK VINA RESULT:      -6.3      4.450      4.941
REMARK  Name = 
REMARK  5 active torsions:
REMARK  status: ('A' for Active; 'I' for Inactive)
REMARK    1  A    between atoms: C_2  and  O_3
REMARK    2  A    between atoms: C_2  and  C_4
REMARK    3  A    between atoms: C_5  and  C_6
REMARK    4  A    between atoms: CA_9  and  C_10
REMARK    5  A    between atoms: C_10  and  OXT_12
REMARK                            x       y       z     vdW  Elec       q    Type
REMARK                         _______ _______ _______ _____ _____    ______ ____
ROOT
ATOM      1  C   UNL     1       4.045   3.970  17.494  0.00  0.00    +0.000 A 
ATOM      2  C   UNL     1       3.780   2.620  17.756  0.00  0.00    +0.000 A 
ATOM      3  C   UNL     1       3.119   2.247  18.926  0.00  0.00    +0.000 A 
ATOM      4  CA  UNL     1       2.755   3.243  19.816  0.00  0.00    +0.000 A 
ATOM      5  N   UNL     1       3.001   4.572  19.620  0.00  0.00    +0.000 NA
ATOM      6  C   UNL     1       3.641   4.890  18.466  0.00  0.00    +0.000 A 
ENDROOT
BRANCH   1   8
ATOM      7  C   UNL     1       5.920   3.895  15.865  0.00  0.00    +0.000 C 
ATOM      8  C   UNL     1       4.765   4.431  16.293  0.00  0.00    +0.000 C 
BRANCH   7  10
ATOM      9  O   UNL     1       7.455   5.221  14.669  0.00  0.00    +0.000 OA
ATOM     10  C   UNL     1       6.677   4.282  14.658  0.00  0.00    +0.000 C 
BRANCH  10  11
ATOM     11  O   UNL     1       6.422   3.553  13.557  0.00  0.00    +0.000 OA
ATOM     12  H   UNL     1       7.204   3.229  13.081  0.00  0.00    +0.000 HD
ENDBRANCH  10  11
ENDBRANCH   7  10
ENDBRANCH   1   8
BRANCH   4  13
ATOM     13  C   UNL     1       2.054   2.895  21.086  0.00  0.00    +0.000 C 
ATOM     14  O   UNL     1       2.605   2.562  22.119  0.00  0.00    +0.000 OA
BRANCH  13  15
ATOM     15  OXT UNL     1       0.712   3.009  20.934  0.00  0.00    +0.000 OA
ATOM     16  HXT UNL     1       0.339   3.455  21.730  0.00  0.00    +0.000 HD
ENDBRANCH  13  15
ENDBRANCH   4  13
TORSDOF 5
ENDMDL
MODEL 5
REMARK VINA RESULT:      -6.1      4.553      5.950
REMARK  Name = 
REMARK  5 active torsions:
REMARK  status: ('A' for Active; 'I' for Inactive)
REMARK    1  A    between atoms: C_2  and  O_3
REMARK    2  A    between atoms: C_2  and  C_4
REMARK    3  A    between atoms: C_5  and  C_6
REMARK    4  A    between atoms: CA_9  and  C_10
REMARK    5  A    between atoms: C_10  and  OXT_12
REMARK                            x       y       z     vdW  Elec       q    Type
REMARK                         _______ _______ _______ _____ _____    ______ ____
ROOT
ATOM      1  C   UNL     1       4.815   4.662  19.218  0.00  0.00    +0.000 A 
ATOM      2  C   UNL     1       3.780   5.505  19.641  0.00  0.00    +0.000 A 
ATOM      3  C   UNL     1       2.656   4.975  20.273  0.00  0.00    +0.000 A 
ATOM      4  CA  UNL     1       2.592   3.603  20.450  0.00  0.00    +0.000 A 
ATOM      5  N   UNL     1       3.563   2.733  20.044  0.00  0.00    +0.000 NA
ATOM      6  C   UNL     1       4.641   3.292  19.439  0.00  0.00    +0.000 A 
ENDROOT
BRANCH   1   8
ATOM      7  C   UNL     1       5.982   6.039  17.509  0.00  0.00    +0.000 C 
ATOM      8  C   UNL     1       6.017   5.151  18.518  0.00  0.00    +0.000 C 
BRANCH   7  10
ATOM      9  O   UNL     1       7.638   7.663  17.110  0.00  0.00    +0.000 OA
ATOM     10  C   UNL     1       7.141   6.597  16.786  0.00  0.00    +0.000 C 
BRANCH  10  11
ATOM     11  O   UNL     1       7.577   5.871  15.742  0.00  0.00    +0.000 OA
ATOM     12  H   UNL     1       8.349   5.309  15.918  0.00  0.00    +0.000 HD
ENDBRANCH  10  11
ENDBRANCH   7  10
ENDBRANCH   1   8
BRANCH   4  13
ATOM     13  C   UNL     1       1.406   2.985  21.113  0.00  0.00    +0.000 C 
ATOM     14  O   UNL     1       1.415   2.464  22.212  0.00  0.00    +0.000 OA
BRANCH  13  15
ATOM     15  OXT UNL     1       0.311   3.091  20.321  0.00  0.00    +0.000 OA
ATOM     16  HXT UNL     1      -0.343   2.405  20.591  0.00  0.00    +0.000 HD
ENDBRANCH  13  15
ENDBRANCH   4  13
TORSDOF 5
ENDMDL
MODEL 6
REMARK VINA RESULT:      -6.0      4.257      6.077
REMARK  Name = 
REMARK  5 active torsions:
REMARK  status: ('A' for Active; 'I' for Inactive)
REMARK    1  A    between atoms: C_2  and  O_3
REMARK    2  A    between atoms: C_2  and  C_4
REMARK    3  A    between atoms: C_5  and  C_6
REMARK    4  A    between atoms: CA_9  and  C_10
REMARK    5  A    between atoms: C_10  and  OXT_12
REMARK                            x       y       z     vdW  Elec       q    Type
REMARK                         _______ _______ _______ _____ _____    ______ ____
ROOT
ATOM      1  C   UNL     1       4.161   3.699  18.252  0.00  0.00    +0.000 A 
ATOM      2  C   UNL     1       4.041   3.731  16.857  0.00  0.00    +0.000 A 
ATOM      3  C   UNL     1       5.024   4.346  16.082  0.00  0.00    +0.000 A 
ATOM      4  CA  UNL     1       6.097   4.931  16.731  0.00  0.00    +0.000 A 
ATOM      5  N   UNL     1       6.257   4.944  18.087  0.00  0.00    +0.000 NA
ATOM      6  C   UNL     1       5.281   4.328  18.802  0.00  0.00    +0.000 A 
ENDROOT
BRANCH   1   8
ATOM      7  C   UNL     1       2.691   3.673  20.256  0.00  0.00    +0.000 C 
ATOM      8  C   UNL     1       3.146   3.092  19.133  0.00  0.00    +0.000 C 
BRANCH   7  10
ATOM      9  O   UNL     1       1.925   2.807  22.307  0.00  0.00    +0.000 OA
ATOM     10  C   UNL     1       1.656   3.143  21.165  0.00  0.00    +0.000 C 
BRANCH  10  11
ATOM     11  O   UNL     1       0.425   3.029  20.637  0.00  0.00    +0.000 OA
ATOM     12  H   UNL     1       0.367   3.178  19.679  0.00  0.00    +0.000 HD
ENDBRANCH  10  11
ENDBRANCH   7  10
ENDBRANCH   1   8
BRANCH   4  13
ATOM     13  C   UNL     1       7.171   5.610  15.948  0.00  0.00    +0.000 C 
ATOM     14  O   UNL     1       7.577   5.245  14.860  0.00  0.00    +0.000 OA
BRANCH  13  15
ATOM     15  OXT UNL     1       7.628   6.698  16.614  0.00  0.00    +0.000 OA
ATOM     16  HXT UNL     1       8.216   6.398  17.346  0.00  0.00    +0.000 HD
ENDBRANCH  13  15
ENDBRANCH   4  13
TORSDOF 5
ENDMDL
MODEL 7
REMARK VINA RESULT:      -6.0      4.350      4.867
REMARK  Name = 
REMARK  5 active torsions:
REMARK  status: ('A' for Active; 'I' for Inactive)
REMARK    1  A    between atoms: C_2  and  O_3
REMARK    2  A    between atoms: C_2  and  C_4
REMARK    3  A    between atoms: C_5  and  C_6
REMARK    4  A    between atoms: CA_9  and  C_10
REMARK    5  A    between atoms: C_10  and  OXT_12
REMARK                            x       y       z     vdW  Elec       q    Type
REMARK                         _______ _______ _______ _____ _____    ______ ____
ROOT
ATOM      1  C   UNL     1       4.179   4.116  17.551  0.00  0.00    +0.000 A 
ATOM      2  C   UNL     1       3.678   2.810  17.618  0.00  0.00    +0.000 A 
ATOM      3  C   UNL     1       2.996   2.376  18.754  0.00  0.00    +0.000 A 
ATOM      4  CA  UNL     1       2.848   3.264  19.806  0.00  0.00    +0.000 A 
ATOM      5  N   UNL     1       3.329   4.543  19.802  0.00  0.00    +0.000 NA
ATOM      6  C   UNL     1       3.980   4.925  18.674  0.00  0.00    +0.000 A 
ENDROOT
BRANCH   1   8
ATOM      7  C   UNL     1       5.853   3.913  15.725  0.00  0.00    +0.000 C 
ATOM      8  C   UNL     1       4.934   4.630  16.394  0.00  0.00    +0.000 C 
BRANCH   7  10
ATOM      9  O   UNL     1       6.420   3.865  13.440  0.00  0.00    +0.000 OA
ATOM     10  C   UNL     1       6.621   4.349  14.542  0.00  0.00    +0.000 C 
BRANCH  10  11
ATOM     11  O   UNL     1       7.565   5.277  14.775  0.00  0.00    +0.000 OA
ATOM     12  H   UNL     1       8.421   5.120  14.341  0.00  0.00    +0.000 HD
ENDBRANCH  10  11
ENDBRANCH   7  10
ENDBRANCH   1   8
BRANCH   4  13
ATOM     13  C   UNL     1       2.134   2.846  21.048  0.00  0.00    +0.000 C 
ATOM     14  O   UNL     1       0.929   2.896  21.209  0.00  0.00    +0.000 OA
BRANCH  13  15
ATOM     15  OXT UNL     1       3.016   2.394  21.972  0.00  0.00    +0.000 OA
ATOM     16  HXT UNL     1       2.549   1.772  22.578  0.00  0.00    +0.000 HD
ENDBRANCH  13  15
ENDBRANCH   4  13
TORSDOF 5
ENDMDL
MODEL 8
REMARK VINA RESULT:      -5.9      4.250      6.163
REMARK  Name = 
REMARK  5 active torsions:
REMARK  status: ('A' for Active; 'I' for Inactive)
REMARK    1  A    between atoms: C_2  and  O_3
REMARK    2  A    between atoms: C_2  and  C_4
REMARK    3  A    between atoms: C_5  and  C_6
REMARK    4  A    between atoms: CA_9  and  C_10
REMARK    5  A    between atoms: C_10  and  OXT_12
REMARK                            x       y       z     vdW  Elec       q    Type
REMARK                         _______ _______ _______ _____ _____    ______ ____
ROOT
ATOM      1  C   UNL     1       3.878   5.294  19.018  0.00  0.00    +0.000 A 
ATOM      2  C   UNL     1       5.169   4.887  19.376  0.00  0.00    +0.000 A 
ATOM      3  C   UNL     1       6.280   5.411  18.716  0.00  0.00    +0.000 A 
ATOM      4  CA  UNL     1       6.064   6.323  17.696  0.00  0.00    +0.000 A 
ATOM      5  N   UNL     1       4.828   6.743  17.295  0.00  0.00    +0.000 NA
ATOM      6  C   UNL     1       3.776   6.212  17.969  0.00  0.00    +0.000 A 
ENDROOT
BRANCH   1   8
ATOM      7  C   UNL     1       2.637   3.637  20.394  0.00  0.00    +0.000 C 
ATOM      8  C   UNL     1       2.660   4.758  19.653  0.00  0.00    +0.000 C 
BRANCH   7  10
ATOM      9  O   UNL     1       1.566   2.562  22.194  0.00  0.00    +0.000 OA
ATOM     10  C   UNL     1       1.467   3.061  21.085  0.00  0.00    +0.000 C 
BRANCH  10  11
ATOM     11  O   UNL     1       0.313   3.097  20.397  0.00  0.00    +0.000 OA
ATOM     12  H   UNL     1       0.333   2.667  19.525  0.00  0.00    +0.000 HD
ENDBRANCH  10  11
ENDBRANCH   7  10
ENDBRANCH   1   8
BRANCH   4  13
ATOM     13  C   UNL     1       7.218   6.906  16.953  0.00  0.00    +0.000 C 
ATOM     14  O   UNL     1       7.755   7.966  17.218  0.00  0.00    +0.000 OA
BRANCH  13  15
ATOM     15  OXT UNL     1       7.593   6.087  15.940  0.00  0.00    +0.000 OA
ATOM     16  HXT UNL     1       7.233   5.186  16.112  0.00  0.00    +0.000 HD
ENDBRANCH  13  15
ENDBRANCH   4  13
TORSDOF 5
ENDMDL
MODEL 9
REMARK VINA RESULT:      -5.9      4.527      5.044
REMARK  Name = 
REMARK  5 active torsions:
REMARK  status: ('A' for Active; 'I' for Inactive)
REMARK    1  A    between atoms: C_2  and  O_3
REMARK    2  A    between atoms: C_2  and  C_4
REMARK    3  A    between atoms: C_5  and  C_6
REMARK    4  A    between atoms: CA_9  and  C_10
REMARK    5  A    between atoms: C_10  and  OXT_12
REMARK                            x       y       z     vdW  Elec       q    Type
REMARK                         _______ _______ _______ _____ _____    ______ ____
ROOT
ATOM      1  C   UNL     1       4.319   3.997  17.132  0.00  0.00    +0.000 A 
ATOM      2  C   UNL     1       3.442   5.026  17.499  0.00  0.00    +0.000 A 
ATOM      3  C   UNL     1       2.285   4.739  18.223  0.00  0.00    +0.000 A 
ATOM      4  CA  UNL     1       2.029   3.417  18.547  0.00  0.00    +0.000 A 
ATOM      5  N   UNL     1       2.839   2.373  18.202  0.00  0.00    +0.000 NA
ATOM      6  C   UNL     1       3.956   2.699  17.504  0.00  0.00    +0.000 A 
ENDROOT
BRANCH   1   8
ATOM      7  C   UNL     1       5.548   4.400  15.010  0.00  0.00    +0.000 C 
ATOM      8  C   UNL     1       5.542   4.226  16.342  0.00  0.00    +0.000 C 
BRANCH   7  10
ATOM      9  O   UNL     1       6.830   4.174  13.048  0.00  0.00    +0.000 OA
ATOM     10  C   UNL     1       6.725   4.666  14.160  0.00  0.00    +0.000 C 
BRANCH  10  11
ATOM     11  O   UNL     1       7.670   5.450  14.709  0.00  0.00    +0.000 OA
ATOM     12  H   UNL     1       7.495   6.404  14.668  0.00  0.00    +0.000 HD
ENDBRANCH  10  11
ENDBRANCH   7  10
ENDBRANCH   1   8
BRANCH   4  13
ATOM     13  C   UNL     1       0.800   3.056  19.312  0.00  0.00    +0.000 C 
ATOM     14  O   UNL     1       0.069   2.118  19.056  0.00  0.00    +0.000 OA
BRANCH  13  15
ATOM     15  OXT UNL     1       0.613   3.917  20.343  0.00  0.00    +0.000 OA
ATOM     16  HXT UNL     1       0.521   4.829  19.980  0.00  0.00    +0.000 HD
ENDBRANCH  13  15
ENDBRANCH   4  13
TORSDOF 5
ENDMDL
