MODEL 1
REMARK VINA RESULT:      -7.9      0.000      0.000
REMARK  Name = 
REMARK  2 active torsions:
REMARK  status: ('A' for Active; 'I' for Inactive)
REMARK    1  A    between atoms: C_2  and  C_3
REMARK    2  A    between atoms: C_8  and  C_9
REMARK                            x       y       z     vdW  Elec       q    Type
REMARK                         _______ _______ _______ _____ _____    ______ ____
ROOT
ATOM      1  C   UNL     1       2.153   6.731  19.649  0.00  0.00    +0.000 A 
ATOM      2  C   UNL     1       1.337   5.920  20.436  0.00  0.00    +0.000 A 
ATOM      3  C   UNL     1       1.727   4.612  20.785  0.00  0.00    +0.000 A 
ATOM      4  C   UNL     1       2.925   4.044  20.358  0.00  0.00    +0.000 A 
ATOM      5  N   UNL     1       3.216   2.783  20.691  0.00  0.00    +0.000 NA
ATOM      6  C   UNL     1       4.351   2.284  20.186  0.00  0.00    +0.000 A 
ATOM      7  N   UNL     1       5.227   2.926  19.403  0.00  0.00    +0.000 NA
ATOM      8  C   UNL     1       4.953   4.208  19.106  0.00  0.00    +0.000 A 
ATOM      9  N   UNL     1       5.814   4.874  18.255  0.00  0.00    +0.000 N 
ATOM     10  C   UNL     1       6.569   4.130  17.247  0.00  0.00    +0.000 C 
ATOM     11  C   UNL     1       6.589   5.004  15.964  0.00  0.00    +0.000 C 
ATOM     12  N   UNL     1       7.130   6.371  16.167  0.00  0.00    +0.000 NA
ATOM     13  C   UNL     1       6.473   7.025  17.320  0.00  0.00    +0.000 C 
ATOM     14  C   UNL     1       6.449   6.151  18.603  0.00  0.00    +0.000 C 
ATOM     15  C   UNL     1       3.762   4.820  19.558  0.00  0.00    +0.000 A 
ATOM     16  C   UNL     1       3.338   6.129  19.207  0.00  0.00    +0.000 A 
ATOM     17  H   UNL     1       6.946   6.920  15.329  0.00  0.00    +0.000 HD
ENDROOT
BRANCH   1  23
ATOM     18  C   UNL     1       1.186   9.072  20.099  0.00  0.00    +0.000 A 
ATOM     19  C   UNL     1       1.009  10.410  19.692  0.00  0.00    +0.000 A 
ATOM     20  C   UNL     1       1.517  10.865  18.479  0.00  0.00    +0.000 A 
ATOM     21  C   UNL     1       2.190   9.981  17.650  0.00  0.00    +0.000 A 
ATOM     22  C   UNL     1       2.339   8.644  18.032  0.00  0.00    +0.000 A 
ATOM     23  C   UNL     1       1.856   8.145  19.269  0.00  0.00    +0.000 A 
BRANCH  18  25
ATOM     24  N   UNL     1       0.303   8.498  22.471  0.00  0.00    +0.000 NA
ATOM     25  C   UNL     1       0.695   8.738  21.403  0.00  0.00    +0.000 C 
ENDBRANCH  18  25
ENDBRANCH   1  23
TORSDOF 2
ENDMDL
MODEL 2
REMARK VINA RESULT:      -7.4      1.967      6.129
REMARK  Name = 
REMARK  2 active torsions:
REMARK  status: ('A' for Active; 'I' for Inactive)
REMARK    1  A    between atoms: C_2  and  C_3
REMARK    2  A    between atoms: C_8  and  C_9
REMARK                            x       y       z     vdW  Elec       q    Type
REMARK                         _______ _______ _______ _____ _____    ______ ____
ROOT
ATOM      1  C   UNL     1       4.350   6.366  17.058  0.00  0.00    +0.000 A 
ATOM      2  C   UNL     1       4.107   7.736  17.155  0.00  0.00    +0.000 A 
ATOM      3  C   UNL     1       3.241   8.256  18.137  0.00  0.00    +0.000 A 
ATOM      4  C   UNL     1       2.566   7.448  19.049  0.00  0.00    +0.000 A 
ATOM      5  N   UNL     1       1.726   8.002  19.928  0.00  0.00    +0.000 NA
ATOM      6  C   UNL     1       1.061   7.158  20.725  0.00  0.00    +0.000 A 
ATOM      7  N   UNL     1       1.168   5.823  20.742  0.00  0.00    +0.000 NA
ATOM      8  C   UNL     1       2.045   5.272  19.885  0.00  0.00    +0.000 A 
ATOM      9  N   UNL     1       2.133   3.894  19.845  0.00  0.00    +0.000 N 
ATOM     10  C   UNL     1       0.970   3.075  20.185  0.00  0.00    +0.000 C 
ATOM     11  C   UNL     1       0.959   1.876  19.199  0.00  0.00    +0.000 C 
ATOM     12  N   UNL     1       2.214   1.083  19.192  0.00  0.00    +0.000 NA
ATOM     13  C   UNL     1       3.389   1.969  19.036  0.00  0.00    +0.000 C 
ATOM     14  C   UNL     1       3.398   3.171  20.019  0.00  0.00    +0.000 C 
ATOM     15  C   UNL     1       2.772   6.072  18.975  0.00  0.00    +0.000 A 
ATOM     16  C   UNL     1       3.637   5.572  17.966  0.00  0.00    +0.000 A 
ATOM     17  H   UNL     1       2.184   0.436  18.406  0.00  0.00    +0.000 HD
ENDROOT
BRANCH   1  23
ATOM     18  C   UNL     1       6.695   5.709  16.229  0.00  0.00    +0.000 A 
ATOM     19  C   UNL     1       7.505   5.015  15.307  0.00  0.00    +0.000 A 
ATOM     20  C   UNL     1       6.944   4.296  14.256  0.00  0.00    +0.000 A 
ATOM     21  C   UNL     1       5.566   4.279  14.104  0.00  0.00    +0.000 A 
ATOM     22  C   UNL     1       4.758   4.994  14.994  0.00  0.00    +0.000 A 
ATOM     23  C   UNL     1       5.288   5.721  16.090  0.00  0.00    +0.000 A 
BRANCH  18  25
ATOM     24  N   UNL     1       7.904   6.856  18.217  0.00  0.00    +0.000 NA
ATOM     25  C   UNL     1       7.377   6.344  17.316  0.00  0.00    +0.000 C 
ENDBRANCH  18  25
ENDBRANCH   1  23
TORSDOF 2
ENDMDL
MODEL 3
REMARK VINA RESULT:      -7.3      1.712      2.283
REMARK  Name = 
REMARK  2 active torsions:
REMARK  status: ('A' for Active; 'I' for Inactive)
REMARK    1  A    between atoms: C_2  and  C_3
REMARK    2  A    between atoms: C_8  and  C_9
REMARK                            x       y       z     vdW  Elec       q    Type
REMARK                         _______ _______ _______ _____ _____    ______ ____
ROOT
ATOM      1  C   UNL     1       1.684   5.954  20.098  0.00  0.00    +0.000 A 
ATOM      2  C   UNL     1       0.852   4.941  20.572  0.00  0.00    +0.000 A 
ATOM      3  C   UNL     1       1.116   3.587  20.288  0.00  0.00    +0.000 A 
ATOM      4  C   UNL     1       2.196   3.178  19.510  0.00  0.00    +0.000 A 
ATOM      5  N   UNL     1       2.365   1.879  19.244  0.00  0.00    +0.000 NA
ATOM      6  C   UNL     1       3.385   1.569  18.433  0.00  0.00    +0.000 A 
ATOM      7  N   UNL     1       4.257   2.423  17.883  0.00  0.00    +0.000 NA
ATOM      8  C   UNL     1       4.108   3.724  18.187  0.00  0.00    +0.000 A 
ATOM      9  N   UNL     1       4.962   4.631  17.588  0.00  0.00    +0.000 N 
ATOM     10  C   UNL     1       5.532   4.342  16.272  0.00  0.00    +0.000 C 
ATOM     11  C   UNL     1       5.539   5.678  15.481  0.00  0.00    +0.000 C 
ATOM     12  N   UNL     1       6.252   6.786  16.165  0.00  0.00    +0.000 NA
ATOM     13  C   UNL     1       5.782   6.925  17.561  0.00  0.00    +0.000 C 
ATOM     14  C   UNL     1       5.771   5.589  18.352  0.00  0.00    +0.000 C 
ATOM     15  C   UNL     1       3.043   4.163  19.006  0.00  0.00    +0.000 A 
ATOM     16  C   UNL     1       2.746   5.521  19.293  0.00  0.00    +0.000 A 
ATOM     17  H   UNL     1       6.060   7.653  15.665  0.00  0.00    +0.000 HD
ENDROOT
BRANCH   1  23
ATOM     18  C   UNL     1       1.770   8.442  19.451  0.00  0.00    +0.000 A 
ATOM     19  C   UNL     1       1.524   9.791  19.780  0.00  0.00    +0.000 A 
ATOM     20  C   UNL     1       0.999  10.143  21.021  0.00  0.00    +0.000 A 
ATOM     21  C   UNL     1       0.734   9.151  21.952  0.00  0.00    +0.000 A 
ATOM     22  C   UNL     1       1.009   7.815  21.644  0.00  0.00    +0.000 A 
ATOM     23  C   UNL     1       1.522   7.411  20.385  0.00  0.00    +0.000 A 
BRANCH  18  25
ATOM     24  N   UNL     1       2.600   8.022  17.028  0.00  0.00    +0.000 NA
ATOM     25  C   UNL     1       2.231   8.192  18.118  0.00  0.00    +0.000 C 
ENDBRANCH  18  25
ENDBRANCH   1  23
TORSDOF 2
ENDMDL
MODEL 4
REMARK VINA RESULT:      -7.2      1.467      1.999
REMARK  Name = 
REMARK  2 active torsions:
REMARK  status: ('A' for Active; 'I' for Inactive)
REMARK    1  A    between atoms: C_2  and  C_3
REMARK    2  A    between atoms: C_8  and  C_9
REMARK                            x       y       z     vdW  Elec       q    Type
REMARK                         _______ _______ _______ _____ _____    ______ ____
ROOT
ATOM      1  C   UNL     1       2.207   6.539  19.872  0.00  0.00    +0.000 A 
ATOM      2  C   UNL     1       1.385   5.663  20.580  0.00  0.00    +0.000 A 
ATOM      3  C   UNL     1       1.779   4.333  20.829  0.00  0.00    +0.000 A 
ATOM      4  C   UNL     1       2.986   3.808  20.375  0.00  0.00    +0.000 A 
ATOM      5  N   UNL     1       3.280   2.526  20.609  0.00  0.00    +0.000 NA
ATOM      6  C   UNL     1       4.425   2.074  20.082  0.00  0.00    +0.000 A 
ATOM      7  N   UNL     1       5.308   2.781  19.365  0.00  0.00    +0.000 NA
ATOM      8  C   UNL     1       5.029   4.081  19.167  0.00  0.00    +0.000 A 
ATOM      9  N   UNL     1       5.897   4.817  18.383  0.00  0.00    +0.000 N 
ATOM     10  C   UNL     1       6.670   4.161  17.329  0.00  0.00    +0.000 C 
ATOM     11  C   UNL     1       6.701   5.134  16.120  0.00  0.00    +0.000 C 
ATOM     12  N   UNL     1       7.231   6.483  16.439  0.00  0.00    +0.000 NA
ATOM     13  C   UNL     1       6.555   7.040  17.632  0.00  0.00    +0.000 C 
ATOM     14  C   UNL     1       6.519   6.066  18.840  0.00  0.00    +0.000 C 
ATOM     15  C   UNL     1       3.829   4.649  19.650  0.00  0.00    +0.000 A 
ATOM     16  C   UNL     1       3.402   5.980  19.399  0.00  0.00    +0.000 A 
ATOM     17  H   UNL     1       7.055   7.097  15.645  0.00  0.00    +0.000 HD
ENDROOT
BRANCH   1  23
ATOM     18  C   UNL     1       2.255   8.655  18.411  0.00  0.00    +0.000 A 
ATOM     19  C   UNL     1       1.871   9.996  18.205  0.00  0.00    +0.000 A 
ATOM     20  C   UNL     1       1.110  10.679  19.150  0.00  0.00    +0.000 A 
ATOM     21  C   UNL     1       0.743  10.034  20.320  0.00  0.00    +0.000 A 
ATOM     22  C   UNL     1       1.151   8.716  20.547  0.00  0.00    +0.000 A 
ATOM     23  C   UNL     1       1.906   7.977  19.601  0.00  0.00    +0.000 A 
BRANCH  18  25
ATOM     24  N   UNL     1       3.552   7.549  16.455  0.00  0.00    +0.000 NA
ATOM     25  C   UNL     1       2.963   8.029  17.335  0.00  0.00    +0.000 C 
ENDBRANCH  18  25
ENDBRANCH   1  23
TORSDOF 2
ENDMDL
MODEL 5
REMARK VINA RESULT:      -7.1      2.016      4.436
REMARK  Name = 
REMARK  2 active torsions:
REMARK  status: ('A' for Active; 'I' for Inactive)
REMARK    1  A    between atoms: C_2  and  C_3
REMARK    2  A    between atoms: C_8  and  C_9
REMARK                            x       y       z     vdW  Elec       q    Type
REMARK                         _______ _______ _______ _____ _____    ______ ____
ROOT
ATOM      1  C   UNL     1       2.194   7.998  19.199  0.00  0.00    +0.000 A 
ATOM      2  C   UNL     1       2.896   8.644  18.182  0.00  0.00    +0.000 A 
ATOM      3  C   UNL     1       3.665   7.918  17.251  0.00  0.00    +0.000 A 
ATOM      4  C   UNL     1       3.789   6.531  17.296  0.00  0.00    +0.000 A 
ATOM      5  N   UNL     1       4.568   5.908  16.407  0.00  0.00    +0.000 NA
ATOM      6  C   UNL     1       4.694   4.583  16.555  0.00  0.00    +0.000 A 
ATOM      7  N   UNL     1       4.103   3.824  17.487  0.00  0.00    +0.000 NA
ATOM      8  C   UNL     1       3.287   4.449  18.353  0.00  0.00    +0.000 A 
ATOM      9  N   UNL     1       2.710   3.696  19.358  0.00  0.00    +0.000 N 
ATOM     10  C   UNL     1       3.392   2.506  19.866  0.00  0.00    +0.000 C 
ATOM     11  C   UNL     1       3.169   2.480  21.402  0.00  0.00    +0.000 C 
ATOM     12  N   UNL     1       1.743   2.520  21.810  0.00  0.00    +0.000 NA
ATOM     13  C   UNL     1       1.036   3.625  21.127  0.00  0.00    +0.000 C 
ATOM     14  C   UNL     1       1.261   3.654  19.591  0.00  0.00    +0.000 C 
ATOM     15  C   UNL     1       3.112   5.851  18.307  0.00  0.00    +0.000 A 
ATOM     16  C   UNL     1       2.358   6.607  19.241  0.00  0.00    +0.000 A 
ATOM     17  H   UNL     1       1.698   2.673  22.816  0.00  0.00    +0.000 HD
ENDROOT
BRANCH   1  23
ATOM     18  C   UNL     1       0.200   9.478  19.870  0.00  0.00    +0.000 A 
ATOM     19  C   UNL     1      -0.626  10.017  20.878  0.00  0.00    +0.000 A 
ATOM     20  C   UNL     1      -0.393   9.740  22.222  0.00  0.00    +0.000 A 
ATOM     21  C   UNL     1       0.681   8.937  22.574  0.00  0.00    +0.000 A 
ATOM     22  C   UNL     1       1.525   8.429  21.582  0.00  0.00    +0.000 A 
ATOM     23  C   UNL     1       1.311   8.668  20.200  0.00  0.00    +0.000 A 
BRANCH  18  25
ATOM     24  N   UNL     1      -0.528   9.986  17.432  0.00  0.00    +0.000 NA
ATOM     25  C   UNL     1      -0.184   9.762  18.520  0.00  0.00    +0.000 C 
ENDBRANCH  18  25
ENDBRANCH   1  23
TORSDOF 2
ENDMDL
MODEL 6
REMARK VINA RESULT:      -6.8      1.710      4.118
REMARK  Name = 
REMARK  2 active torsions:
REMARK  status: ('A' for Active; 'I' for Inactive)
REMARK    1  A    between atoms: C_2  and  C_3
REMARK    2  A    between atoms: C_8  and  C_9
REMARK                            x       y       z     vdW  Elec       q    Type
REMARK                         _______ _______ _______ _____ _____    ______ ____
ROOT
ATOM      1  C   UNL     1       2.934   7.625  17.933  0.00  0.00    +0.000 A 
ATOM      2  C   UNL     1       3.952   8.002  17.058  0.00  0.00    +0.000 A 
ATOM      3  C   UNL     1       4.790   7.042  16.458  0.00  0.00    +0.000 A 
ATOM      4  C   UNL     1       4.673   5.677  16.711  0.00  0.00    +0.000 A 
ATOM      5  N   UNL     1       5.529   4.823  16.141  0.00  0.00    +0.000 NA
ATOM      6  C   UNL     1       5.399   3.536  16.485  0.00  0.00    +0.000 A 
ATOM      7  N   UNL     1       4.490   3.021  17.323  0.00  0.00    +0.000 NA
ATOM      8  C   UNL     1       3.604   3.877  17.861  0.00  0.00    +0.000 A 
ATOM      9  N   UNL     1       2.692   3.379  18.771  0.00  0.00    +0.000 N 
ATOM     10  C   UNL     1       3.032   2.213  19.587  0.00  0.00    +0.000 C 
ATOM     11  C   UNL     1       2.451   2.469  21.003  0.00  0.00    +0.000 C 
ATOM     12  N   UNL     1       0.995   2.754  21.021  0.00  0.00    +0.000 NA
ATOM     13  C   UNL     1       0.658   3.811  20.042  0.00  0.00    +0.000 C 
ATOM     14  C   UNL     1       1.242   3.558  18.626  0.00  0.00    +0.000 C 
ATOM     15  C   UNL     1       3.676   5.263  17.592  0.00  0.00    +0.000 A 
ATOM     16  C   UNL     1       2.855   6.251  18.195  0.00  0.00    +0.000 A 
ATOM     17  H   UNL     1       0.739   3.076  21.953  0.00  0.00    +0.000 HD
ENDROOT
BRANCH   1  23
ATOM     18  C   UNL     1       1.422   8.379  19.873  0.00  0.00    +0.000 A 
ATOM     19  C   UNL     1       0.563   9.344  20.437  0.00  0.00    +0.000 A 
ATOM     20  C   UNL     1       0.247  10.513  19.751  0.00  0.00    +0.000 A 
ATOM     21  C   UNL     1       0.770  10.720  18.485  0.00  0.00    +0.000 A 
ATOM     22  C   UNL     1       1.595   9.751  17.905  0.00  0.00    +0.000 A 
ATOM     23  C   UNL     1       1.960   8.557  18.578  0.00  0.00    +0.000 A 
BRANCH  18  25
ATOM     24  N   UNL     1       2.000   6.327  21.352  0.00  0.00    +0.000 NA
ATOM     25  C   UNL     1       1.744   7.257  20.704  0.00  0.00    +0.000 C 
ENDBRANCH  18  25
ENDBRANCH   1  23
TORSDOF 2
ENDMDL
MODEL 7
REMARK VINA RESULT:      -6.7      7.003     11.247
REMARK  Name = 
REMARK  2 active torsions:
REMARK  status: ('A' for Active; 'I' for Inactive)
REMARK    1  A    between atoms: C_2  and  C_3
REMARK    2  A    between atoms: C_8  and  C_9
REMARK                            x       y       z     vdW  Elec       q    Type
REMARK                         _______ _______ _______ _____ _____    ______ ____
ROOT
ATOM      1  C   UNL     1      -2.712  12.699  21.688  0.00  0.00    +0.000 A 
ATOM      2  C   UNL     1      -2.732  13.040  23.041  0.00  0.00    +0.000 A 
ATOM      3  C   UNL     1      -3.947  13.194  23.737  0.00  0.00    +0.000 A 
ATOM      4  C   UNL     1      -5.189  13.038  23.126  0.00  0.00    +0.000 A 
ATOM      5  N   UNL     1      -6.304  13.240  23.834  0.00  0.00    +0.000 NA
ATOM      6  C   UNL     1      -7.458  13.140  23.163  0.00  0.00    +0.000 A 
ATOM      7  N   UNL     1      -7.605  12.841  21.866  0.00  0.00    +0.000 NA
ATOM      8  C   UNL     1      -6.483  12.597  21.168  0.00  0.00    +0.000 A 
ATOM      9  N   UNL     1      -6.605  12.341  19.815  0.00  0.00    +0.000 N 
ATOM     10  C   UNL     1      -7.720  12.911  19.058  0.00  0.00    +0.000 C 
ATOM     11  C   UNL     1      -7.156  13.336  17.676  0.00  0.00    +0.000 C 
ATOM     12  N   UNL     1      -6.481  12.243  16.933  0.00  0.00    +0.000 NA
ATOM     13  C   UNL     1      -5.489  11.561  17.794  0.00  0.00    +0.000 C 
ATOM     14  C   UNL     1      -6.052  11.140  19.178  0.00  0.00    +0.000 C 
ATOM     15  C   UNL     1      -5.211  12.711  21.771  0.00  0.00    +0.000 A 
ATOM     16  C   UNL     1      -3.973  12.577  21.089  0.00  0.00    +0.000 A 
ATOM     17  H   UNL     1      -5.997  12.646  16.131  0.00  0.00    +0.000 HD
ENDROOT
BRANCH   1  23
ATOM     18  C   UNL     1      -0.457  11.552  21.224  0.00  0.00    +0.000 A 
ATOM     19  C   UNL     1       0.639  11.334  20.364  0.00  0.00    +0.000 A 
ATOM     20  C   UNL     1       0.726  11.980  19.134  0.00  0.00    +0.000 A 
ATOM     21  C   UNL     1      -0.271  12.866  18.761  0.00  0.00    +0.000 A 
ATOM     22  C   UNL     1      -1.343  13.114  19.624  0.00  0.00    +0.000 A 
ATOM     23  C   UNL     1      -1.482  12.461  20.875  0.00  0.00    +0.000 A 
BRANCH  18  25
ATOM     24  N   UNL     1      -0.516  10.111  23.381  0.00  0.00    +0.000 NA
ATOM     25  C   UNL     1      -0.483  10.771  22.424  0.00  0.00    +0.000 C 
ENDBRANCH  18  25
ENDBRANCH   1  23
TORSDOF 2
ENDMDL
MODEL 8
REMARK VINA RESULT:      -6.6      8.085     10.686
REMARK  Name = 
REMARK  2 active torsions:
REMARK  status: ('A' for Active; 'I' for Inactive)
REMARK    1  A    between atoms: C_2  and  C_3
REMARK    2  A    between atoms: C_8  and  C_9
REMARK                            x       y       z     vdW  Elec       q    Type
REMARK                         _______ _______ _______ _____ _____    ______ ____
ROOT
ATOM      1  C   UNL     1      -2.009  13.105  20.356  0.00  0.00    +0.000 A 
ATOM      2  C   UNL     1      -0.906  12.864  19.537  0.00  0.00    +0.000 A 
ATOM      3  C   UNL     1      -1.043  12.186  18.309  0.00  0.00    +0.000 A 
ATOM      4  C   UNL     1      -2.265  11.703  17.848  0.00  0.00    +0.000 A 
ATOM      5  N   UNL     1      -2.319  11.032  16.694  0.00  0.00    +0.000 NA
ATOM      6  C   UNL     1      -3.515  10.539  16.350  0.00  0.00    +0.000 A 
ATOM      7  N   UNL     1      -4.659  10.667  17.035  0.00  0.00    +0.000 NA
ATOM      8  C   UNL     1      -4.609  11.379  18.174  0.00  0.00    +0.000 A 
ATOM      9  N   UNL     1      -5.765  11.479  18.926  0.00  0.00    +0.000 N 
ATOM     10  C   UNL     1      -6.764  10.411  18.880  0.00  0.00    +0.000 C 
ATOM     11  C   UNL     1      -7.302  10.237  20.326  0.00  0.00    +0.000 C 
ATOM     12  N   UNL     1      -7.845  11.481  20.927  0.00  0.00    +0.000 NA
ATOM     13  C   UNL     1      -6.880  12.593  20.784  0.00  0.00    +0.000 C 
ATOM     14  C   UNL     1      -6.337  12.766  19.339  0.00  0.00    +0.000 C 
ATOM     15  C   UNL     1      -3.389  11.913  18.646  0.00  0.00    +0.000 A 
ATOM     16  C   UNL     1      -3.222  12.584  19.885  0.00  0.00    +0.000 A 
ATOM     17  H   UNL     1      -8.012  11.316  21.918  0.00  0.00    +0.000 HD
ENDROOT
BRANCH   1  23
ATOM     18  C   UNL     1      -1.589  13.301  22.886  0.00  0.00    +0.000 A 
ATOM     19  C   UNL     1      -1.520  14.100  24.046  0.00  0.00    +0.000 A 
ATOM     20  C   UNL     1      -1.800  15.462  23.997  0.00  0.00    +0.000 A 
ATOM     21  C   UNL     1      -2.172  16.037  22.793  0.00  0.00    +0.000 A 
ATOM     22  C   UNL     1      -2.277  15.244  21.646  0.00  0.00    +0.000 A 
ATOM     23  C   UNL     1      -1.979  13.858  21.646  0.00  0.00    +0.000 A 
BRANCH  18  25
ATOM     24  N   UNL     1      -0.911  10.811  23.151  0.00  0.00    +0.000 NA
ATOM     25  C   UNL     1      -1.199  11.932  23.038  0.00  0.00    +0.000 C 
ENDBRANCH  18  25
ENDBRANCH   1  23
TORSDOF 2
ENDMDL
MODEL 9
REMARK VINA RESULT:      -6.5      6.371     11.316
REMARK  Name = 
REMARK  2 active torsions:
REMARK  status: ('A' for Active; 'I' for Inactive)
REMARK    1  A    between atoms: C_2  and  C_3
REMARK    2  A    between atoms: C_8  and  C_9
REMARK                            x       y       z     vdW  Elec       q    Type
REMARK                         _______ _______ _______ _____ _____    ______ ____
ROOT
ATOM      1  C   UNL     1      -2.299  12.467  21.398  0.00  0.00    +0.000 A 
ATOM      2  C   UNL     1      -1.918  13.152  22.552  0.00  0.00    +0.000 A 
ATOM      3  C   UNL     1      -2.865  13.833  23.342  0.00  0.00    +0.000 A 
ATOM      4  C   UNL     1      -4.219  13.883  23.019  0.00  0.00    +0.000 A 
ATOM      5  N   UNL     1      -5.058  14.582  23.790  0.00  0.00    +0.000 NA
ATOM      6  C   UNL     1      -6.331  14.641  23.378  0.00  0.00    +0.000 A 
ATOM      7  N   UNL     1      -6.846  14.057  22.289  0.00  0.00    +0.000 NA
ATOM      8  C   UNL     1      -6.008  13.321  21.539  0.00  0.00    +0.000 A 
ATOM      9  N   UNL     1      -6.504  12.754  20.380  0.00  0.00    +0.000 N 
ATOM     10  C   UNL     1      -7.608  13.395  19.665  0.00  0.00    +0.000 C 
ATOM     11  C   UNL     1      -7.308  13.247  18.149  0.00  0.00    +0.000 C 
ATOM     12  N   UNL     1      -7.095  11.847  17.704  0.00  0.00    +0.000 NA
ATOM     13  C   UNL     1      -6.108  11.169  18.573  0.00  0.00    +0.000 C 
ATOM     14  C   UNL     1      -6.404  11.319  20.089  0.00  0.00    +0.000 C 
ATOM     15  C   UNL     1      -4.637  13.221  21.865  0.00  0.00    +0.000 A 
ATOM     16  C   UNL     1      -3.660  12.557  21.078  0.00  0.00    +0.000 A 
ATOM     17  H   UNL     1      -6.738  11.861  16.750  0.00  0.00    +0.000 HD
ENDROOT
BRANCH   1  23
ATOM     18  C   UNL     1      -0.484  10.691  20.993  0.00  0.00    +0.000 A 
ATOM     19  C   UNL     1       0.294   9.935  20.092  0.00  0.00    +0.000 A 
ATOM     20  C   UNL     1       0.174  10.110  18.716  0.00  0.00    +0.000 A 
ATOM     21  C   UNL     1      -0.712  11.058  18.228  0.00  0.00    +0.000 A 
ATOM     22  C   UNL     1      -1.461  11.835  19.116  0.00  0.00    +0.000 A 
ATOM     23  C   UNL     1      -1.385  11.674  20.523  0.00  0.00    +0.000 A 
BRANCH  18  25
ATOM     24  N   UNL     1      -0.244  10.121  23.513  0.00  0.00    +0.000 NA
ATOM     25  C   UNL     1      -0.337  10.366  22.380  0.00  0.00    +0.000 C 
ENDBRANCH  18  25
ENDBRANCH   1  23
TORSDOF 2
ENDMDL
