MODEL 1
REMARK VINA RESULT:      -7.9      0.000      0.000
REMARK  Name = 
REMARK  6 active torsions:
REMARK  status: ('A' for Active; 'I' for Inactive)
REMARK    1  A    between atoms: N_1  and  C_2
REMARK    2  A    between atoms: N_5  and  C_6
REMARK    3  A    between atoms: C_15  and  C_16
REMARK    4  A    between atoms: C_16  and  O_18
REMARK    5  A    between atoms: N_20  and  C_21
REMARK    6  A    between atoms: C_21  and  C_22
REMARK                            x       y       z     vdW  Elec       q    Type
REMARK                         _______ _______ _______ _____ _____    ______ ____
ROOT
ATOM      1  C   UNL     1       2.044   7.473  19.479  0.00  0.00    +0.000 A 
ATOM      2  N   UNL     1       2.984   6.841  18.724  0.00  0.00    +0.000 NA
ATOM      3  C   UNL     1       3.312   5.549  18.986  0.00  0.00    +0.000 A 
ATOM      4  C   UNL     1       2.699   4.853  20.034  0.00  0.00    +0.000 A 
ATOM      5  C   UNL     1       1.721   5.470  20.802  0.00  0.00    +0.000 A 
ATOM      6  C   UNL     1       1.394   6.784  20.515  0.00  0.00    +0.000 A 
ATOM      7  F   UNL     1       0.466   7.378  21.282  0.00  0.00    +0.000 F 
ATOM      8  C   UNL     1       3.093   3.461  20.329  0.00  0.00    +0.000 A 
ATOM      9  O   UNL     1       2.555   2.822  21.231  0.00  0.00    +0.000 OA
ATOM     10  C   UNL     1       4.170   2.846  19.526  0.00  0.00    +0.000 A 
ATOM     11  C   UNL     1       4.675   3.594  18.533  0.00  0.00    +0.000 A 
ATOM     12  N   UNL     1       4.265   4.871  18.191  0.00  0.00    +0.000 N 
ENDROOT
BRANCH   1  16
ATOM     13  C   UNL     1       0.774  10.945  19.228  0.00  0.00    +0.000 C 
ATOM     14  C   UNL     1       1.869  10.867  18.163  0.00  0.00    +0.000 C 
ATOM     15  C   UNL     1       1.979   9.368  17.896  0.00  0.00    +0.000 C 
ATOM     16  N   UNL     1       1.800   8.798  19.219  0.00  0.00    +0.000 N 
ATOM     17  C   UNL     1       0.996   9.667  20.076  0.00  0.00    +0.000 C 
BRANCH  13  18
ATOM     18  N   UNL     1       0.822  12.194  19.991  0.00  0.00    +0.000 NA
ATOM     19  H   UNL     1       1.751  12.322  20.387  0.00  0.00    +0.000 HD
ATOM     20  H   UNL     1       0.186  12.128  20.789  0.00  0.00    +0.000 HD
ENDBRANCH  13  18
ENDBRANCH   1  16
BRANCH  10  21
ATOM     21  C   UNL     1       4.689   1.483  19.755  0.00  0.00    +0.000 C 
ATOM     22  O   UNL     1       5.357   1.175  20.724  0.00  0.00    +0.000 OA
BRANCH  21  23
ATOM     23  O   UNL     1       4.371   0.593  18.788  0.00  0.00    +0.000 OA
ATOM     24  H   UNL     1       5.027  -0.138  18.678  0.00  0.00    +0.000 HD
ENDBRANCH  21  23
ENDBRANCH  10  21
BRANCH  12  25
ATOM     25  C   UNL     1       4.896   5.661  17.114  0.00  0.00    +0.000 C 
BRANCH  25  26
ATOM     26  C   UNL     1       6.119   6.457  17.505  0.00  0.00    +0.000 A 
ATOM     27  N   UNL     1       6.467   7.620  16.985  0.00  0.00    +0.000 NA
ATOM     28  C   UNL     1       7.681   8.020  17.508  0.00  0.00    +0.000 A 
ATOM     29  C   UNL     1       8.220   7.189  18.465  0.00  0.00    +0.000 A 
ATOM     30  S   UNL     1       7.170   5.864  18.737  0.00  0.00    +0.000 S 
ENDBRANCH  25  26
ENDBRANCH  12  25
TORSDOF 6
ENDMDL
MODEL 2
REMARK VINA RESULT:      -7.8      1.496      1.812
REMARK  Name = 
REMARK  6 active torsions:
REMARK  status: ('A' for Active; 'I' for Inactive)
REMARK    1  A    between atoms: N_1  and  C_2
REMARK    2  A    between atoms: N_5  and  C_6
REMARK    3  A    between atoms: C_15  and  C_16
REMARK    4  A    between atoms: C_16  and  O_18
REMARK    5  A    between atoms: N_20  and  C_21
REMARK    6  A    between atoms: C_21  and  C_22
REMARK                            x       y       z     vdW  Elec       q    Type
REMARK                         _______ _______ _______ _____ _____    ______ ____
ROOT
ATOM      1  C   UNL     1       1.529   8.192  19.894  0.00  0.00    +0.000 A 
ATOM      2  N   UNL     1       2.483   7.651  19.087  0.00  0.00    +0.000 NA
ATOM      3  C   UNL     1       2.841   6.348  19.234  0.00  0.00    +0.000 A 
ATOM      4  C   UNL     1       2.244   5.549  20.216  0.00  0.00    +0.000 A 
ATOM      5  C   UNL     1       1.254   6.074  21.035  0.00  0.00    +0.000 A 
ATOM      6  C   UNL     1       0.897   7.400  20.864  0.00  0.00    +0.000 A 
ATOM      7  F   UNL     1      -0.044   7.902  21.680  0.00  0.00    +0.000 F 
ATOM      8  C   UNL     1       2.671   4.146  20.388  0.00  0.00    +0.000 A 
ATOM      9  O   UNL     1       2.149   3.418  21.229  0.00  0.00    +0.000 OA
ATOM     10  C   UNL     1       3.761   3.629  19.534  0.00  0.00    +0.000 A 
ATOM     11  C   UNL     1       4.247   4.473  18.612  0.00  0.00    +0.000 A 
ATOM     12  N   UNL     1       3.809   5.765  18.384  0.00  0.00    +0.000 N 
ENDROOT
BRANCH   1  16
ATOM     13  C   UNL     1       1.255  11.751  18.898  0.00  0.00    +0.000 C 
ATOM     14  C   UNL     1       0.599  11.695  20.279  0.00  0.00    +0.000 C 
ATOM     15  C   UNL     1       1.195  10.429  20.889  0.00  0.00    +0.000 C 
ATOM     16  N   UNL     1       1.255   9.529  19.752  0.00  0.00    +0.000 N 
ATOM     17  C   UNL     1       1.380  10.260  18.492  0.00  0.00    +0.000 C 
BRANCH  13  18
ATOM     18  N   UNL     1       0.501  12.576  17.952  0.00  0.00    +0.000 NA
ATOM     19  H   UNL     1       1.145  13.086  17.351  0.00  0.00    +0.000 HD
ATOM     20  H   UNL     1      -0.024  13.287  18.465  0.00  0.00    +0.000 HD
ENDBRANCH  13  18
ENDBRANCH   1  16
BRANCH  10  21
ATOM     21  C   UNL     1       4.311   2.264  19.643  0.00  0.00    +0.000 C 
ATOM     22  O   UNL     1       5.023   1.900  20.560  0.00  0.00    +0.000 OA
BRANCH  21  23
ATOM     23  O   UNL     1       3.969   1.440  18.627  0.00  0.00    +0.000 OA
ATOM     24  H   UNL     1       4.044   0.477  18.842  0.00  0.00    +0.000 HD
ENDBRANCH  21  23
ENDBRANCH  10  21
BRANCH  12  25
ATOM     25  C   UNL     1       4.420   6.661  17.381  0.00  0.00    +0.000 C 
BRANCH  25  26
ATOM     26  C   UNL     1       5.408   6.021  16.435  0.00  0.00    +0.000 A 
ATOM     27  N   UNL     1       5.119   5.557  15.232  0.00  0.00    +0.000 NA
ATOM     28  C   UNL     1       6.235   4.960  14.682  0.00  0.00    +0.000 A 
ATOM     29  C   UNL     1       7.382   5.024  15.443  0.00  0.00    +0.000 A 
ATOM     30  S   UNL     1       7.063   5.873  16.896  0.00  0.00    +0.000 S 
ENDBRANCH  25  26
ENDBRANCH  12  25
TORSDOF 6
ENDMDL
MODEL 3
REMARK VINA RESULT:      -7.7      1.348      1.665
REMARK  Name = 
REMARK  6 active torsions:
REMARK  status: ('A' for Active; 'I' for Inactive)
REMARK    1  A    between atoms: N_1  and  C_2
REMARK    2  A    between atoms: N_5  and  C_6
REMARK    3  A    between atoms: C_15  and  C_16
REMARK    4  A    between atoms: C_16  and  O_18
REMARK    5  A    between atoms: N_20  and  C_21
REMARK    6  A    between atoms: C_21  and  C_22
REMARK                            x       y       z     vdW  Elec       q    Type
REMARK                         _______ _______ _______ _____ _____    ______ ____
ROOT
ATOM      1  C   UNL     1       2.022   7.422  19.710  0.00  0.00    +0.000 A 
ATOM      2  N   UNL     1       3.138   6.890  19.139  0.00  0.00    +0.000 NA
ATOM      3  C   UNL     1       3.489   5.604  19.399  0.00  0.00    +0.000 A 
ATOM      4  C   UNL     1       2.719   4.811  20.258  0.00  0.00    +0.000 A 
ATOM      5  C   UNL     1       1.564   5.326  20.833  0.00  0.00    +0.000 A 
ATOM      6  C   UNL     1       1.219   6.635  20.549  0.00  0.00    +0.000 A 
ATOM      7  F   UNL     1       0.115   7.129  21.132  0.00  0.00    +0.000 F 
ATOM      8  C   UNL     1       3.134   3.427  20.560  0.00  0.00    +0.000 A 
ATOM      9  O   UNL     1       2.464   2.705  21.295  0.00  0.00    +0.000 OA
ATOM     10  C   UNL     1       4.392   2.923  19.971  0.00  0.00    +0.000 A 
ATOM     11  C   UNL     1       5.042   3.757  19.146  0.00  0.00    +0.000 A 
ATOM     12  N   UNL     1       4.629   5.029  18.790  0.00  0.00    +0.000 N 
ENDROOT
BRANCH   1  16
ATOM     13  C   UNL     1       0.756  10.903  19.608  0.00  0.00    +0.000 C 
ATOM     14  C   UNL     1       1.671  10.800  18.387  0.00  0.00    +0.000 C 
ATOM     15  C   UNL     1       1.726   9.296  18.127  0.00  0.00    +0.000 C 
ATOM     16  N   UNL     1       1.751   8.746  19.471  0.00  0.00    +0.000 N 
ATOM     17  C   UNL     1       1.097   9.634  20.429  0.00  0.00    +0.000 C 
BRANCH  13  18
ATOM     18  N   UNL     1       0.931  12.161  20.335  0.00  0.00    +0.000 NA
ATOM     19  H   UNL     1       1.805  12.602  20.056  0.00  0.00    +0.000 HD
ATOM     20  H   UNL     1       1.024  11.965  21.334  0.00  0.00    +0.000 HD
ENDBRANCH  13  18
ENDBRANCH   1  16
BRANCH  10  21
ATOM     21  C   UNL     1       4.941   1.578  20.236  0.00  0.00    +0.000 C 
ATOM     22  O   UNL     1       5.542   1.289  21.254  0.00  0.00    +0.000 OA
BRANCH  21  23
ATOM     23  O   UNL     1       4.733   0.683  19.245  0.00  0.00    +0.000 OA
ATOM     24  H   UNL     1       4.093   0.985  18.553  0.00  0.00    +0.000 HD
ENDBRANCH  21  23
ENDBRANCH  10  21
BRANCH  12  25
ATOM     25  C   UNL     1       5.416   5.918  17.911  0.00  0.00    +0.000 C 
BRANCH  25  26
ATOM     26  C   UNL     1       5.930   5.299  16.632  0.00  0.00    +0.000 A 
ATOM     27  N   UNL     1       7.073   5.605  16.046  0.00  0.00    +0.000 NA
ATOM     28  C   UNL     1       7.184   4.916  14.854  0.00  0.00    +0.000 A 
ATOM     29  C   UNL     1       6.153   4.048  14.569  0.00  0.00    +0.000 A 
ATOM     30  S   UNL     1       5.006   4.077  15.840  0.00  0.00    +0.000 S 
ENDBRANCH  25  26
ENDBRANCH  12  25
TORSDOF 6
ENDMDL
MODEL 4
REMARK VINA RESULT:      -7.7      1.503      1.746
REMARK  Name = 
REMARK  6 active torsions:
REMARK  status: ('A' for Active; 'I' for Inactive)
REMARK    1  A    between atoms: N_1  and  C_2
REMARK    2  A    between atoms: N_5  and  C_6
REMARK    3  A    between atoms: C_15  and  C_16
REMARK    4  A    between atoms: C_16  and  O_18
REMARK    5  A    between atoms: N_20  and  C_21
REMARK    6  A    between atoms: C_21  and  C_22
REMARK                            x       y       z     vdW  Elec       q    Type
REMARK                         _______ _______ _______ _____ _____    ______ ____
ROOT
ATOM      1  C   UNL     1       1.665   8.142  19.896  0.00  0.00    +0.000 A 
ATOM      2  N   UNL     1       2.549   7.580  19.025  0.00  0.00    +0.000 NA
ATOM      3  C   UNL     1       2.838   6.255  19.108  0.00  0.00    +0.000 A 
ATOM      4  C   UNL     1       2.242   5.453  20.088  0.00  0.00    +0.000 A 
ATOM      5  C   UNL     1       1.322   6.000  20.972  0.00  0.00    +0.000 A 
ATOM      6  C   UNL     1       1.034   7.350  20.866  0.00  0.00    +0.000 A 
ATOM      7  F   UNL     1       0.162   7.872  21.743  0.00  0.00    +0.000 F 
ATOM      8  C   UNL     1       2.595   4.023  20.190  0.00  0.00    +0.000 A 
ATOM      9  O   UNL     1       2.071   3.293  21.029  0.00  0.00    +0.000 OA
ATOM     10  C   UNL     1       3.613   3.480  19.267  0.00  0.00    +0.000 A 
ATOM     11  C   UNL     1       4.105   4.330  18.353  0.00  0.00    +0.000 A 
ATOM     12  N   UNL     1       3.731   5.652  18.192  0.00  0.00    +0.000 N 
ENDROOT
BRANCH   1  16
ATOM     13  C   UNL     1       0.707  11.697  20.317  0.00  0.00    +0.000 C 
ATOM     14  C   UNL     1       1.323  11.637  18.918  0.00  0.00    +0.000 C 
ATOM     15  C   UNL     1       1.193  10.160  18.551  0.00  0.00    +0.000 C 
ATOM     16  N   UNL     1       1.462   9.497  19.814  0.00  0.00    +0.000 N 
ATOM     17  C   UNL     1       1.110  10.343  20.953  0.00  0.00    +0.000 C 
BRANCH  13  18
ATOM     18  N   UNL     1       1.142  12.874  21.071  0.00  0.00    +0.000 NA
ATOM     19  H   UNL     1       1.156  13.689  20.461  0.00  0.00    +0.000 HD
ATOM     20  H   UNL     1       2.107  12.741  21.381  0.00  0.00    +0.000 HD
ENDBRANCH  13  18
ENDBRANCH   1  16
BRANCH  10  21
ATOM     21  C   UNL     1       4.089   2.083  19.300  0.00  0.00    +0.000 C 
ATOM     22  O   UNL     1       3.632   1.203  18.595  0.00  0.00    +0.000 OA
BRANCH  21  23
ATOM     23  O   UNL     1       5.075   1.848  20.194  0.00  0.00    +0.000 OA
ATOM     24  H   UNL     1       5.121   2.506  20.931  0.00  0.00    +0.000 HD
ENDBRANCH  21  23
ENDBRANCH  10  21
BRANCH  12  25
ATOM     25  C   UNL     1       4.346   6.551  17.194  0.00  0.00    +0.000 C 
BRANCH  25  26
ATOM     26  C   UNL     1       5.381   5.925  16.288  0.00  0.00    +0.000 A 
ATOM     27  N   UNL     1       5.144   5.442  15.082  0.00  0.00    +0.000 NA
ATOM     28  C   UNL     1       6.293   4.868  14.576  0.00  0.00    +0.000 A 
ATOM     29  C   UNL     1       7.411   4.968  15.374  0.00  0.00    +0.000 A 
ATOM     30  S   UNL     1       7.023   5.824  16.806  0.00  0.00    +0.000 S 
ENDBRANCH  25  26
ENDBRANCH  12  25
TORSDOF 6
ENDMDL
MODEL 5
REMARK VINA RESULT:      -7.5      3.117      4.794
REMARK  Name = 
REMARK  6 active torsions:
REMARK  status: ('A' for Active; 'I' for Inactive)
REMARK    1  A    between atoms: N_1  and  C_2
REMARK    2  A    between atoms: N_5  and  C_6
REMARK    3  A    between atoms: C_15  and  C_16
REMARK    4  A    between atoms: C_16  and  O_18
REMARK    5  A    between atoms: N_20  and  C_21
REMARK    6  A    between atoms: C_21  and  C_22
REMARK                            x       y       z     vdW  Elec       q    Type
REMARK                         _______ _______ _______ _____ _____    ______ ____
ROOT
ATOM      1  C   UNL     1       2.232   8.129  19.101  0.00  0.00    +0.000 A 
ATOM      2  N   UNL     1       2.856   6.963  19.426  0.00  0.00    +0.000 NA
ATOM      3  C   UNL     1       3.740   6.400  18.561  0.00  0.00    +0.000 A 
ATOM      4  C   UNL     1       4.015   7.001  17.327  0.00  0.00    +0.000 A 
ATOM      5  C   UNL     1       3.407   8.201  16.985  0.00  0.00    +0.000 A 
ATOM      6  C   UNL     1       2.517   8.764  17.883  0.00  0.00    +0.000 A 
ATOM      7  F   UNL     1       1.917   9.912  17.530  0.00  0.00    +0.000 F 
ATOM      8  C   UNL     1       4.949   6.357  16.382  0.00  0.00    +0.000 A 
ATOM      9  O   UNL     1       5.223   6.875  15.301  0.00  0.00    +0.000 OA
ATOM     10  C   UNL     1       5.544   5.056  16.752  0.00  0.00    +0.000 A 
ATOM     11  C   UNL     1       5.228   4.580  17.966  0.00  0.00    +0.000 A 
ATOM     12  N   UNL     1       4.417   5.205  18.896  0.00  0.00    +0.000 N 
ENDROOT
BRANCH   1  16
ATOM     13  C   UNL     1      -0.258   8.745  21.776  0.00  0.00    +0.000 C 
ATOM     14  C   UNL     1      -0.373   9.969  20.866  0.00  0.00    +0.000 C 
ATOM     15  C   UNL     1       0.202   9.466  19.544  0.00  0.00    +0.000 C 
ATOM     16  N   UNL     1       1.297   8.618  19.979  0.00  0.00    +0.000 N 
ATOM     17  C   UNL     1       1.053   8.063  21.309  0.00  0.00    +0.000 C 
BRANCH  13  18
ATOM     18  N   UNL     1      -0.285   9.097  23.197  0.00  0.00    +0.000 NA
ATOM     19  H   UNL     1      -1.197   8.873  23.590  0.00  0.00    +0.000 HD
ATOM     20  H   UNL     1      -0.180  10.109  23.297  0.00  0.00    +0.000 HD
ENDBRANCH  13  18
ENDBRANCH   1  16
BRANCH  10  21
ATOM     21  C   UNL     1       6.450   4.288  15.875  0.00  0.00    +0.000 C 
ATOM     22  O   UNL     1       6.060   3.579  14.966  0.00  0.00    +0.000 OA
BRANCH  21  23
ATOM     23  O   UNL     1       7.762   4.424  16.170  0.00  0.00    +0.000 OA
ATOM     24  H   UNL     1       8.357   4.429  15.380  0.00  0.00    +0.000 HD
ENDBRANCH  21  23
ENDBRANCH  10  21
BRANCH  12  25
ATOM     25  C   UNL     1       4.071   4.603  20.201  0.00  0.00    +0.000 C 
BRANCH  25  26
ATOM     26  C   UNL     1       2.779   3.821  20.247  0.00  0.00    +0.000 A 
ATOM     27  N   UNL     1       2.011   3.684  21.313  0.00  0.00    +0.000 NA
ATOM     28  C   UNL     1       0.961   2.835  21.025  0.00  0.00    +0.000 A 
ATOM     29  C   UNL     1       0.905   2.376  19.728  0.00  0.00    +0.000 A 
ATOM     30  S   UNL     1       2.200   3.038  18.824  0.00  0.00    +0.000 S 
ENDBRANCH  25  26
ENDBRANCH  12  25
TORSDOF 6
ENDMDL
MODEL 6
REMARK VINA RESULT:      -7.4      3.087      4.797
REMARK  Name = 
REMARK  6 active torsions:
REMARK  status: ('A' for Active; 'I' for Inactive)
REMARK    1  A    between atoms: N_1  and  C_2
REMARK    2  A    between atoms: N_5  and  C_6
REMARK    3  A    between atoms: C_15  and  C_16
REMARK    4  A    between atoms: C_16  and  O_18
REMARK    5  A    between atoms: N_20  and  C_21
REMARK    6  A    between atoms: C_21  and  C_22
REMARK                            x       y       z     vdW  Elec       q    Type
REMARK                         _______ _______ _______ _____ _____    ______ ____
ROOT
ATOM      1  C   UNL     1       2.270   7.957  19.166  0.00  0.00    +0.000 A 
ATOM      2  N   UNL     1       2.974   6.812  19.386  0.00  0.00    +0.000 NA
ATOM      3  C   UNL     1       3.830   6.345  18.439  0.00  0.00    +0.000 A 
ATOM      4  C   UNL     1       3.995   7.024  17.227  0.00  0.00    +0.000 A 
ATOM      5  C   UNL     1       3.304   8.206  16.990  0.00  0.00    +0.000 A 
ATOM      6  C   UNL     1       2.444   8.669  17.970  0.00  0.00    +0.000 A 
ATOM      7  F   UNL     1       1.763   9.799  17.718  0.00  0.00    +0.000 F 
ATOM      8  C   UNL     1       4.900   6.484  16.192  0.00  0.00    +0.000 A 
ATOM      9  O   UNL     1       5.077   7.073  15.128  0.00  0.00    +0.000 OA
ATOM     10  C   UNL     1       5.584   5.201  16.453  0.00  0.00    +0.000 A 
ATOM     11  C   UNL     1       5.372   4.645  17.656  0.00  0.00    +0.000 A 
ATOM     12  N   UNL     1       4.589   5.174  18.666  0.00  0.00    +0.000 N 
ENDROOT
BRANCH   1  16
ATOM     13  C   UNL     1       0.250   9.655  21.766  0.00  0.00    +0.000 C 
ATOM     14  C   UNL     1      -0.259   8.213  21.777  0.00  0.00    +0.000 C 
ATOM     15  C   UNL     1       0.899   7.438  21.154  0.00  0.00    +0.000 C 
ATOM     16  N   UNL     1       1.368   8.346  20.123  0.00  0.00    +0.000 N 
ATOM     17  C   UNL     1       1.085   9.739  20.463  0.00  0.00    +0.000 C 
BRANCH  13  18
ATOM     18  N   UNL     1      -0.836  10.634  21.854  0.00  0.00    +0.000 NA
ATOM     19  H   UNL     1      -1.225  10.633  22.795  0.00  0.00    +0.000 HD
ATOM     20  H   UNL     1      -1.600  10.350  21.237  0.00  0.00    +0.000 HD
ENDBRANCH  13  18
ENDBRANCH   1  16
BRANCH  10  21
ATOM     21  C   UNL     1       6.472   4.532  15.482  0.00  0.00    +0.000 C 
ATOM     22  O   UNL     1       6.272   3.411  15.053  0.00  0.00    +0.000 OA
BRANCH  21  23
ATOM     23  O   UNL     1       7.545   5.264  15.108  0.00  0.00    +0.000 OA
ATOM     24  H   UNL     1       7.350   6.222  14.952  0.00  0.00    +0.000 HD
ENDBRANCH  21  23
ENDBRANCH  10  21
BRANCH  12  25
ATOM     25  C   UNL     1       4.358   4.487  19.953  0.00  0.00    +0.000 C 
BRANCH  25  26
ATOM     26  C   UNL     1       3.122   3.622  20.030  0.00  0.00    +0.000 A 
ATOM     27  N   UNL     1       2.700   2.812  19.076  0.00  0.00    +0.000 NA
ATOM     28  C   UNL     1       1.496   2.245  19.444  0.00  0.00    +0.000 A 
ATOM     29  C   UNL     1       1.037   2.582  20.699  0.00  0.00    +0.000 A 
ATOM     30  S   UNL     1       2.155   3.634  21.458  0.00  0.00    +0.000 S 
ENDBRANCH  25  26
ENDBRANCH  12  25
TORSDOF 6
ENDMDL
MODEL 7
REMARK VINA RESULT:      -7.0      4.485      7.114
REMARK  Name = 
REMARK  6 active torsions:
REMARK  status: ('A' for Active; 'I' for Inactive)
REMARK    1  A    between atoms: N_1  and  C_2
REMARK    2  A    between atoms: N_5  and  C_6
REMARK    3  A    between atoms: C_15  and  C_16
REMARK    4  A    between atoms: C_16  and  O_18
REMARK    5  A    between atoms: N_20  and  C_21
REMARK    6  A    between atoms: C_21  and  C_22
REMARK                            x       y       z     vdW  Elec       q    Type
REMARK                         _______ _______ _______ _____ _____    ______ ____
ROOT
ATOM      1  C   UNL     1      -0.618  10.932  22.247  0.00  0.00    +0.000 A 
ATOM      2  N   UNL     1      -0.443  11.027  20.899  0.00  0.00    +0.000 NA
ATOM      3  C   UNL     1       0.276  10.082  20.238  0.00  0.00    +0.000 A 
ATOM      4  C   UNL     1       0.852   9.009  20.927  0.00  0.00    +0.000 A 
ATOM      5  C   UNL     1       0.667   8.881  22.298  0.00  0.00    +0.000 A 
ATOM      6  C   UNL     1      -0.076   9.847  22.952  0.00  0.00    +0.000 A 
ATOM      7  F   UNL     1      -0.225   9.726  24.281  0.00  0.00    +0.000 F 
ATOM      8  C   UNL     1       1.663   8.012  20.200  0.00  0.00    +0.000 A 
ATOM      9  O   UNL     1       2.162   7.049  20.780  0.00  0.00    +0.000 OA
ATOM     10  C   UNL     1       1.882   8.201  18.751  0.00  0.00    +0.000 A 
ATOM     11  C   UNL     1       1.268   9.251  18.187  0.00  0.00    +0.000 A 
ATOM     12  N   UNL     1       0.442  10.152  18.836  0.00  0.00    +0.000 N 
ENDROOT
BRANCH   1  16
ATOM     13  C   UNL     1      -3.067  13.301  23.703  0.00  0.00    +0.000 C 
ATOM     14  C   UNL     1      -1.722  14.017  23.843  0.00  0.00    +0.000 C 
ATOM     15  C   UNL     1      -0.859  13.331  22.787  0.00  0.00    +0.000 C 
ATOM     16  N   UNL     1      -1.293  11.948  22.875  0.00  0.00    +0.000 N 
ATOM     17  C   UNL     1      -2.672  11.845  23.349  0.00  0.00    +0.000 C 
BRANCH  13  18
ATOM     18  N   UNL     1      -3.898  13.429  24.902  0.00  0.00    +0.000 NA
ATOM     19  H   UNL     1      -3.686  14.305  25.377  0.00  0.00    +0.000 HD
ATOM     20  H   UNL     1      -3.656  12.688  25.563  0.00  0.00    +0.000 HD
ENDBRANCH  13  18
ENDBRANCH   1  16
BRANCH  10  21
ATOM     21  C   UNL     1       2.713   7.304  17.924  0.00  0.00    +0.000 C 
ATOM     22  O   UNL     1       3.653   7.691  17.253  0.00  0.00    +0.000 OA
BRANCH  21  23
ATOM     23  O   UNL     1       2.340   6.005  17.957  0.00  0.00    +0.000 OA
ATOM     24  H   UNL     1       1.788   5.761  18.741  0.00  0.00    +0.000 HD
ENDBRANCH  21  23
ENDBRANCH  10  21
BRANCH  12  25
ATOM     25  C   UNL     1      -0.168  11.317  18.164  0.00  0.00    +0.000 C 
BRANCH  25  26
ATOM     26  C   UNL     1      -1.648  11.217  17.877  0.00  0.00    +0.000 A 
ATOM     27  N   UNL     1      -2.583  11.970  18.428  0.00  0.00    +0.000 NA
ATOM     28  C   UNL     1      -3.829  11.549  18.007  0.00  0.00    +0.000 A 
ATOM     29  C   UNL     1      -3.832  10.517  17.094  0.00  0.00    +0.000 A 
ATOM     30  S   UNL     1      -2.222  10.061  16.733  0.00  0.00    +0.000 S 
ENDBRANCH  25  26
ENDBRANCH  12  25
TORSDOF 6
ENDMDL
MODEL 8
REMARK VINA RESULT:      -6.9      1.685      2.100
REMARK  Name = 
REMARK  6 active torsions:
REMARK  status: ('A' for Active; 'I' for Inactive)
REMARK    1  A    between atoms: N_1  and  C_2
REMARK    2  A    between atoms: N_5  and  C_6
REMARK    3  A    between atoms: C_15  and  C_16
REMARK    4  A    between atoms: C_16  and  O_18
REMARK    5  A    between atoms: N_20  and  C_21
REMARK    6  A    between atoms: C_21  and  C_22
REMARK                            x       y       z     vdW  Elec       q    Type
REMARK                         _______ _______ _______ _____ _____    ______ ____
ROOT
ATOM      1  C   UNL     1       1.457   9.062  19.405  0.00  0.00    +0.000 A 
ATOM      2  N   UNL     1       2.330   8.352  18.638  0.00  0.00    +0.000 NA
ATOM      3  C   UNL     1       2.641   7.071  18.968  0.00  0.00    +0.000 A 
ATOM      4  C   UNL     1       2.080   6.466  20.098  0.00  0.00    +0.000 A 
ATOM      5  C   UNL     1       1.170   7.164  20.882  0.00  0.00    +0.000 A 
ATOM      6  C   UNL     1       0.860   8.465  20.525  0.00  0.00    +0.000 A 
ATOM      7  F   UNL     1      -0.001   9.137  21.306  0.00  0.00    +0.000 F 
ATOM      8  C   UNL     1       2.457   5.087  20.464  0.00  0.00    +0.000 A 
ATOM      9  O   UNL     1       1.962   4.527  21.441  0.00  0.00    +0.000 OA
ATOM     10  C   UNL     1       3.463   4.387  19.639  0.00  0.00    +0.000 A 
ATOM     11  C   UNL     1       3.921   5.050  18.567  0.00  0.00    +0.000 A 
ATOM     12  N   UNL     1       3.523   6.312  18.163  0.00  0.00    +0.000 N 
ENDROOT
BRANCH   1  16
ATOM     13  C   UNL     1       0.148  12.349  18.304  0.00  0.00    +0.000 C 
ATOM     14  C   UNL     1       1.649  12.583  18.485  0.00  0.00    +0.000 C 
ATOM     15  C   UNL     1       2.229  11.174  18.383  0.00  0.00    +0.000 C 
ATOM     16  N   UNL     1       1.232  10.373  19.069  0.00  0.00    +0.000 N 
ATOM     17  C   UNL     1      -0.094  10.983  18.994  0.00  0.00    +0.000 C 
BRANCH  13  18
ATOM     18  N   UNL     1      -0.659  13.448  18.837  0.00  0.00    +0.000 NA
ATOM     19  H   UNL     1      -1.505  13.556  18.280  0.00  0.00    +0.000 HD
ATOM     20  H   UNL     1      -0.145  14.326  18.735  0.00  0.00    +0.000 HD
ENDBRANCH  13  18
ENDBRANCH   1  16
BRANCH  10  21
ATOM     21  C   UNL     1       3.960   3.027  19.929  0.00  0.00    +0.000 C 
ATOM     22  O   UNL     1       3.262   2.143  20.389  0.00  0.00    +0.000 OA
BRANCH  21  23
ATOM     23  O   UNL     1       5.270   2.840  19.654  0.00  0.00    +0.000 OA
ATOM     24  H   UNL     1       5.510   1.905  19.435  0.00  0.00    +0.000 HD
ENDBRANCH  21  23
ENDBRANCH  10  21
BRANCH  12  25
ATOM     25  C   UNL     1       4.102   7.008  16.996  0.00  0.00    +0.000 C 
BRANCH  25  26
ATOM     26  C   UNL     1       5.234   6.295  16.294  0.00  0.00    +0.000 A 
ATOM     27  N   UNL     1       5.136   5.667  15.137  0.00  0.00    +0.000 NA
ATOM     28  C   UNL     1       6.336   5.054  14.835  0.00  0.00    +0.000 A 
ATOM     29  C   UNL     1       7.356   5.267  15.736  0.00  0.00    +0.000 A 
ATOM     30  S   UNL     1       6.807   6.282  17.001  0.00  0.00    +0.000 S 
ENDBRANCH  25  26
ENDBRANCH  12  25
TORSDOF 6
ENDMDL
MODEL 9
REMARK VINA RESULT:      -6.9      5.192      7.775
REMARK  Name = 
REMARK  6 active torsions:
REMARK  status: ('A' for Active; 'I' for Inactive)
REMARK    1  A    between atoms: N_1  and  C_2
REMARK    2  A    between atoms: N_5  and  C_6
REMARK    3  A    between atoms: C_15  and  C_16
REMARK    4  A    between atoms: C_16  and  O_18
REMARK    5  A    between atoms: N_20  and  C_21
REMARK    6  A    between atoms: C_21  and  C_22
REMARK                            x       y       z     vdW  Elec       q    Type
REMARK                         _______ _______ _______ _____ _____    ______ ____
ROOT
ATOM      1  C   UNL     1      -1.282  11.430  22.188  0.00  0.00    +0.000 A 
ATOM      2  N   UNL     1      -1.141  11.539  20.837  0.00  0.00    +0.000 NA
ATOM      3  C   UNL     1      -0.353  10.662  20.162  0.00  0.00    +0.000 A 
ATOM      4  C   UNL     1       0.329   9.644  20.840  0.00  0.00    +0.000 A 
ATOM      5  C   UNL     1       0.182   9.502  22.213  0.00  0.00    +0.000 A 
ATOM      6  C   UNL     1      -0.631  10.399  22.882  0.00  0.00    +0.000 A 
ATOM      7  F   UNL     1      -0.744  10.266  24.213  0.00  0.00    +0.000 F 
ATOM      8  C   UNL     1       1.211   8.723  20.097  0.00  0.00    +0.000 A 
ATOM      9  O   UNL     1       1.805   7.809  20.666  0.00  0.00    +0.000 OA
ATOM     10  C   UNL     1       1.385   8.929  18.644  0.00  0.00    +0.000 A 
ATOM     11  C   UNL     1       0.669   9.919  18.092  0.00  0.00    +0.000 A 
ATOM     12  N   UNL     1      -0.221  10.744  18.757  0.00  0.00    +0.000 N 
ENDROOT
BRANCH   1  16
ATOM     13  C   UNL     1      -3.831  13.841  23.382  0.00  0.00    +0.000 C 
ATOM     14  C   UNL     1      -2.574  14.197  24.178  0.00  0.00    +0.000 C 
ATOM     15  C   UNL     1      -1.451  13.620  23.319  0.00  0.00    +0.000 C 
ATOM     16  N   UNL     1      -2.032  12.383  22.830  0.00  0.00    +0.000 N 
ATOM     17  C   UNL     1      -3.489  12.464  22.756  0.00  0.00    +0.000 C 
BRANCH  13  18
ATOM     18  N   UNL     1      -5.039  13.848  24.208  0.00  0.00    +0.000 NA
ATOM     19  H   UNL     1      -5.790  13.359  23.725  0.00  0.00    +0.000 HD
ATOM     20  H   UNL     1      -5.364  14.810  24.325  0.00  0.00    +0.000 HD
ENDBRANCH  13  18
ENDBRANCH   1  16
BRANCH  10  21
ATOM     21  C   UNL     1       2.277   8.109  17.800  0.00  0.00    +0.000 C 
ATOM     22  O   UNL     1       2.970   8.570  16.912  0.00  0.00    +0.000 OA
BRANCH  21  23
ATOM     23  O   UNL     1       2.257   6.787  18.083  0.00  0.00    +0.000 OA
ATOM     24  H   UNL     1       1.416   6.330  17.832  0.00  0.00    +0.000 HD
ENDBRANCH  21  23
ENDBRANCH  10  21
BRANCH  12  25
ATOM     25  C   UNL     1      -0.946  11.850  18.098  0.00  0.00    +0.000 C 
BRANCH  25  26
ATOM     26  C   UNL     1      -2.246  11.481  17.423  0.00  0.00    +0.000 A 
ATOM     27  N   UNL     1      -2.361  11.032  16.187  0.00  0.00    +0.000 NA
ATOM     28  C   UNL     1      -3.696  10.882  15.867  0.00  0.00    +0.000 A 
ATOM     29  C   UNL     1      -4.586  11.162  16.880  0.00  0.00    +0.000 A 
ATOM     30  S   UNL     1      -3.730  11.617  18.292  0.00  0.00    +0.000 S 
ENDBRANCH  25  26
ENDBRANCH  12  25
TORSDOF 6
ENDMDL
