MODEL 1
REMARK VINA RESULT:      -7.4      0.000      0.000
REMARK  Name = 
REMARK  4 active torsions:
REMARK  status: ('A' for Active; 'I' for Inactive)
REMARK    1  A    between atoms: O_1  and  C_2
REMARK    2  A    between atoms: C_4  and  C_5
REMARK    3  A    between atoms: C_8  and  C_9
REMARK    4  A    between atoms: C_9  and  C_10
REMARK                            x       y       z     vdW  Elec       q    Type
REMARK                         _______ _______ _______ _____ _____    ______ ____
ROOT
ATOM      1  C   UNL     1       6.528   5.297  18.789  0.00  0.00    +0.000 A 
ATOM      2  C   UNL     1       7.204   5.044  17.620  0.00  0.00    +0.000 A 
ATOM      3  C   UNL     1       6.421   4.961  16.484  0.00  0.00    +0.000 A 
ATOM      4  N   UNL     1       5.079   5.100  16.530  0.00  0.00    +0.000 NA
ATOM      5  C   UNL     1       4.512   5.331  17.731  0.00  0.00    +0.000 A 
ATOM      6  N   UNL     1       5.202   5.440  18.878  0.00  0.00    +0.000 NA
ENDROOT
BRANCH   1   7
ATOM      7  O   UNL     1       7.188   5.388  19.978  0.00  0.00    +0.000 OA
ATOM      8  H   UNL     1       7.979   4.832  19.941  0.00  0.00    +0.000 HD
ENDBRANCH   1   7
BRANCH   3   9
ATOM      9  C   UNL     1       7.017   4.617  15.143  0.00  0.00    +0.000 C 
ATOM     10 CL   UNL     1       5.791   4.064  13.983  0.00  0.00    +0.000 Cl
ENDBRANCH   3   9
BRANCH   5  11
ATOM     11  C   UNL     1       3.003   5.386  17.800  0.00  0.00    +0.000 C 
BRANCH  11  12
ATOM     12  C   UNL     1       2.394   4.475  18.847  0.00  0.00    +0.000 A 
ATOM     13  C   UNL     1       1.930   4.980  20.077  0.00  0.00    +0.000 A 
ATOM     14 CL   UNL     1       1.937   6.669  20.449  0.00  0.00    +0.000 Cl
ATOM     15  C   UNL     1       1.408   4.129  21.061  0.00  0.00    +0.000 A 
ATOM     16  C   UNL     1       1.335   2.757  20.837  0.00  0.00    +0.000 A 
ATOM     17  C   UNL     1       1.773   2.238  19.625  0.00  0.00    +0.000 A 
ATOM     18  C   UNL     1       2.298   3.085  18.638  0.00  0.00    +0.000 A 
ATOM     19 CL   UNL     1       2.785   2.334  17.159  0.00  0.00    +0.000 Cl
ENDBRANCH  11  12
ENDBRANCH   5  11
TORSDOF 4
ENDMDL
MODEL 2
REMARK VINA RESULT:      -7.4      0.133      2.159
REMARK  Name = 
REMARK  4 active torsions:
REMARK  status: ('A' for Active; 'I' for Inactive)
REMARK    1  A    between atoms: O_1  and  C_2
REMARK    2  A    between atoms: C_4  and  C_5
REMARK    3  A    between atoms: C_8  and  C_9
REMARK    4  A    between atoms: C_9  and  C_10
REMARK                            x       y       z     vdW  Elec       q    Type
REMARK                         _______ _______ _______ _____ _____    ______ ____
ROOT
ATOM      1  C   UNL     1       6.599   5.301  18.791  0.00  0.00    +0.000 A 
ATOM      2  C   UNL     1       7.282   5.049  17.626  0.00  0.00    +0.000 A 
ATOM      3  C   UNL     1       6.503   4.934  16.490  0.00  0.00    +0.000 A 
ATOM      4  N   UNL     1       5.158   5.045  16.533  0.00  0.00    +0.000 NA
ATOM      5  C   UNL     1       4.584   5.278  17.730  0.00  0.00    +0.000 A 
ATOM      6  N   UNL     1       5.269   5.417  18.876  0.00  0.00    +0.000 NA
ENDROOT
BRANCH   1   7
ATOM      7  O   UNL     1       7.254   5.422  19.980  0.00  0.00    +0.000 OA
ATOM      8  H   UNL     1       7.262   6.354  20.240  0.00  0.00    +0.000 HD
ENDBRANCH   1   7
BRANCH   3   9
ATOM      9  C   UNL     1       7.109   4.587  15.155  0.00  0.00    +0.000 C 
ATOM     10 CL   UNL     1       5.898   3.991  14.000  0.00  0.00    +0.000 Cl
ENDBRANCH   3   9
BRANCH   5  11
ATOM     11  C   UNL     1       3.074   5.300  17.795  0.00  0.00    +0.000 C 
BRANCH  11  12
ATOM     12  C   UNL     1       2.484   4.411  18.870  0.00  0.00    +0.000 A 
ATOM     13  C   UNL     1       2.435   3.011  18.719  0.00  0.00    +0.000 A 
ATOM     14 CL   UNL     1       3.114   2.201  17.350  0.00  0.00    +0.000 Cl
ATOM     15  C   UNL     1       1.848   2.195  19.696  0.00  0.00    +0.000 A 
ATOM     16  C   UNL     1       1.302   2.757  20.846  0.00  0.00    +0.000 A 
ATOM     17  C   UNL     1       1.353   4.134  21.024  0.00  0.00    +0.000 A 
ATOM     18  C   UNL     1       1.937   4.956  20.049  0.00  0.00    +0.000 A 
ATOM     19 CL   UNL     1       1.971   6.650  20.389  0.00  0.00    +0.000 Cl
ENDBRANCH  11  12
ENDBRANCH   5  11
TORSDOF 4
ENDMDL
MODEL 3
REMARK VINA RESULT:      -7.3      1.530      2.043
REMARK  Name = 
REMARK  4 active torsions:
REMARK  status: ('A' for Active; 'I' for Inactive)
REMARK    1  A    between atoms: O_1  and  C_2
REMARK    2  A    between atoms: C_4  and  C_5
REMARK    3  A    between atoms: C_8  and  C_9
REMARK    4  A    between atoms: C_9  and  C_10
REMARK                            x       y       z     vdW  Elec       q    Type
REMARK                         _______ _______ _______ _____ _____    ______ ____
ROOT
ATOM      1  C   UNL     1       6.644   5.039  18.699  0.00  0.00    +0.000 A 
ATOM      2  C   UNL     1       7.184   5.334  17.471  0.00  0.00    +0.000 A 
ATOM      3  C   UNL     1       6.549   4.760  16.386  0.00  0.00    +0.000 A 
ATOM      4  N   UNL     1       5.481   3.948  16.532  0.00  0.00    +0.000 NA
ATOM      5  C   UNL     1       5.038   3.710  17.783  0.00  0.00    +0.000 A 
ATOM      6  N   UNL     1       5.589   4.239  18.887  0.00  0.00    +0.000 NA
ENDROOT
BRANCH   1   7
ATOM      7  O   UNL     1       7.189   5.534  19.846  0.00  0.00    +0.000 OA
ATOM      8  H   UNL     1       7.608   6.385  19.652  0.00  0.00    +0.000 HD
ENDBRANCH   1   7
BRANCH   3   9
ATOM      9  C   UNL     1       7.074   4.937  14.985  0.00  0.00    +0.000 C 
ATOM     10 CL   UNL     1       6.122   4.033  13.789  0.00  0.00    +0.000 Cl
ENDBRANCH   3   9
BRANCH   5  11
ATOM     11  C   UNL     1       3.908   2.721  17.954  0.00  0.00    +0.000 C 
BRANCH  11  12
ATOM     12  C   UNL     1       3.023   2.989  19.155  0.00  0.00    +0.000 A 
ATOM     13  C   UNL     1       3.341   2.480  20.429  0.00  0.00    +0.000 A 
ATOM     14 CL   UNL     1       4.795   1.595  20.738  0.00  0.00    +0.000 Cl
ATOM     15  C   UNL     1       2.497   2.693  21.528  0.00  0.00    +0.000 A 
ATOM     16  C   UNL     1       1.320   3.419  21.380  0.00  0.00    +0.000 A 
ATOM     17  C   UNL     1       0.992   3.944  20.136  0.00  0.00    +0.000 A 
ATOM     18  C   UNL     1       1.833   3.733  19.033  0.00  0.00    +0.000 A 
ATOM     19 CL   UNL     1       1.341   4.457  17.541  0.00  0.00    +0.000 Cl
ENDBRANCH  11  12
ENDBRANCH   5  11
TORSDOF 4
ENDMDL
MODEL 4
REMARK VINA RESULT:      -7.3      2.131      3.286
REMARK  Name = 
REMARK  4 active torsions:
REMARK  status: ('A' for Active; 'I' for Inactive)
REMARK    1  A    between atoms: O_1  and  C_2
REMARK    2  A    between atoms: C_4  and  C_5
REMARK    3  A    between atoms: C_8  and  C_9
REMARK    4  A    between atoms: C_9  and  C_10
REMARK                            x       y       z     vdW  Elec       q    Type
REMARK                         _______ _______ _______ _____ _____    ______ ____
ROOT
ATOM      1  C   UNL     1       6.141   4.118  15.666  0.00  0.00    +0.000 A 
ATOM      2  C   UNL     1       7.115   4.747  16.402  0.00  0.00    +0.000 A 
ATOM      3  C   UNL     1       6.686   5.349  17.570  0.00  0.00    +0.000 A 
ATOM      4  N   UNL     1       5.390   5.330  17.947  0.00  0.00    +0.000 NA
ATOM      5  C   UNL     1       4.510   4.697  17.145  0.00  0.00    +0.000 A 
ATOM      6  N   UNL     1       4.848   4.077  16.004  0.00  0.00    +0.000 NA
ENDROOT
BRANCH   1   7
ATOM      7  O   UNL     1       6.437   3.500  14.488  0.00  0.00    +0.000 OA
ATOM      8  H   UNL     1       7.384   3.297  14.469  0.00  0.00    +0.000 HD
ENDBRANCH   1   7
BRANCH   3   9
ATOM      9  C   UNL     1       7.630   6.137  18.440  0.00  0.00    +0.000 C 
ATOM     10 CL   UNL     1       7.897   7.782  17.827  0.00  0.00    +0.000 Cl
ENDBRANCH   3   9
BRANCH   5  11
ATOM     11  C   UNL     1       3.046   4.764  17.514  0.00  0.00    +0.000 C 
BRANCH  11  12
ATOM     12  C   UNL     1       2.735   4.289  18.919  0.00  0.00    +0.000 A 
ATOM     13  C   UNL     1       2.746   2.920  19.250  0.00  0.00    +0.000 A 
ATOM     14 CL   UNL     1       3.196   1.695  18.115  0.00  0.00    +0.000 Cl
ATOM     15  C   UNL     1       2.415   2.482  20.540  0.00  0.00    +0.000 A 
ATOM     16  C   UNL     1       2.069   3.400  21.527  0.00  0.00    +0.000 A 
ATOM     17  C   UNL     1       2.066   4.757  21.228  0.00  0.00    +0.000 A 
ATOM     18  C   UNL     1       2.395   5.201  19.939  0.00  0.00    +0.000 A 
ATOM     19 CL   UNL     1       2.386   6.911  19.688  0.00  0.00    +0.000 Cl
ENDBRANCH  11  12
ENDBRANCH   5  11
TORSDOF 4
ENDMDL
MODEL 5
REMARK VINA RESULT:      -7.3      2.096      2.501
REMARK  Name = 
REMARK  4 active torsions:
REMARK  status: ('A' for Active; 'I' for Inactive)
REMARK    1  A    between atoms: O_1  and  C_2
REMARK    2  A    between atoms: C_4  and  C_5
REMARK    3  A    between atoms: C_8  and  C_9
REMARK    4  A    between atoms: C_9  and  C_10
REMARK                            x       y       z     vdW  Elec       q    Type
REMARK                         _______ _______ _______ _____ _____    ______ ____
ROOT
ATOM      1  C   UNL     1       6.133   4.096  15.774  0.00  0.00    +0.000 A 
ATOM      2  C   UNL     1       7.112   4.721  16.507  0.00  0.00    +0.000 A 
ATOM      3  C   UNL     1       6.679   5.376  17.645  0.00  0.00    +0.000 A 
ATOM      4  N   UNL     1       5.375   5.412  17.995  0.00  0.00    +0.000 NA
ATOM      5  C   UNL     1       4.492   4.778  17.197  0.00  0.00    +0.000 A 
ATOM      6  N   UNL     1       4.833   4.108  16.085  0.00  0.00    +0.000 NA
ENDROOT
BRANCH   1   7
ATOM      7  O   UNL     1       6.433   3.427  14.625  0.00  0.00    +0.000 OA
ATOM      8  H   UNL     1       5.633   2.991  14.298  0.00  0.00    +0.000 HD
ENDBRANCH   1   7
BRANCH   3   9
ATOM      9  C   UNL     1       7.630   6.165  18.506  0.00  0.00    +0.000 C 
ATOM     10 CL   UNL     1       7.917   7.799  17.871  0.00  0.00    +0.000 Cl
ENDBRANCH   3   9
BRANCH   5  11
ATOM     11  C   UNL     1       3.024   4.904  17.532  0.00  0.00    +0.000 C 
BRANCH  11  12
ATOM     12  C   UNL     1       2.648   4.366  18.899  0.00  0.00    +0.000 A 
ATOM     13  C   UNL     1       2.377   5.231  19.977  0.00  0.00    +0.000 A 
ATOM     14 CL   UNL     1       2.365   6.952  19.807  0.00  0.00    +0.000 Cl
ATOM     15  C   UNL     1       2.074   4.729  21.251  0.00  0.00    +0.000 A 
ATOM     16  C   UNL     1       2.032   3.357  21.474  0.00  0.00    +0.000 A 
ATOM     17  C   UNL     1       2.281   2.485  20.422  0.00  0.00    +0.000 A 
ATOM     18  C   UNL     1       2.587   2.981  19.146  0.00  0.00    +0.000 A 
ATOM     19 CL   UNL     1       2.849   1.805  17.906  0.00  0.00    +0.000 Cl
ENDBRANCH  11  12
ENDBRANCH   5  11
TORSDOF 4
ENDMDL
MODEL 6
REMARK VINA RESULT:      -7.2      1.222      2.319
REMARK  Name = 
REMARK  4 active torsions:
REMARK  status: ('A' for Active; 'I' for Inactive)
REMARK    1  A    between atoms: O_1  and  C_2
REMARK    2  A    between atoms: C_4  and  C_5
REMARK    3  A    between atoms: C_8  and  C_9
REMARK    4  A    between atoms: C_9  and  C_10
REMARK                            x       y       z     vdW  Elec       q    Type
REMARK                         _______ _______ _______ _____ _____    ______ ____
ROOT
ATOM      1  C   UNL     1       6.859   4.670  17.775  0.00  0.00    +0.000 A 
ATOM      2  C   UNL     1       7.393   4.780  16.515  0.00  0.00    +0.000 A 
ATOM      3  C   UNL     1       6.492   4.672  15.473  0.00  0.00    +0.000 A 
ATOM      4  N   UNL     1       5.177   4.453  15.687  0.00  0.00    +0.000 NA
ATOM      5  C   UNL     1       4.757   4.346  16.963  0.00  0.00    +0.000 A 
ATOM      6  N   UNL     1       5.564   4.453  18.030  0.00  0.00    +0.000 NA
ENDROOT
BRANCH   1   7
ATOM      7  O   UNL     1       7.648   4.746  18.884  0.00  0.00    +0.000 OA
ATOM      8  H   UNL     1       7.486   3.969  19.438  0.00  0.00    +0.000 HD
ENDBRANCH   1   7
BRANCH   3   9
ATOM      9  C   UNL     1       6.945   4.700  14.036  0.00  0.00    +0.000 C 
ATOM     10 CL   UNL     1       5.997   3.605  13.008  0.00  0.00    +0.000 Cl
ENDBRANCH   3   9
BRANCH   5  11
ATOM     11  C   UNL     1       3.304   4.000  17.200  0.00  0.00    +0.000 C 
BRANCH  11  12
ATOM     12  C   UNL     1       2.905   3.958  18.661  0.00  0.00    +0.000 A 
ATOM     13  C   UNL     1       2.946   2.758  19.399  0.00  0.00    +0.000 A 
ATOM     14 CL   UNL     1       3.533   1.276  18.727  0.00  0.00    +0.000 Cl
ATOM     15  C   UNL     1       2.534   2.715  20.738  0.00  0.00    +0.000 A 
ATOM     16  C   UNL     1       2.075   3.866  21.370  0.00  0.00    +0.000 A 
ATOM     17  C   UNL     1       2.039   5.064  20.667  0.00  0.00    +0.000 A 
ATOM     18  C   UNL     1       2.449   5.113  19.327  0.00  0.00    +0.000 A 
ATOM     19 CL   UNL     1       2.391   6.662  18.560  0.00  0.00    +0.000 Cl
ENDBRANCH  11  12
ENDBRANCH   5  11
TORSDOF 4
ENDMDL
MODEL 7
REMARK VINA RESULT:      -7.2      2.553      3.196
REMARK  Name = 
REMARK  4 active torsions:
REMARK  status: ('A' for Active; 'I' for Inactive)
REMARK    1  A    between atoms: O_1  and  C_2
REMARK    2  A    between atoms: C_4  and  C_5
REMARK    3  A    between atoms: C_8  and  C_9
REMARK    4  A    between atoms: C_9  and  C_10
REMARK                            x       y       z     vdW  Elec       q    Type
REMARK                         _______ _______ _______ _____ _____    ______ ____
ROOT
ATOM      1  C   UNL     1       5.411   5.864  16.270  0.00  0.00    +0.000 A 
ATOM      2  C   UNL     1       6.413   6.259  17.121  0.00  0.00    +0.000 A 
ATOM      3  C   UNL     1       6.622   5.444  18.218  0.00  0.00    +0.000 A 
ATOM      4  N   UNL     1       5.872   4.343  18.441  0.00  0.00    +0.000 NA
ATOM      5  C   UNL     1       4.902   4.052  17.551  0.00  0.00    +0.000 A 
ATOM      6  N   UNL     1       4.646   4.783  16.455  0.00  0.00    +0.000 NA
ENDROOT
BRANCH   1   7
ATOM      7  O   UNL     1       5.100   6.593  15.160  0.00  0.00    +0.000 OA
ATOM      8  H   UNL     1       5.741   6.390  14.463  0.00  0.00    +0.000 HD
ENDBRANCH   1   7
BRANCH   3   9
ATOM      9  C   UNL     1       7.639   5.792  19.273  0.00  0.00    +0.000 C 
ATOM     10 CL   UNL     1       8.479   7.317  18.923  0.00  0.00    +0.000 Cl
ENDBRANCH   3   9
BRANCH   5  11
ATOM     11  C   UNL     1       3.997   2.880  17.854  0.00  0.00    +0.000 C 
BRANCH  11  12
ATOM     12  C   UNL     1       3.107   3.078  19.065  0.00  0.00    +0.000 A 
ATOM     13  C   UNL     1       3.456   2.554  20.325  0.00  0.00    +0.000 A 
ATOM     14 CL   UNL     1       4.952   1.732  20.606  0.00  0.00    +0.000 Cl
ATOM     15  C   UNL     1       2.610   2.701  21.433  0.00  0.00    +0.000 A 
ATOM     16  C   UNL     1       1.399   3.375  21.308  0.00  0.00    +0.000 A 
ATOM     17  C   UNL     1       1.039   3.912  20.078  0.00  0.00    +0.000 A 
ATOM     18  C   UNL     1       1.882   3.767  18.966  0.00  0.00    +0.000 A 
ATOM     19 CL   UNL     1       1.348   4.501  17.494  0.00  0.00    +0.000 Cl
ENDBRANCH  11  12
ENDBRANCH   5  11
TORSDOF 4
ENDMDL
MODEL 8
REMARK VINA RESULT:      -7.2      2.557      3.080
REMARK  Name = 
REMARK  4 active torsions:
REMARK  status: ('A' for Active; 'I' for Inactive)
REMARK    1  A    between atoms: O_1  and  C_2
REMARK    2  A    between atoms: C_4  and  C_5
REMARK    3  A    between atoms: C_8  and  C_9
REMARK    4  A    between atoms: C_9  and  C_10
REMARK                            x       y       z     vdW  Elec       q    Type
REMARK                         _______ _______ _______ _____ _____    ______ ____
ROOT
ATOM      1  C   UNL     1       5.381   5.970  16.322  0.00  0.00    +0.000 A 
ATOM      2  C   UNL     1       6.406   6.339  17.158  0.00  0.00    +0.000 A 
ATOM      3  C   UNL     1       6.651   5.484  18.216  0.00  0.00    +0.000 A 
ATOM      4  N   UNL     1       5.913   4.371  18.419  0.00  0.00    +0.000 NA
ATOM      5  C   UNL     1       4.920   4.107  17.547  0.00  0.00    +0.000 A 
ATOM      6  N   UNL     1       4.627   4.878  16.488  0.00  0.00    +0.000 NA
ENDROOT
BRANCH   1   7
ATOM      7  O   UNL     1       5.035   6.738  15.250  0.00  0.00    +0.000 OA
ATOM      8  H   UNL     1       5.835   7.137  14.879  0.00  0.00    +0.000 HD
ENDBRANCH   1   7
BRANCH   3   9
ATOM      9  C   UNL     1       7.696   5.798  19.254  0.00  0.00    +0.000 C 
ATOM     10 CL   UNL     1       8.511   7.346  18.943  0.00  0.00    +0.000 Cl
ENDBRANCH   3   9
BRANCH   5  11
ATOM     11  C   UNL     1       4.030   2.919  17.832  0.00  0.00    +0.000 C 
BRANCH  11  12
ATOM     12  C   UNL     1       3.125   3.092  19.035  0.00  0.00    +0.000 A 
ATOM     13  C   UNL     1       1.908   3.795  18.942  0.00  0.00    +0.000 A 
ATOM     14 CL   UNL     1       1.315   4.431  17.447  0.00  0.00    +0.000 Cl
ATOM     15  C   UNL     1       1.095   3.991  20.068  0.00  0.00    +0.000 A 
ATOM     16  C   UNL     1       1.478   3.489  21.307  0.00  0.00    +0.000 A 
ATOM     17  C   UNL     1       2.667   2.779  21.420  0.00  0.00    +0.000 A 
ATOM     18  C   UNL     1       3.485   2.581  20.298  0.00  0.00    +0.000 A 
ATOM     19 CL   UNL     1       4.926   1.659  20.549  0.00  0.00    +0.000 Cl
ENDBRANCH  11  12
ENDBRANCH   5  11
TORSDOF 4
ENDMDL
MODEL 9
REMARK VINA RESULT:      -7.2      1.234      1.335
REMARK  Name = 
REMARK  4 active torsions:
REMARK  status: ('A' for Active; 'I' for Inactive)
REMARK    1  A    between atoms: O_1  and  C_2
REMARK    2  A    between atoms: C_4  and  C_5
REMARK    3  A    between atoms: C_8  and  C_9
REMARK    4  A    between atoms: C_9  and  C_10
REMARK                            x       y       z     vdW  Elec       q    Type
REMARK                         _______ _______ _______ _____ _____    ______ ____
ROOT
ATOM      1  C   UNL     1       6.847   4.619  17.756  0.00  0.00    +0.000 A 
ATOM      2  C   UNL     1       7.400   4.706  16.502  0.00  0.00    +0.000 A 
ATOM      3  C   UNL     1       6.509   4.612  15.449  0.00  0.00    +0.000 A 
ATOM      4  N   UNL     1       5.187   4.426  15.648  0.00  0.00    +0.000 NA
ATOM      5  C   UNL     1       4.748   4.338  16.920  0.00  0.00    +0.000 A 
ATOM      6  N   UNL     1       5.545   4.434  17.996  0.00  0.00    +0.000 NA
ENDROOT
BRANCH   1   7
ATOM      7  O   UNL     1       7.624   4.684  18.874  0.00  0.00    +0.000 OA
ATOM      8  H   UNL     1       7.251   5.345  19.476  0.00  0.00    +0.000 HD
ENDBRANCH   1   7
BRANCH   3   9
ATOM      9  C   UNL     1       6.981   4.619  14.018  0.00  0.00    +0.000 C 
ATOM     10 CL   UNL     1       5.964   3.610  12.968  0.00  0.00    +0.000 Cl
ENDBRANCH   3   9
BRANCH   5  11
ATOM     11  C   UNL     1       3.285   4.027  17.141  0.00  0.00    +0.000 C 
BRANCH  11  12
ATOM     12  C   UNL     1       2.872   3.984  18.598  0.00  0.00    +0.000 A 
ATOM     13  C   UNL     1       2.427   5.140  19.269  0.00  0.00    +0.000 A 
ATOM     14 CL   UNL     1       2.237   6.662  18.470  0.00  0.00    +0.000 Cl
ATOM     15  C   UNL     1       2.088   5.104  20.629  0.00  0.00    +0.000 A 
ATOM     16  C   UNL     1       2.181   3.916  21.346  0.00  0.00    +0.000 A 
ATOM     17  C   UNL     1       2.603   2.759  20.702  0.00  0.00    +0.000 A 
ATOM     18  C   UNL     1       2.945   2.789  19.342  0.00  0.00    +0.000 A 
ATOM     19 CL   UNL     1       3.428   1.286  18.636  0.00  0.00    +0.000 Cl
ENDBRANCH  11  12
ENDBRANCH   5  11
TORSDOF 4
ENDMDL
