MODEL 1
REMARK VINA RESULT:      -8.8      0.000      0.000
REMARK  Name = 
REMARK  11 active torsions:
REMARK  status: ('A' for Active; 'I' for Inactive)
REMARK    1  A    between atoms: C_1  and  C_2
REMARK    2  A    between atoms: N_4  and  C_5
REMARK    3  A    between atoms: C_5  and  C_6
REMARK    4  A    between atoms: C_7  and  C_8
REMARK    5  A    between atoms: C_14  and  C_15
REMARK    6  A    between atoms: N_17  and  C_18
REMARK    7  A    between atoms: C_18  and  C_19
REMARK    8  A    between atoms: C_19  and  O_20
REMARK    9  A    between atoms: O_20  and  C_21
REMARK   10  A    between atoms: C_21  and  C_22
REMARK   11  A    between atoms: C_21  and  C_29
REMARK                            x       y       z     vdW  Elec       q    Type
REMARK                         _______ _______ _______ _____ _____    ______ ____
ROOT
ATOM      1  C   UNL     1       1.100   9.072  18.289  0.00  0.00    +0.000 C 
ENDROOT
BRANCH   1   9
ATOM      2  C   UNL     1       0.455   9.051  21.299  0.00  0.00    +0.000 C 
ATOM      3  C   UNL     1       0.498  10.279  20.380  0.00  0.00    +0.000 C 
ATOM      4  C   UNL     1       0.847  11.524  21.259  0.00  0.00    +0.000 C 
ATOM      5  N   UNL     1       0.857  12.812  20.522  0.00  0.00    +0.000 NA
ATOM      6  C   UNL     1       1.862  12.662  19.442  0.00  0.00    +0.000 C 
ATOM      7  C   UNL     1       2.054  13.912  18.577  0.00  0.00    +0.000 C 
ATOM      8  C   UNL     1       1.603  11.433  18.533  0.00  0.00    +0.000 C 
ATOM      9  N   UNL     1       1.456  10.142  19.248  0.00  0.00    +0.000 NA
BRANCH   5  10
ATOM     10  C   UNL     1      -0.481  13.164  20.023  0.00  0.00    +0.000 C 
BRANCH  10  11
ATOM     11  C   UNL     1      -1.506  13.235  21.121  0.00  0.00    +0.000 C 
ATOM     12  C   UNL     1      -2.549  12.391  21.226  0.00  0.00    +0.000 C 
BRANCH  12  13
ATOM     13  C   UNL     1      -3.567  12.573  22.260  0.00  0.00    +0.000 A 
ATOM     14  C   UNL     1      -4.850  12.977  21.883  0.00  0.00    +0.000 A 
ATOM     15  C   UNL     1      -5.842  13.174  22.843  0.00  0.00    +0.000 A 
ATOM     16  C   UNL     1      -5.559  12.963  24.192  0.00  0.00    +0.000 A 
ATOM     17  C   UNL     1      -4.284  12.552  24.580  0.00  0.00    +0.000 A 
ATOM     18  C   UNL     1      -3.285  12.357  23.616  0.00  0.00    +0.000 A 
ENDBRANCH  12  13
ENDBRANCH  10  11
ENDBRANCH   5  10
ENDBRANCH   1   9
BRANCH   1  19
ATOM     19  C   UNL     1       2.350   8.386  17.682  0.00  0.00    +0.000 C 
BRANCH  19  20
ATOM     20  O   UNL     1       2.905   7.323  18.439  0.00  0.00    +0.000 OA
BRANCH  20  21
ATOM     21  C   UNL     1       2.872   6.007  17.880  0.00  0.00    +0.000 C 
BRANCH  21  22
ATOM     22  C   UNL     1       4.206   5.523  17.296  0.00  0.00    +0.000 A 
ATOM     23  C   UNL     1       4.332   4.264  16.679  0.00  0.00    +0.000 A 
ATOM     24  C   UNL     1       5.495   3.926  15.979  0.00  0.00    +0.000 A 
ATOM     25  C   UNL     1       6.547   4.832  15.911  0.00  0.00    +0.000 A 
ATOM     26  F   UNL     1       7.635   4.534  15.187  0.00  0.00    +0.000 F 
ATOM     27  C   UNL     1       6.476   6.051  16.572  0.00  0.00    +0.000 A 
ATOM     28  C   UNL     1       5.313   6.393  17.265  0.00  0.00    +0.000 A 
ENDBRANCH  21  22
BRANCH  21  29
ATOM     29  C   UNL     1       2.340   5.062  18.970  0.00  0.00    +0.000 A 
ATOM     30  C   UNL     1       1.415   4.042  18.669  0.00  0.00    +0.000 A 
ATOM     31  C   UNL     1       0.933   3.189  19.662  0.00  0.00    +0.000 A 
ATOM     32  C   UNL     1       1.373   3.346  20.967  0.00  0.00    +0.000 A 
ATOM     33  F   UNL     1       0.904   2.535  21.923  0.00  0.00    +0.000 F 
ATOM     34  C   UNL     1       2.293   4.331  21.296  0.00  0.00    +0.000 A 
ATOM     35  C   UNL     1       2.781   5.187  20.302  0.00  0.00    +0.000 A 
ENDBRANCH  21  29
ENDBRANCH  20  21
ENDBRANCH  19  20
ENDBRANCH   1  19
TORSDOF 9
ENDMDL
MODEL 2
REMARK VINA RESULT:      -8.8      0.713      1.189
REMARK  Name = 
REMARK  11 active torsions:
REMARK  status: ('A' for Active; 'I' for Inactive)
REMARK    1  A    between atoms: C_1  and  C_2
REMARK    2  A    between atoms: N_4  and  C_5
REMARK    3  A    between atoms: C_5  and  C_6
REMARK    4  A    between atoms: C_7  and  C_8
REMARK    5  A    between atoms: C_14  and  C_15
REMARK    6  A    between atoms: N_17  and  C_18
REMARK    7  A    between atoms: C_18  and  C_19
REMARK    8  A    between atoms: C_19  and  O_20
REMARK    9  A    between atoms: O_20  and  C_21
REMARK   10  A    between atoms: C_21  and  C_22
REMARK   11  A    between atoms: C_21  and  C_29
REMARK                            x       y       z     vdW  Elec       q    Type
REMARK                         _______ _______ _______ _____ _____    ______ ____
ROOT
ATOM      1  C   UNL     1       1.173   9.399  18.094  0.00  0.00    +0.000 C 
ENDROOT
BRANCH   1   9
ATOM      2  C   UNL     1       0.401   8.888  21.029  0.00  0.00    +0.000 C 
ATOM      3  C   UNL     1       0.388  10.238  20.301  0.00  0.00    +0.000 C 
ATOM      4  C   UNL     1       0.600  11.361  21.367  0.00  0.00    +0.000 C 
ATOM      5  N   UNL     1       0.542  12.742  20.826  0.00  0.00    +0.000 NA
ATOM      6  C   UNL     1       1.602  12.824  19.792  0.00  0.00    +0.000 C 
ATOM      7  C   UNL     1       1.733  14.198  19.128  0.00  0.00    +0.000 C 
ATOM      8  C   UNL     1       1.479  11.728  18.703  0.00  0.00    +0.000 C 
ATOM      9  N   UNL     1       1.402  10.338  19.214  0.00  0.00    +0.000 NA
BRANCH   5  10
ATOM     10  C   UNL     1      -0.796  13.067  20.310  0.00  0.00    +0.000 C 
BRANCH  10  11
ATOM     11  C   UNL     1      -1.864  12.953  21.363  0.00  0.00    +0.000 C 
ATOM     12  C   UNL     1      -3.165  12.745  21.089  0.00  0.00    +0.000 C 
BRANCH  12  13
ATOM     13  C   UNL     1      -4.170  12.741  22.151  0.00  0.00    +0.000 A 
ATOM     14  C   UNL     1      -3.754  12.590  23.476  0.00  0.00    +0.000 A 
ATOM     15  C   UNL     1      -4.685  12.567  24.514  0.00  0.00    +0.000 A 
ATOM     16  C   UNL     1      -6.045  12.701  24.234  0.00  0.00    +0.000 A 
ATOM     17  C   UNL     1      -6.472  12.860  22.916  0.00  0.00    +0.000 A 
ATOM     18  C   UNL     1      -5.537  12.880  21.872  0.00  0.00    +0.000 A 
ENDBRANCH  12  13
ENDBRANCH  10  11
ENDBRANCH   5  10
ENDBRANCH   1   9
BRANCH   1  19
ATOM     19  C   UNL     1       2.439   8.573  17.749  0.00  0.00    +0.000 C 
BRANCH  19  20
ATOM     20  O   UNL     1       2.739   7.501  18.628  0.00  0.00    +0.000 OA
BRANCH  20  21
ATOM     21  C   UNL     1       2.934   6.201  18.063  0.00  0.00    +0.000 C 
BRANCH  21  22
ATOM     22  C   UNL     1       4.388   5.869  17.702  0.00  0.00    +0.000 A 
ATOM     23  C   UNL     1       5.340   5.544  18.686  0.00  0.00    +0.000 A 
ATOM     24  C   UNL     1       6.599   5.051  18.325  0.00  0.00    +0.000 A 
ATOM     25  C   UNL     1       6.923   4.904  16.982  0.00  0.00    +0.000 A 
ATOM     26  F   UNL     1       8.105   4.373  16.638  0.00  0.00    +0.000 F 
ATOM     27  C   UNL     1       6.029   5.286  15.991  0.00  0.00    +0.000 A 
ATOM     28  C   UNL     1       4.768   5.771  16.349  0.00  0.00    +0.000 A 
ENDBRANCH  21  22
BRANCH  21  29
ATOM     29  C   UNL     1       2.335   5.182  19.047  0.00  0.00    +0.000 A 
ATOM     30  C   UNL     1       1.592   4.073  18.592  0.00  0.00    +0.000 A 
ATOM     31  C   UNL     1       1.048   3.153  19.488  0.00  0.00    +0.000 A 
ATOM     32  C   UNL     1       1.242   3.332  20.849  0.00  0.00    +0.000 A 
ATOM     33  F   UNL     1       0.712   2.455  21.711  0.00  0.00    +0.000 F 
ATOM     34  C   UNL     1       1.979   4.404  21.330  0.00  0.00    +0.000 A 
ATOM     35  C   UNL     1       2.529   5.328  20.434  0.00  0.00    +0.000 A 
ENDBRANCH  21  29
ENDBRANCH  20  21
ENDBRANCH  19  20
ENDBRANCH   1  19
TORSDOF 9
ENDMDL
MODEL 3
REMARK VINA RESULT:      -8.7      0.795      1.281
REMARK  Name = 
REMARK  11 active torsions:
REMARK  status: ('A' for Active; 'I' for Inactive)
REMARK    1  A    between atoms: C_1  and  C_2
REMARK    2  A    between atoms: N_4  and  C_5
REMARK    3  A    between atoms: C_5  and  C_6
REMARK    4  A    between atoms: C_7  and  C_8
REMARK    5  A    between atoms: C_14  and  C_15
REMARK    6  A    between atoms: N_17  and  C_18
REMARK    7  A    between atoms: C_18  and  C_19
REMARK    8  A    between atoms: C_19  and  O_20
REMARK    9  A    between atoms: O_20  and  C_21
REMARK   10  A    between atoms: C_21  and  C_22
REMARK   11  A    between atoms: C_21  and  C_29
REMARK                            x       y       z     vdW  Elec       q    Type
REMARK                         _______ _______ _______ _____ _____    ______ ____
ROOT
ATOM      1  C   UNL     1       1.457   9.153  17.771  0.00  0.00    +0.000 C 
ENDROOT
BRANCH   1   9
ATOM      2  C   UNL     1       0.928   8.646  20.760  0.00  0.00    +0.000 C 
ATOM      3  C   UNL     1       0.724   9.966  20.006  0.00  0.00    +0.000 C 
ATOM      4  C   UNL     1       0.879  11.135  21.032  0.00  0.00    +0.000 C 
ATOM      5  N   UNL     1       0.639  12.485  20.466  0.00  0.00    +0.000 NA
ATOM      6  C   UNL     1       1.617  12.651  19.364  0.00  0.00    +0.000 C 
ATOM      7  C   UNL     1       1.558  14.012  18.664  0.00  0.00    +0.000 C 
ATOM      8  C   UNL     1       1.546  11.518  18.309  0.00  0.00    +0.000 C 
ATOM      9  N   UNL     1       1.652  10.143  18.854  0.00  0.00    +0.000 NA
BRANCH   5  10
ATOM     10  C   UNL     1      -0.756  12.652  20.031  0.00  0.00    +0.000 C 
BRANCH  10  11
ATOM     11  C   UNL     1      -1.735  12.492  21.162  0.00  0.00    +0.000 C 
ATOM     12  C   UNL     1      -3.035  12.832  21.078  0.00  0.00    +0.000 C 
BRANCH  12  13
ATOM     13  C   UNL     1      -3.915  12.744  22.242  0.00  0.00    +0.000 A 
ATOM     14  C   UNL     1      -5.284  12.969  22.075  0.00  0.00    +0.000 A 
ATOM     15  C   UNL     1      -6.151  12.908  23.165  0.00  0.00    +0.000 A 
ATOM     16  C   UNL     1      -5.656  12.615  24.435  0.00  0.00    +0.000 A 
ATOM     17  C   UNL     1      -4.293  12.380  24.614  0.00  0.00    +0.000 A 
ATOM     18  C   UNL     1      -3.420  12.445  23.519  0.00  0.00    +0.000 A 
ENDBRANCH  12  13
ENDBRANCH  10  11
ENDBRANCH   5  10
ENDBRANCH   1   9
BRANCH   1  19
ATOM     19  C   UNL     1       2.640   8.159  17.661  0.00  0.00    +0.000 C 
BRANCH  19  20
ATOM     20  O   UNL     1       2.656   7.104  18.609  0.00  0.00    +0.000 OA
BRANCH  20  21
ATOM     21  C   UNL     1       2.934   5.781  18.143  0.00  0.00    +0.000 C 
BRANCH  21  22
ATOM     22  C   UNL     1       4.411   5.510  17.826  0.00  0.00    +0.000 A 
ATOM     23  C   UNL     1       5.410   5.608  18.812  0.00  0.00    +0.000 A 
ATOM     24  C   UNL     1       6.712   5.163  18.555  0.00  0.00    +0.000 A 
ATOM     25  C   UNL     1       7.029   4.642  17.307  0.00  0.00    +0.000 A 
ATOM     26  F   UNL     1       8.259   4.159  17.081  0.00  0.00    +0.000 F 
ATOM     27  C   UNL     1       6.080   4.603  16.294  0.00  0.00    +0.000 A 
ATOM     28  C   UNL     1       4.778   5.039  16.550  0.00  0.00    +0.000 A 
ENDBRANCH  21  22
BRANCH  21  29
ATOM     29  C   UNL     1       2.377   4.802  19.189  0.00  0.00    +0.000 A 
ATOM     30  C   UNL     1       2.458   5.080  20.569  0.00  0.00    +0.000 A 
ATOM     31  C   UNL     1       1.955   4.188  21.516  0.00  0.00    +0.000 A 
ATOM     32  C   UNL     1       1.363   3.008  21.092  0.00  0.00    +0.000 A 
ATOM     33  F   UNL     1       0.888   2.146  21.999  0.00  0.00    +0.000 F 
ATOM     34  C   UNL     1       1.255   2.709  19.741  0.00  0.00    +0.000 A 
ATOM     35  C   UNL     1       1.756   3.603  18.789  0.00  0.00    +0.000 A 
ENDBRANCH  21  29
ENDBRANCH  20  21
ENDBRANCH  19  20
ENDBRANCH   1  19
TORSDOF 9
ENDMDL
MODEL 4
REMARK VINA RESULT:      -8.6      0.988      1.406
REMARK  Name = 
REMARK  11 active torsions:
REMARK  status: ('A' for Active; 'I' for Inactive)
REMARK    1  A    between atoms: C_1  and  C_2
REMARK    2  A    between atoms: N_4  and  C_5
REMARK    3  A    between atoms: C_5  and  C_6
REMARK    4  A    between atoms: C_7  and  C_8
REMARK    5  A    between atoms: C_14  and  C_15
REMARK    6  A    between atoms: N_17  and  C_18
REMARK    7  A    between atoms: C_18  and  C_19
REMARK    8  A    between atoms: C_19  and  O_20
REMARK    9  A    between atoms: O_20  and  C_21
REMARK   10  A    between atoms: C_21  and  C_22
REMARK   11  A    between atoms: C_21  and  C_29
REMARK                            x       y       z     vdW  Elec       q    Type
REMARK                         _______ _______ _______ _____ _____    ______ ____
ROOT
ATOM      1  C   UNL     1       1.071   8.923  18.222  0.00  0.00    +0.000 C 
ENDROOT
BRANCH   1   9
ATOM      2  C   UNL     1       0.783   8.452  21.250  0.00  0.00    +0.000 C 
ATOM      3  C   UNL     1       0.259   9.656  20.457  0.00  0.00    +0.000 C 
ATOM      4  C   UNL     1       0.185  10.877  21.430  0.00  0.00    +0.000 C 
ATOM      5  N   UNL     1      -0.375  12.111  20.825  0.00  0.00    +0.000 NA
ATOM      6  C   UNL     1       0.499  12.439  19.673  0.00  0.00    +0.000 C 
ATOM      7  C   UNL     1       0.109  13.718  18.926  0.00  0.00    +0.000 C 
ATOM      8  C   UNL     1       0.646  11.270  18.666  0.00  0.00    +0.000 C 
ATOM      9  N   UNL     1       1.079   9.981  19.257  0.00  0.00    +0.000 NA
BRANCH   5  10
ATOM     10  C   UNL     1      -1.786  11.942  20.451  0.00  0.00    +0.000 C 
BRANCH  10  11
ATOM     11  C   UNL     1      -2.689  12.924  21.145  0.00  0.00    +0.000 C 
ATOM     12  C   UNL     1      -3.378  12.642  22.267  0.00  0.00    +0.000 C 
BRANCH  12  13
ATOM     13  C   UNL     1      -4.316  13.607  22.840  0.00  0.00    +0.000 A 
ATOM     14  C   UNL     1      -5.687  13.410  22.656  0.00  0.00    +0.000 A 
ATOM     15  C   UNL     1      -6.610  14.317  23.176  0.00  0.00    +0.000 A 
ATOM     16  C   UNL     1      -6.168  15.430  23.890  0.00  0.00    +0.000 A 
ATOM     17  C   UNL     1      -4.802  15.634  24.087  0.00  0.00    +0.000 A 
ATOM     18  C   UNL     1      -3.874  14.725  23.562  0.00  0.00    +0.000 A 
ENDBRANCH  12  13
ENDBRANCH  10  11
ENDBRANCH   5  10
ENDBRANCH   1   9
BRANCH   1  19
ATOM     19  C   UNL     1       2.500   8.458  17.843  0.00  0.00    +0.000 C 
BRANCH  19  20
ATOM     20  O   UNL     1       3.003   7.344  18.563  0.00  0.00    +0.000 OA
BRANCH  20  21
ATOM     21  C   UNL     1       2.916   6.052  17.953  0.00  0.00    +0.000 C 
BRANCH  21  22
ATOM     22  C   UNL     1       4.227   5.544  17.339  0.00  0.00    +0.000 A 
ATOM     23  C   UNL     1       4.283   4.351  16.595  0.00  0.00    +0.000 A 
ATOM     24  C   UNL     1       5.436   4.010  15.878  0.00  0.00    +0.000 A 
ATOM     25  C   UNL     1       6.545   4.847  15.918  0.00  0.00    +0.000 A 
ATOM     26  F   UNL     1       7.626   4.553  15.181  0.00  0.00    +0.000 F 
ATOM     27  C   UNL     1       6.541   5.992  16.703  0.00  0.00    +0.000 A 
ATOM     28  C   UNL     1       5.389   6.337  17.413  0.00  0.00    +0.000 A 
ENDBRANCH  21  22
BRANCH  21  29
ATOM     29  C   UNL     1       2.360   5.086  19.011  0.00  0.00    +0.000 A 
ATOM     30  C   UNL     1       2.724   5.195  20.368  0.00  0.00    +0.000 A 
ATOM     31  C   UNL     1       2.219   4.314  21.324  0.00  0.00    +0.000 A 
ATOM     32  C   UNL     1       1.343   3.313  20.933  0.00  0.00    +0.000 A 
ATOM     33  F   UNL     1       0.865   2.461  21.847  0.00  0.00    +0.000 F 
ATOM     34  C   UNL     1       0.952   3.185  19.607  0.00  0.00    +0.000 A 
ATOM     35  C   UNL     1       1.455   4.070  18.646  0.00  0.00    +0.000 A 
ENDBRANCH  21  29
ENDBRANCH  20  21
ENDBRANCH  19  20
ENDBRANCH   1  19
TORSDOF 9
ENDMDL
MODEL 5
REMARK VINA RESULT:      -8.5      1.470      1.900
REMARK  Name = 
REMARK  11 active torsions:
REMARK  status: ('A' for Active; 'I' for Inactive)
REMARK    1  A    between atoms: C_1  and  C_2
REMARK    2  A    between atoms: N_4  and  C_5
REMARK    3  A    between atoms: C_5  and  C_6
REMARK    4  A    between atoms: C_7  and  C_8
REMARK    5  A    between atoms: C_14  and  C_15
REMARK    6  A    between atoms: N_17  and  C_18
REMARK    7  A    between atoms: C_18  and  C_19
REMARK    8  A    between atoms: C_19  and  O_20
REMARK    9  A    between atoms: O_20  and  C_21
REMARK   10  A    between atoms: C_21  and  C_22
REMARK   11  A    between atoms: C_21  and  C_29
REMARK                            x       y       z     vdW  Elec       q    Type
REMARK                         _______ _______ _______ _____ _____    ______ ____
ROOT
ATOM      1  C   UNL     1       1.134   9.213  18.018  0.00  0.00    +0.000 C 
ENDROOT
BRANCH   1   9
ATOM      2  C   UNL     1       0.788   8.463  20.984  0.00  0.00    +0.000 C 
ATOM      3  C   UNL     1       0.525   9.835  20.350  0.00  0.00    +0.000 C 
ATOM      4  C   UNL     1       0.727  10.922  21.455  0.00  0.00    +0.000 C 
ATOM      5  N   UNL     1       0.438  12.309  21.013  0.00  0.00    +0.000 NA
ATOM      6  C   UNL     1       1.349  12.576  19.873  0.00  0.00    +0.000 C 
ATOM      7  C   UNL     1       1.233  13.987  19.288  0.00  0.00    +0.000 C 
ATOM      8  C   UNL     1       1.228  11.529  18.737  0.00  0.00    +0.000 C 
ATOM      9  N   UNL     1       1.382  10.117  19.163  0.00  0.00    +0.000 NA
BRANCH   5  10
ATOM     10  C   UNL     1      -0.981  12.487  20.674  0.00  0.00    +0.000 C 
BRANCH  10  11
ATOM     11  C   UNL     1      -1.650  13.532  21.524  0.00  0.00    +0.000 C 
ATOM     12  C   UNL     1      -1.678  13.496  22.869  0.00  0.00    +0.000 C 
BRANCH  12  13
ATOM     13  C   UNL     1      -2.429  14.489  23.636  0.00  0.00    +0.000 A 
ATOM     14  C   UNL     1      -3.770  14.718  23.318  0.00  0.00    +0.000 A 
ATOM     15  C   UNL     1      -4.513  15.668  24.018  0.00  0.00    +0.000 A 
ATOM     16  C   UNL     1      -3.921  16.395  25.050  0.00  0.00    +0.000 A 
ATOM     17  C   UNL     1      -2.585  16.171  25.382  0.00  0.00    +0.000 A 
ATOM     18  C   UNL     1      -1.836  15.219  24.676  0.00  0.00    +0.000 A 
ENDBRANCH  12  13
ENDBRANCH  10  11
ENDBRANCH   5  10
ENDBRANCH   1   9
BRANCH   1  19
ATOM     19  C   UNL     1       2.369   8.339  17.681  0.00  0.00    +0.000 C 
BRANCH  19  20
ATOM     20  O   UNL     1       2.625   7.259  18.564  0.00  0.00    +0.000 OA
BRANCH  20  21
ATOM     21  C   UNL     1       2.730   5.944  18.010  0.00  0.00    +0.000 C 
BRANCH  21  22
ATOM     22  C   UNL     1       4.122   5.581  17.477  0.00  0.00    +0.000 A 
ATOM     23  C   UNL     1       5.262   6.338  17.807  0.00  0.00    +0.000 A 
ATOM     24  C   UNL     1       6.543   5.878  17.479  0.00  0.00    +0.000 A 
ATOM     25  C   UNL     1       6.690   4.674  16.801  0.00  0.00    +0.000 A 
ATOM     26  F   UNL     1       7.919   4.203  16.543  0.00  0.00    +0.000 F 
ATOM     27  C   UNL     1       5.579   3.945  16.400  0.00  0.00    +0.000 A 
ATOM     28  C   UNL     1       4.300   4.398  16.732  0.00  0.00    +0.000 A 
ENDBRANCH  21  22
BRANCH  21  29
ATOM     29  C   UNL     1       2.246   4.957  19.085  0.00  0.00    +0.000 A 
ATOM     30  C   UNL     1       2.675   5.063  20.423  0.00  0.00    +0.000 A 
ATOM     31  C   UNL     1       2.236   4.163  21.395  0.00  0.00    +0.000 A 
ATOM     32  C   UNL     1       1.361   3.149  21.038  0.00  0.00    +0.000 A 
ATOM     33  F   UNL     1       0.947   2.278  21.967  0.00  0.00    +0.000 F 
ATOM     34  C   UNL     1       0.908   3.023  19.732  0.00  0.00    +0.000 A 
ATOM     35  C   UNL     1       1.345   3.926  18.756  0.00  0.00    +0.000 A 
ENDBRANCH  21  29
ENDBRANCH  20  21
ENDBRANCH  19  20
ENDBRANCH   1  19
TORSDOF 9
ENDMDL
MODEL 6
REMARK VINA RESULT:      -8.4      1.689      2.400
REMARK  Name = 
REMARK  11 active torsions:
REMARK  status: ('A' for Active; 'I' for Inactive)
REMARK    1  A    between atoms: C_1  and  C_2
REMARK    2  A    between atoms: N_4  and  C_5
REMARK    3  A    between atoms: C_5  and  C_6
REMARK    4  A    between atoms: C_7  and  C_8
REMARK    5  A    between atoms: C_14  and  C_15
REMARK    6  A    between atoms: N_17  and  C_18
REMARK    7  A    between atoms: C_18  and  C_19
REMARK    8  A    between atoms: C_19  and  O_20
REMARK    9  A    between atoms: O_20  and  C_21
REMARK   10  A    between atoms: C_21  and  C_22
REMARK   11  A    between atoms: C_21  and  C_29
REMARK                            x       y       z     vdW  Elec       q    Type
REMARK                         _______ _______ _______ _____ _____    ______ ____
ROOT
ATOM      1  C   UNL     1       1.116   9.215  19.132  0.00  0.00    +0.000 C 
ENDROOT
BRANCH   1   9
ATOM      2  C   UNL     1       1.489  12.135  20.033  0.00  0.00    +0.000 C 
ATOM      3  C   UNL     1       0.197  11.497  19.507  0.00  0.00    +0.000 C 
ATOM      4  C   UNL     1      -0.668  12.627  18.859  0.00  0.00    +0.000 C 
ATOM      5  N   UNL     1      -1.992  12.179  18.362  0.00  0.00    +0.000 NA
ATOM      6  C   UNL     1      -1.719  11.119  17.361  0.00  0.00    +0.000 C 
ATOM      7  C   UNL     1      -2.972  10.542  16.693  0.00  0.00    +0.000 C 
ATOM      8  C   UNL     1      -0.847   9.965  17.917  0.00  0.00    +0.000 C 
ATOM      9  N   UNL     1       0.431  10.387  18.542  0.00  0.00    +0.000 NA
BRANCH   5  10
ATOM     10  C   UNL     1      -2.861  11.730  19.459  0.00  0.00    +0.000 C 
BRANCH  10  11
ATOM     11  C   UNL     1      -3.169  12.830  20.438  0.00  0.00    +0.000 C 
ATOM     12  C   UNL     1      -2.844  12.781  21.743  0.00  0.00    +0.000 C 
BRANCH  12  13
ATOM     13  C   UNL     1      -3.257  13.838  22.665  0.00  0.00    +0.000 A 
ATOM     14  C   UNL     1      -2.643  13.923  23.917  0.00  0.00    +0.000 A 
ATOM     15  C   UNL     1      -3.022  14.909  24.827  0.00  0.00    +0.000 A 
ATOM     16  C   UNL     1      -4.017  15.826  24.489  0.00  0.00    +0.000 A 
ATOM     17  C   UNL     1      -4.632  15.757  23.239  0.00  0.00    +0.000 A 
ATOM     18  C   UNL     1      -4.254  14.763  22.325  0.00  0.00    +0.000 A 
ENDBRANCH  12  13
ENDBRANCH  10  11
ENDBRANCH   5  10
ENDBRANCH   1   9
BRANCH   1  19
ATOM     19  C   UNL     1       1.981   8.455  18.096  0.00  0.00    +0.000 C 
BRANCH  19  20
ATOM     20  O   UNL     1       2.828   7.443  18.616  0.00  0.00    +0.000 OA
BRANCH  20  21
ATOM     21  C   UNL     1       2.797   6.154  17.996  0.00  0.00    +0.000 C 
BRANCH  21  22
ATOM     22  C   UNL     1       4.130   5.706  17.381  0.00  0.00    +0.000 A 
ATOM     23  C   UNL     1       4.294   4.426  16.820  0.00  0.00    +0.000 A 
ATOM     24  C   UNL     1       5.445   4.109  16.089  0.00  0.00    +0.000 A 
ATOM     25  C   UNL     1       6.447   5.060  15.935  0.00  0.00    +0.000 A 
ATOM     26  F   UNL     1       7.520   4.778  15.182  0.00  0.00    +0.000 F 
ATOM     27  C   UNL     1       6.342   6.305  16.540  0.00  0.00    +0.000 A 
ATOM     28  C   UNL     1       5.191   6.625  17.264  0.00  0.00    +0.000 A 
ENDBRANCH  21  22
BRANCH  21  29
ATOM     29  C   UNL     1       2.280   5.156  19.045  0.00  0.00    +0.000 A 
ATOM     30  C   UNL     1       2.679   5.238  20.394  0.00  0.00    +0.000 A 
ATOM     31  C   UNL     1       2.209   4.329  21.343  0.00  0.00    +0.000 A 
ATOM     32  C   UNL     1       1.334   3.328  20.951  0.00  0.00    +0.000 A 
ATOM     33  F   UNL     1       0.889   2.449  21.857  0.00  0.00    +0.000 F 
ATOM     34  C   UNL     1       0.909   3.226  19.633  0.00  0.00    +0.000 A 
ATOM     35  C   UNL     1       1.377   4.138  18.680  0.00  0.00    +0.000 A 
ENDBRANCH  21  29
ENDBRANCH  20  21
ENDBRANCH  19  20
ENDBRANCH   1  19
TORSDOF 9
ENDMDL
MODEL 7
REMARK VINA RESULT:      -8.4      1.854      2.561
REMARK  Name = 
REMARK  11 active torsions:
REMARK  status: ('A' for Active; 'I' for Inactive)
REMARK    1  A    between atoms: C_1  and  C_2
REMARK    2  A    between atoms: N_4  and  C_5
REMARK    3  A    between atoms: C_5  and  C_6
REMARK    4  A    between atoms: C_7  and  C_8
REMARK    5  A    between atoms: C_14  and  C_15
REMARK    6  A    between atoms: N_17  and  C_18
REMARK    7  A    between atoms: C_18  and  C_19
REMARK    8  A    between atoms: C_19  and  O_20
REMARK    9  A    between atoms: O_20  and  C_21
REMARK   10  A    between atoms: C_21  and  C_22
REMARK   11  A    between atoms: C_21  and  C_29
REMARK                            x       y       z     vdW  Elec       q    Type
REMARK                         _______ _______ _______ _____ _____    ______ ____
ROOT
ATOM      1  C   UNL     1       1.395   8.486  20.885  0.00  0.00    +0.000 C 
ENDROOT
BRANCH   1   9
ATOM      2  C   UNL     1      -0.565   9.584  22.989  0.00  0.00    +0.000 C 
ATOM      3  C   UNL     1      -0.373  10.103  21.558  0.00  0.00    +0.000 C 
ATOM      4  C   UNL     1      -0.768  11.615  21.538  0.00  0.00    +0.000 C 
ATOM      5  N   UNL     1      -0.702  12.250  20.198  0.00  0.00    +0.000 NA
ATOM      6  C   UNL     1       0.697  12.090  19.734  0.00  0.00    +0.000 C 
ATOM      7  C   UNL     1       0.987  12.718  18.367  0.00  0.00    +0.000 C 
ATOM      8  C   UNL     1       1.179  10.617  19.743  0.00  0.00    +0.000 C 
ATOM      9  N   UNL     1       1.008   9.907  21.034  0.00  0.00    +0.000 NA
BRANCH   5  10
ATOM     10  C   UNL     1      -1.688  11.671  19.274  0.00  0.00    +0.000 C 
BRANCH  10  11
ATOM     11  C   UNL     1      -3.072  12.223  19.487  0.00  0.00    +0.000 C 
ATOM     12  C   UNL     1      -4.136  11.877  18.741  0.00  0.00    +0.000 C 
BRANCH  12  13
ATOM     13  C   UNL     1      -5.435  12.522  18.934  0.00  0.00    +0.000 A 
ATOM     14  C   UNL     1      -5.747  13.055  20.187  0.00  0.00    +0.000 A 
ATOM     15  C   UNL     1      -6.981  13.664  20.412  0.00  0.00    +0.000 A 
ATOM     16  C   UNL     1      -7.915  13.750  19.379  0.00  0.00    +0.000 A 
ATOM     17  C   UNL     1      -7.613  13.228  18.122  0.00  0.00    +0.000 A 
ATOM     18  C   UNL     1      -6.374  12.613  17.896  0.00  0.00    +0.000 A 
ENDBRANCH  12  13
ENDBRANCH  10  11
ENDBRANCH   5  10
ENDBRANCH   1   9
BRANCH   1  19
ATOM     19  C   UNL     1       1.528   8.065  19.399  0.00  0.00    +0.000 C 
BRANCH  19  20
ATOM     20  O   UNL     1       2.715   7.370  19.054  0.00  0.00    +0.000 OA
BRANCH  20  21
ATOM     21  C   UNL     1       2.593   6.155  18.309  0.00  0.00    +0.000 C 
BRANCH  21  22
ATOM     22  C   UNL     1       3.838   5.773  17.497  0.00  0.00    +0.000 A 
ATOM     23  C   UNL     1       4.879   6.690  17.261  0.00  0.00    +0.000 A 
ATOM     24  C   UNL     1       6.088   6.267  16.696  0.00  0.00    +0.000 A 
ATOM     25  C   UNL     1       6.255   4.934  16.343  0.00  0.00    +0.000 A 
ATOM     26  F   UNL     1       7.434   4.517  15.861  0.00  0.00    +0.000 F 
ATOM     27  C   UNL     1       5.218   4.024  16.499  0.00  0.00    +0.000 A 
ATOM     28  C   UNL     1       4.013   4.442  17.069  0.00  0.00    +0.000 A 
ENDBRANCH  21  22
BRANCH  21  29
ATOM     29  C   UNL     1       2.187   5.052  19.300  0.00  0.00    +0.000 A 
ATOM     30  C   UNL     1       1.301   4.021  18.926  0.00  0.00    +0.000 A 
ATOM     31  C   UNL     1       0.932   3.024  19.830  0.00  0.00    +0.000 A 
ATOM     32  C   UNL     1       1.448   3.046  21.116  0.00  0.00    +0.000 A 
ATOM     33  F   UNL     1       1.088   2.096  21.987  0.00  0.00    +0.000 F 
ATOM     34  C   UNL     1       2.333   4.038  21.513  0.00  0.00    +0.000 A 
ATOM     35  C   UNL     1       2.707   5.039  20.609  0.00  0.00    +0.000 A 
ENDBRANCH  21  29
ENDBRANCH  20  21
ENDBRANCH  19  20
ENDBRANCH   1  19
TORSDOF 9
ENDMDL
MODEL 8
REMARK VINA RESULT:      -8.4      1.412      2.238
REMARK  Name = 
REMARK  11 active torsions:
REMARK  status: ('A' for Active; 'I' for Inactive)
REMARK    1  A    between atoms: C_1  and  C_2
REMARK    2  A    between atoms: N_4  and  C_5
REMARK    3  A    between atoms: C_5  and  C_6
REMARK    4  A    between atoms: C_7  and  C_8
REMARK    5  A    between atoms: C_14  and  C_15
REMARK    6  A    between atoms: N_17  and  C_18
REMARK    7  A    between atoms: C_18  and  C_19
REMARK    8  A    between atoms: C_19  and  O_20
REMARK    9  A    between atoms: O_20  and  C_21
REMARK   10  A    between atoms: C_21  and  C_22
REMARK   11  A    between atoms: C_21  and  C_29
REMARK                            x       y       z     vdW  Elec       q    Type
REMARK                         _______ _______ _______ _____ _____    ______ ____
ROOT
ATOM      1  C   UNL     1       2.277   9.743  18.352  0.00  0.00    +0.000 C 
ENDROOT
BRANCH   1   9
ATOM      2  C   UNL     1       2.412  12.810  18.567  0.00  0.00    +0.000 C 
ATOM      3  C   UNL     1       1.188  11.927  18.838  0.00  0.00    +0.000 C 
ATOM      4  C   UNL     1      -0.092  12.782  18.566  0.00  0.00    +0.000 C 
ATOM      5  N   UNL     1      -1.370  12.085  18.854  0.00  0.00    +0.000 NA
ATOM      6  C   UNL     1      -1.382  10.876  17.996  0.00  0.00    +0.000 C 
ATOM      7  C   UNL     1      -2.651  10.025  18.117  0.00  0.00    +0.000 C 
ATOM      8  C   UNL     1      -0.133   9.978  18.187  0.00  0.00    +0.000 C 
ATOM      9  N   UNL     1       1.169  10.672  18.035  0.00  0.00    +0.000 NA
BRANCH   5  10
ATOM     10  C   UNL     1      -1.512  11.780  20.285  0.00  0.00    +0.000 C 
BRANCH  10  11
ATOM     11  C   UNL     1      -2.369  12.784  21.007  0.00  0.00    +0.000 C 
ATOM     12  C   UNL     1      -3.147  12.482  22.061  0.00  0.00    +0.000 C 
BRANCH  12  13
ATOM     13  C   UNL     1      -4.033  13.481  22.658  0.00  0.00    +0.000 A 
ATOM     14  C   UNL     1      -3.536  14.763  22.909  0.00  0.00    +0.000 A 
ATOM     15  C   UNL     1      -4.346  15.737  23.490  0.00  0.00    +0.000 A 
ATOM     16  C   UNL     1      -5.667  15.438  23.822  0.00  0.00    +0.000 A 
ATOM     17  C   UNL     1      -6.178  14.165  23.570  0.00  0.00    +0.000 A 
ATOM     18  C   UNL     1      -5.362  13.184  22.989  0.00  0.00    +0.000 A 
ENDBRANCH  12  13
ENDBRANCH  10  11
ENDBRANCH   5  10
ENDBRANCH   1   9
BRANCH   1  19
ATOM     19  C   UNL     1       1.938   8.276  17.984  0.00  0.00    +0.000 C 
BRANCH  19  20
ATOM     20  O   UNL     1       2.790   7.284  18.535  0.00  0.00    +0.000 OA
BRANCH  20  21
ATOM     21  C   UNL     1       2.768   5.977  17.954  0.00  0.00    +0.000 C 
BRANCH  21  22
ATOM     22  C   UNL     1       4.101   5.524  17.344  0.00  0.00    +0.000 A 
ATOM     23  C   UNL     1       4.245   4.266  16.730  0.00  0.00    +0.000 A 
ATOM     24  C   UNL     1       5.402   3.954  16.006  0.00  0.00    +0.000 A 
ATOM     25  C   UNL     1       6.429   4.885  15.913  0.00  0.00    +0.000 A 
ATOM     26  F   UNL     1       7.509   4.610  15.168  0.00  0.00    +0.000 F 
ATOM     27  C   UNL     1       6.342   6.105  16.570  0.00  0.00    +0.000 A 
ATOM     28  C   UNL     1       5.186   6.421  17.287  0.00  0.00    +0.000 A 
ENDBRANCH  21  22
BRANCH  21  29
ATOM     29  C   UNL     1       2.266   5.006  19.035  0.00  0.00    +0.000 A 
ATOM     30  C   UNL     1       2.652   5.148  20.383  0.00  0.00    +0.000 A 
ATOM     31  C   UNL     1       2.197   4.263  21.361  0.00  0.00    +0.000 A 
ATOM     32  C   UNL     1       1.350   3.227  21.000  0.00  0.00    +0.000 A 
ATOM     33  F   UNL     1       0.920   2.370  21.935  0.00  0.00    +0.000 F 
ATOM     34  C   UNL     1       0.939   3.066  19.684  0.00  0.00    +0.000 A 
ATOM     35  C   UNL     1       1.392   3.954  18.701  0.00  0.00    +0.000 A 
ENDBRANCH  21  29
ENDBRANCH  20  21
ENDBRANCH  19  20
ENDBRANCH   1  19
TORSDOF 9
ENDMDL
MODEL 9
REMARK VINA RESULT:      -8.3      1.087      1.470
REMARK  Name = 
REMARK  11 active torsions:
REMARK  status: ('A' for Active; 'I' for Inactive)
REMARK    1  A    between atoms: C_1  and  C_2
REMARK    2  A    between atoms: N_4  and  C_5
REMARK    3  A    between atoms: C_5  and  C_6
REMARK    4  A    between atoms: C_7  and  C_8
REMARK    5  A    between atoms: C_14  and  C_15
REMARK    6  A    between atoms: N_17  and  C_18
REMARK    7  A    between atoms: C_18  and  C_19
REMARK    8  A    between atoms: C_19  and  O_20
REMARK    9  A    between atoms: O_20  and  C_21
REMARK   10  A    between atoms: C_21  and  C_22
REMARK   11  A    between atoms: C_21  and  C_29
REMARK                            x       y       z     vdW  Elec       q    Type
REMARK                         _______ _______ _______ _____ _____    ______ ____
ROOT
ATOM      1  C   UNL     1       1.235   8.394  20.452  0.00  0.00    +0.000 C 
ENDROOT
BRANCH   1   9
ATOM      2  C   UNL     1       0.104   9.408  23.129  0.00  0.00    +0.000 C 
ATOM      3  C   UNL     1      -0.076  10.062  21.753  0.00  0.00    +0.000 C 
ATOM      4  C   UNL     1      -0.295  11.594  21.975  0.00  0.00    +0.000 C 
ATOM      5  N   UNL     1      -0.557  12.362  20.733  0.00  0.00    +0.000 NA
ATOM      6  C   UNL     1       0.620  12.145  19.858  0.00  0.00    +0.000 C 
ATOM      7  C   UNL     1       0.564  12.893  18.522  0.00  0.00    +0.000 C 
ATOM      8  C   UNL     1       0.923  10.646  19.603  0.00  0.00    +0.000 C 
ATOM      9  N   UNL     1       1.062   9.816  20.824  0.00  0.00    +0.000 NA
BRANCH   5  10
ATOM     10  C   UNL     1      -1.826  11.966  20.105  0.00  0.00    +0.000 C 
BRANCH  10  11
ATOM     11  C   UNL     1      -3.001  12.733  20.647  0.00  0.00    +0.000 C 
ATOM     12  C   UNL     1      -3.416  12.660  21.924  0.00  0.00    +0.000 C 
BRANCH  12  13
ATOM     13  C   UNL     1      -4.626  13.354  22.366  0.00  0.00    +0.000 A 
ATOM     14  C   UNL     1      -4.504  14.427  23.253  0.00  0.00    +0.000 A 
ATOM     15  C   UNL     1      -5.636  15.104  23.707  0.00  0.00    +0.000 A 
ATOM     16  C   UNL     1      -6.903  14.714  23.273  0.00  0.00    +0.000 A 
ATOM     17  C   UNL     1      -7.037  13.649  22.381  0.00  0.00    +0.000 A 
ATOM     18  C   UNL     1      -5.899  12.967  21.927  0.00  0.00    +0.000 A 
ENDBRANCH  12  13
ENDBRANCH  10  11
ENDBRANCH   5  10
ENDBRANCH   1   9
BRANCH   1  19
ATOM     19  C   UNL     1       1.792   8.225  19.016  0.00  0.00    +0.000 C 
BRANCH  19  20
ATOM     20  O   UNL     1       2.950   7.415  18.890  0.00  0.00    +0.000 OA
BRANCH  20  21
ATOM     21  C   UNL     1       2.831   6.172  18.191  0.00  0.00    +0.000 C 
BRANCH  21  22
ATOM     22  C   UNL     1       4.114   5.705  17.491  0.00  0.00    +0.000 A 
ATOM     23  C   UNL     1       4.194   4.457  16.846  0.00  0.00    +0.000 A 
ATOM     24  C   UNL     1       5.297   4.137  16.045  0.00  0.00    +0.000 A 
ATOM     25  C   UNL     1       6.335   5.049  15.905  0.00  0.00    +0.000 A 
ATOM     26  F   UNL     1       7.361   4.768  15.090  0.00  0.00    +0.000 F 
ATOM     27  C   UNL     1       6.315   6.257  16.590  0.00  0.00    +0.000 A 
ATOM     28  C   UNL     1       5.212   6.582  17.383  0.00  0.00    +0.000 A 
ENDBRANCH  21  22
BRANCH  21  29
ATOM     29  C   UNL     1       2.308   5.133  19.195  0.00  0.00    +0.000 A 
ATOM     30  C   UNL     1       1.331   4.185  18.827  0.00  0.00    +0.000 A 
ATOM     31  C   UNL     1       0.856   3.245  19.743  0.00  0.00    +0.000 A 
ATOM     32  C   UNL     1       1.356   3.242  21.036  0.00  0.00    +0.000 A 
ATOM     33  F   UNL     1       0.895   2.347  21.918  0.00  0.00    +0.000 F 
ATOM     34  C   UNL     1       2.328   4.151  21.428  0.00  0.00    +0.000 A 
ATOM     35  C   UNL     1       2.808   5.094  20.511  0.00  0.00    +0.000 A 
ENDBRANCH  21  29
ENDBRANCH  20  21
ENDBRANCH  19  20
ENDBRANCH   1  19
TORSDOF 9
ENDMDL
