MODEL 1
REMARK VINA RESULT:      -7.7      0.000      0.000
REMARK  Name = 
REMARK  5 active torsions:
REMARK  status: ('A' for Active; 'I' for Inactive)
REMARK    1  A    between atoms: C_2  and  O_3
REMARK    2  A    between atoms: C_2  and  C_4
REMARK    3  A    between atoms: C_7  and  N_8
REMARK    4  A    between atoms: N_8  and  N_9
REMARK    5  A    between atoms: C_10  and  C_11
REMARK                            x       y       z     vdW  Elec       q    Type
REMARK                         _______ _______ _______ _____ _____    ______ ____
ROOT
ATOM      1  N   UNL     1       4.201   4.451  19.067  0.00  0.00    +0.000 N 
ATOM      2  H   UNL     1       4.536   3.748  19.725  0.00  0.00    +0.000 HD
ENDROOT
BRANCH   1   6
ATOM      3  C   UNL     1       6.364   4.697  15.432  0.00  0.00    +0.000 A 
ATOM      4  C   UNL     1       5.141   4.018  15.483  0.00  0.00    +0.000 A 
ATOM      5  C   UNL     1       4.443   3.925  16.696  0.00  0.00    +0.000 A 
ATOM      6  C   UNL     1       4.957   4.494  17.873  0.00  0.00    +0.000 A 
ATOM      7  C   UNL     1       6.171   5.186  17.796  0.00  0.00    +0.000 A 
ATOM      8  C   UNL     1       6.870   5.292  16.589  0.00  0.00    +0.000 A 
BRANCH   3  10
ATOM      9  O   UNL     1       8.074   5.630  14.061  0.00  0.00    +0.000 OA
ATOM     10  C   UNL     1       7.120   4.876  14.167  0.00  0.00    +0.000 C 
BRANCH  10  11
ATOM     11  O   UNL     1       6.683   4.102  13.152  0.00  0.00    +0.000 OA
ATOM     12  H   UNL     1       7.298   3.396  12.878  0.00  0.00    +0.000 HD
ENDBRANCH  10  11
ENDBRANCH   3  10
ENDBRANCH   1   6
BRANCH   1  13
ATOM     13  N   UNL     1       3.759   5.641  19.576  0.00  0.00    +0.000 NA
ATOM     14  C   UNL     1       2.919   6.265  18.811  0.00  0.00    +0.000 C 
BRANCH  14  15
ATOM     15  C   UNL     1       2.248   7.516  19.219  0.00  0.00    +0.000 A 
ATOM     16  C   UNL     1       2.002   8.484  18.244  0.00  0.00    +0.000 A 
ATOM     17  C   UNL     1       1.218   9.598  18.558  0.00  0.00    +0.000 A 
ATOM     18  C   UNL     1       0.682   9.782  19.826  0.00  0.00    +0.000 A 
ATOM     19  N   UNL     1      -0.141  10.822  20.045  0.00  0.00    +0.000 NA
ATOM     20  C   UNL     1      -0.636  10.986  21.291  0.00  0.00    +0.000 A 
ATOM     21  C   UNL     1      -0.298  10.184  22.365  0.00  0.00    +0.000 A 
ATOM     22  C   UNL     1       0.546   9.104  22.131  0.00  0.00    +0.000 A 
ATOM     23  C   UNL     1       1.020   8.854  20.836  0.00  0.00    +0.000 A 
ATOM     24  C   UNL     1       1.789   7.716  20.524  0.00  0.00    +0.000 A 
ENDBRANCH  14  15
ENDBRANCH   1  13
TORSDOF 5
ENDMDL
MODEL 2
REMARK VINA RESULT:      -7.7      1.040      1.646
REMARK  Name = 
REMARK  5 active torsions:
REMARK  status: ('A' for Active; 'I' for Inactive)
REMARK    1  A    between atoms: C_2  and  O_3
REMARK    2  A    between atoms: C_2  and  C_4
REMARK    3  A    between atoms: C_7  and  N_8
REMARK    4  A    between atoms: N_8  and  N_9
REMARK    5  A    between atoms: C_10  and  C_11
REMARK                            x       y       z     vdW  Elec       q    Type
REMARK                         _______ _______ _______ _____ _____    ______ ____
ROOT
ATOM      1  N   UNL     1       3.097   5.237  18.711  0.00  0.00    +0.000 N 
ATOM      2  H   UNL     1       3.533   4.901  19.568  0.00  0.00    +0.000 HD
ENDROOT
BRANCH   1   6
ATOM      3  C   UNL     1       5.750   4.913  15.424  0.00  0.00    +0.000 A 
ATOM      4  C   UNL     1       5.530   6.153  16.035  0.00  0.00    +0.000 A 
ATOM      5  C   UNL     1       4.634   6.253  17.110  0.00  0.00    +0.000 A 
ATOM      6  C   UNL     1       3.939   5.127  17.580  0.00  0.00    +0.000 A 
ATOM      7  C   UNL     1       4.189   3.893  16.968  0.00  0.00    +0.000 A 
ATOM      8  C   UNL     1       5.087   3.781  15.902  0.00  0.00    +0.000 A 
BRANCH   3  10
ATOM      9  O   UNL     1       6.594   3.902  13.438  0.00  0.00    +0.000 OA
ATOM     10  C   UNL     1       6.728   4.735  14.320  0.00  0.00    +0.000 C 
BRANCH  10  11
ATOM     11  O   UNL     1       7.760   5.603  14.356  0.00  0.00    +0.000 OA
ATOM     12  H   UNL     1       8.420   5.431  15.055  0.00  0.00    +0.000 HD
ENDBRANCH  10  11
ENDBRANCH   3  10
ENDBRANCH   1   6
BRANCH   1  13
ATOM     13  N   UNL     1       2.298   6.344  18.795  0.00  0.00    +0.000 NA
ATOM     14  C   UNL     1       2.328   6.934  19.949  0.00  0.00    +0.000 C 
BRANCH  14  15
ATOM     15  C   UNL     1       1.615   8.200  20.216  0.00  0.00    +0.000 A 
ATOM     16  C   UNL     1       1.422   9.086  19.156  0.00  0.00    +0.000 A 
ATOM     17  C   UNL     1       0.605  10.207  19.331  0.00  0.00    +0.000 A 
ATOM     18  C   UNL     1      -0.017  10.477  20.544  0.00  0.00    +0.000 A 
ATOM     19  N   UNL     1      -0.866  11.515  20.628  0.00  0.00    +0.000 NA
ATOM     20  C   UNL     1      -1.445  11.764  21.823  0.00  0.00    +0.000 A 
ATOM     21  C   UNL     1      -1.169  11.052  22.974  0.00  0.00    +0.000 A 
ATOM     22  C   UNL     1      -0.297   9.972  22.880  0.00  0.00    +0.000 A 
ATOM     23  C   UNL     1       0.266   9.634  21.641  0.00  0.00    +0.000 A 
ATOM     24  C   UNL     1       1.068   8.489  21.469  0.00  0.00    +0.000 A 
ENDBRANCH  14  15
ENDBRANCH   1  13
TORSDOF 5
ENDMDL
MODEL 3
REMARK VINA RESULT:      -7.7      1.200      1.779
REMARK  Name = 
REMARK  5 active torsions:
REMARK  status: ('A' for Active; 'I' for Inactive)
REMARK    1  A    between atoms: C_2  and  O_3
REMARK    2  A    between atoms: C_2  and  C_4
REMARK    3  A    between atoms: C_7  and  N_8
REMARK    4  A    between atoms: N_8  and  N_9
REMARK    5  A    between atoms: C_10  and  C_11
REMARK                            x       y       z     vdW  Elec       q    Type
REMARK                         _______ _______ _______ _____ _____    ______ ____
ROOT
ATOM      1  N   UNL     1       3.212   5.799  19.102  0.00  0.00    +0.000 N 
ATOM      2  H   UNL     1       3.586   5.454  19.984  0.00  0.00    +0.000 HD
ENDROOT
BRANCH   1   6
ATOM      3  C   UNL     1       5.603   4.935  15.712  0.00  0.00    +0.000 A 
ATOM      4  C   UNL     1       5.125   3.899  16.524  0.00  0.00    +0.000 A 
ATOM      5  C   UNL     1       4.351   4.197  17.655  0.00  0.00    +0.000 A 
ATOM      6  C   UNL     1       4.054   5.525  17.999  0.00  0.00    +0.000 A 
ATOM      7  C   UNL     1       4.525   6.545  17.164  0.00  0.00    +0.000 A 
ATOM      8  C   UNL     1       5.289   6.258  16.028  0.00  0.00    +0.000 A 
BRANCH   3  10
ATOM      9  O   UNL     1       5.997   3.926  13.590  0.00  0.00    +0.000 OA
ATOM     10  C   UNL     1       6.379   4.678  14.472  0.00  0.00    +0.000 C 
BRANCH  10  11
ATOM     11  O   UNL     1       7.528   5.380  14.389  0.00  0.00    +0.000 OA
ATOM     12  H   UNL     1       7.430   6.294  14.064  0.00  0.00    +0.000 HD
ENDBRANCH  10  11
ENDBRANCH   3  10
ENDBRANCH   1   6
BRANCH   1  13
ATOM     13  N   UNL     1       2.559   7.000  19.113  0.00  0.00    +0.000 NA
ATOM     14  C   UNL     1       1.909   7.240  20.209  0.00  0.00    +0.000 C 
BRANCH  14  15
ATOM     15  C   UNL     1       1.221   8.522  20.463  0.00  0.00    +0.000 A 
ATOM     16  C   UNL     1       1.112   9.434  19.411  0.00  0.00    +0.000 A 
ATOM     17  C   UNL     1       0.320  10.576  19.565  0.00  0.00    +0.000 A 
ATOM     18  C   UNL     1      -0.358  10.842  20.748  0.00  0.00    +0.000 A 
ATOM     19  N   UNL     1      -1.179  11.904  20.808  0.00  0.00    +0.000 NA
ATOM     20  C   UNL     1      -1.814  12.149  21.974  0.00  0.00    +0.000 A 
ATOM     21  C   UNL     1      -1.622  11.408  23.124  0.00  0.00    +0.000 A 
ATOM     22  C   UNL     1      -0.779  10.304  23.055  0.00  0.00    +0.000 A 
ATOM     23  C   UNL     1      -0.160   9.971  21.842  0.00  0.00    +0.000 A 
ATOM     24  C   UNL     1       0.616   8.806  21.690  0.00  0.00    +0.000 A 
ENDBRANCH  14  15
ENDBRANCH   1  13
TORSDOF 5
ENDMDL
MODEL 4
REMARK VINA RESULT:      -7.5      1.495      2.443
REMARK  Name = 
REMARK  5 active torsions:
REMARK  status: ('A' for Active; 'I' for Inactive)
REMARK    1  A    between atoms: C_2  and  O_3
REMARK    2  A    between atoms: C_2  and  C_4
REMARK    3  A    between atoms: C_7  and  N_8
REMARK    4  A    between atoms: N_8  and  N_9
REMARK    5  A    between atoms: C_10  and  C_11
REMARK                            x       y       z     vdW  Elec       q    Type
REMARK                         _______ _______ _______ _____ _____    ______ ____
ROOT
ATOM      1  N   UNL     1       2.915   6.082  20.018  0.00  0.00    +0.000 N 
ATOM      2  H   UNL     1       3.267   5.903  20.958  0.00  0.00    +0.000 HD
ENDROOT
BRANCH   1   6
ATOM      3  C   UNL     1       5.818   5.304  17.032  0.00  0.00    +0.000 A 
ATOM      4  C   UNL     1       4.827   6.269  16.820  0.00  0.00    +0.000 A 
ATOM      5  C   UNL     1       3.859   6.505  17.807  0.00  0.00    +0.000 A 
ATOM      6  C   UNL     1       3.857   5.777  19.008  0.00  0.00    +0.000 A 
ATOM      7  C   UNL     1       4.868   4.830  19.208  0.00  0.00    +0.000 A 
ATOM      8  C   UNL     1       5.844   4.594  18.234  0.00  0.00    +0.000 A 
BRANCH   3  10
ATOM      9  O   UNL     1       6.836   5.397  14.880  0.00  0.00    +0.000 OA
ATOM     10  C   UNL     1       6.902   5.050  16.048  0.00  0.00    +0.000 C 
BRANCH  10  11
ATOM     11  O   UNL     1       7.984   4.436  16.570  0.00  0.00    +0.000 OA
ATOM     12  H   UNL     1       8.762   4.401  15.982  0.00  0.00    +0.000 HD
ENDBRANCH  10  11
ENDBRANCH   3  10
ENDBRANCH   1   6
BRANCH   1  13
ATOM     13  N   UNL     1       2.126   7.183  19.832  0.00  0.00    +0.000 NA
ATOM     14  C   UNL     1       1.685   7.711  20.931  0.00  0.00    +0.000 C 
BRANCH  14  15
ATOM     15  C   UNL     1       0.900   8.962  20.954  0.00  0.00    +0.000 A 
ATOM     16  C   UNL     1       0.765   9.681  19.765  0.00  0.00    +0.000 A 
ATOM     17  C   UNL     1      -0.111  10.769  19.711  0.00  0.00    +0.000 A 
ATOM     18  C   UNL     1      -0.847  11.172  20.817  0.00  0.00    +0.000 A 
ATOM     19  N   UNL     1      -1.743  12.165  20.682  0.00  0.00    +0.000 NA
ATOM     20  C   UNL     1      -2.435  12.547  21.777  0.00  0.00    +0.000 A 
ATOM     21  C   UNL     1      -2.232  12.018  23.038  0.00  0.00    +0.000 A 
ATOM     22  C   UNL     1      -1.312  10.984  23.170  0.00  0.00    +0.000 A 
ATOM     23  C   UNL     1      -0.628  10.507  22.044  0.00  0.00    +0.000 A 
ATOM     24  C   UNL     1       0.233   9.394  22.104  0.00  0.00    +0.000 A 
ENDBRANCH  14  15
ENDBRANCH   1  13
TORSDOF 5
ENDMDL
MODEL 5
REMARK VINA RESULT:      -7.5      4.753      8.654
REMARK  Name = 
REMARK  5 active torsions:
REMARK  status: ('A' for Active; 'I' for Inactive)
REMARK    1  A    between atoms: C_2  and  O_3
REMARK    2  A    between atoms: C_2  and  C_4
REMARK    3  A    between atoms: C_7  and  N_8
REMARK    4  A    between atoms: N_8  and  N_9
REMARK    5  A    between atoms: C_10  and  C_11
REMARK                            x       y       z     vdW  Elec       q    Type
REMARK                         _______ _______ _______ _____ _____    ______ ____
ROOT
ATOM      1  N   UNL     1       1.746  10.322  17.860  0.00  0.00    +0.000 N 
ATOM      2  H   UNL     1       2.530  10.939  17.656  0.00  0.00    +0.000 HD
ENDROOT
BRANCH   1   6
ATOM      3  C   UNL     1      -0.137  11.157  21.563  0.00  0.00    +0.000 A 
ATOM      4  C   UNL     1       0.617  12.142  20.914  0.00  0.00    +0.000 A 
ATOM      5  C   UNL     1       1.252  11.849  19.699  0.00  0.00    +0.000 A 
ATOM      6  C   UNL     1       1.157  10.573  19.121  0.00  0.00    +0.000 A 
ATOM      7  C   UNL     1       0.382   9.608  19.775  0.00  0.00    +0.000 A 
ATOM      8  C   UNL     1      -0.264   9.893  20.983  0.00  0.00    +0.000 A 
BRANCH   3  10
ATOM      9  O   UNL     1      -1.074  12.549  23.254  0.00  0.00    +0.000 OA
ATOM     10  C   UNL     1      -0.878  11.425  22.821  0.00  0.00    +0.000 C 
BRANCH  10  11
ATOM     11  O   UNL     1      -1.351  10.316  23.427  0.00  0.00    +0.000 OA
ATOM     12  H   UNL     1      -1.908   9.745  22.865  0.00  0.00    +0.000 HD
ENDBRANCH  10  11
ENDBRANCH   3  10
ENDBRANCH   1   6
BRANCH   1  13
ATOM     13  N   UNL     1       1.840   9.018  17.458  0.00  0.00    +0.000 NA
ATOM     14  C   UNL     1       2.854   8.382  17.956  0.00  0.00    +0.000 C 
BRANCH  14  15
ATOM     15  C   UNL     1       3.081   6.940  17.726  0.00  0.00    +0.000 A 
ATOM     16  C   UNL     1       4.325   6.535  17.240  0.00  0.00    +0.000 A 
ATOM     17  C   UNL     1       4.632   5.173  17.176  0.00  0.00    +0.000 A 
ATOM     18  C   UNL     1       3.724   4.199  17.572  0.00  0.00    +0.000 A 
ATOM     19  N   UNL     1       4.107   2.910  17.578  0.00  0.00    +0.000 NA
ATOM     20  C   UNL     1       3.200   1.982  17.953  0.00  0.00    +0.000 A 
ATOM     21  C   UNL     1       1.887   2.274  18.271  0.00  0.00    +0.000 A 
ATOM     22  C   UNL     1       1.499   3.610  18.273  0.00  0.00    +0.000 A 
ATOM     23  C   UNL     1       2.431   4.610  17.963  0.00  0.00    +0.000 A 
ATOM     24  C   UNL     1       2.119   5.980  18.054  0.00  0.00    +0.000 A 
ENDBRANCH  14  15
ENDBRANCH   1  13
TORSDOF 5
ENDMDL
MODEL 6
REMARK VINA RESULT:      -7.5      5.187      9.034
REMARK  Name = 
REMARK  5 active torsions:
REMARK  status: ('A' for Active; 'I' for Inactive)
REMARK    1  A    between atoms: C_2  and  O_3
REMARK    2  A    between atoms: C_2  and  C_4
REMARK    3  A    between atoms: C_7  and  N_8
REMARK    4  A    between atoms: N_8  and  N_9
REMARK    5  A    between atoms: C_10  and  C_11
REMARK                            x       y       z     vdW  Elec       q    Type
REMARK                         _______ _______ _______ _____ _____    ______ ____
ROOT
ATOM      1  N   UNL     1       1.037  10.301  18.287  0.00  0.00    +0.000 N 
ATOM      2  H   UNL     1       1.513  10.585  19.142  0.00  0.00    +0.000 HD
ENDROOT
BRANCH   1   6
ATOM      3  C   UNL     1      -3.066  11.358  18.202  0.00  0.00    +0.000 A 
ATOM      4  C   UNL     1      -2.162  12.091  18.981  0.00  0.00    +0.000 A 
ATOM      5  C   UNL     1      -0.810  11.720  19.018  0.00  0.00    +0.000 A 
ATOM      6  C   UNL     1      -0.343  10.612  18.292  0.00  0.00    +0.000 A 
ATOM      7  C   UNL     1      -1.258   9.905  17.505  0.00  0.00    +0.000 A 
ATOM      8  C   UNL     1      -2.607  10.272  17.454  0.00  0.00    +0.000 A 
BRANCH   3  10
ATOM      9  O   UNL     1      -5.292  11.121  17.387  0.00  0.00    +0.000 OA
ATOM     10  C   UNL     1      -4.497  11.736  18.080  0.00  0.00    +0.000 C 
BRANCH  10  11
ATOM     11  O   UNL     1      -4.850  12.798  18.833  0.00  0.00    +0.000 OA
ATOM     12  H   UNL     1      -4.449  13.646  18.564  0.00  0.00    +0.000 HD
ENDBRANCH  10  11
ENDBRANCH   3  10
ENDBRANCH   1   6
BRANCH   1  13
ATOM     13  N   UNL     1       1.414   9.120  17.710  0.00  0.00    +0.000 NA
ATOM     14  C   UNL     1       2.201   8.398  18.446  0.00  0.00    +0.000 C 
BRANCH  14  15
ATOM     15  C   UNL     1       2.642   7.046  18.049  0.00  0.00    +0.000 A 
ATOM     16  C   UNL     1       3.920   6.899  17.507  0.00  0.00    +0.000 A 
ATOM     17  C   UNL     1       4.434   5.618  17.283  0.00  0.00    +0.000 A 
ATOM     18  C   UNL     1       3.700   4.475  17.573  0.00  0.00    +0.000 A 
ATOM     19  N   UNL     1       4.279   3.271  17.427  0.00  0.00    +0.000 NA
ATOM     20  C   UNL     1       3.539   2.175  17.702  0.00  0.00    +0.000 A 
ATOM     21  C   UNL     1       2.206   2.218  18.065  0.00  0.00    +0.000 A 
ATOM     22  C   UNL     1       1.615   3.467  18.225  0.00  0.00    +0.000 A 
ATOM     23  C   UNL     1       2.371   4.630  18.023  0.00  0.00    +0.000 A 
ATOM     24  C   UNL     1       1.852   5.915  18.274  0.00  0.00    +0.000 A 
ENDBRANCH  14  15
ENDBRANCH   1  13
TORSDOF 5
ENDMDL
MODEL 7
REMARK VINA RESULT:      -7.5      6.470      7.895
REMARK  Name = 
REMARK  5 active torsions:
REMARK  status: ('A' for Active; 'I' for Inactive)
REMARK    1  A    between atoms: C_2  and  O_3
REMARK    2  A    between atoms: C_2  and  C_4
REMARK    3  A    between atoms: C_7  and  N_8
REMARK    4  A    between atoms: N_8  and  N_9
REMARK    5  A    between atoms: C_10  and  C_11
REMARK                            x       y       z     vdW  Elec       q    Type
REMARK                         _______ _______ _______ _____ _____    ______ ____
ROOT
ATOM      1  N   UNL     1       7.490   7.284  17.051  0.00  0.00    +0.000 N 
ATOM      2  H   UNL     1       7.628   6.982  16.088  0.00  0.00    +0.000 HD
ENDROOT
BRANCH   1   6
ATOM      3  C   UNL     1       4.102   5.391  18.752  0.00  0.00    +0.000 A 
ATOM      4  C   UNL     1       3.949   6.310  17.706  0.00  0.00    +0.000 A 
ATOM      5  C   UNL     1       5.076   6.945  17.164  0.00  0.00    +0.000 A 
ATOM      6  C   UNL     1       6.363   6.686  17.662  0.00  0.00    +0.000 A 
ATOM      7  C   UNL     1       6.496   5.750  18.694  0.00  0.00    +0.000 A 
ATOM      8  C   UNL     1       5.380   5.104  19.235  0.00  0.00    +0.000 A 
BRANCH   3  10
ATOM      9  O   UNL     1       2.007   5.194  19.869  0.00  0.00    +0.000 OA
ATOM     10  C   UNL     1       2.954   4.646  19.328  0.00  0.00    +0.000 C 
BRANCH  10  11
ATOM     11  O   UNL     1       3.031   3.309  19.167  0.00  0.00    +0.000 OA
ATOM     12  H   UNL     1       3.857   2.990  18.757  0.00  0.00    +0.000 HD
ENDBRANCH  10  11
ENDBRANCH   3  10
ENDBRANCH   1   6
BRANCH   1  13
ATOM     13  N   UNL     1       7.750   8.592  17.353  0.00  0.00    +0.000 NA
ATOM     14  C   UNL     1       8.562   8.755  18.351  0.00  0.00    +0.000 C 
BRANCH  14  15
ATOM     15  C   UNL     1       9.048  10.084  18.774  0.00  0.00    +0.000 A 
ATOM     16  C   UNL     1       9.267  10.308  20.134  0.00  0.00    +0.000 A 
ATOM     17  C   UNL     1       9.888  11.489  20.550  0.00  0.00    +0.000 A 
ATOM     18  C   UNL     1      10.286  12.464  19.644  0.00  0.00    +0.000 A 
ATOM     19  N   UNL     1      10.964  13.535  20.091  0.00  0.00    +0.000 NA
ATOM     20  C   UNL     1      11.326  14.476  19.192  0.00  0.00    +0.000 A 
ATOM     21  C   UNL     1      10.988  14.429  17.852  0.00  0.00    +0.000 A 
ATOM     22  C   UNL     1      10.297  13.313  17.393  0.00  0.00    +0.000 A 
ATOM     23  C   UNL     1       9.969  12.279  18.281  0.00  0.00    +0.000 A 
ATOM     24  C   UNL     1       9.364  11.083  17.848  0.00  0.00    +0.000 A 
ENDBRANCH  14  15
ENDBRANCH   1  13
TORSDOF 5
ENDMDL
MODEL 8
REMARK VINA RESULT:      -7.4      1.012      1.302
REMARK  Name = 
REMARK  5 active torsions:
REMARK  status: ('A' for Active; 'I' for Inactive)
REMARK    1  A    between atoms: C_2  and  O_3
REMARK    2  A    between atoms: C_2  and  C_4
REMARK    3  A    between atoms: C_7  and  N_8
REMARK    4  A    between atoms: N_8  and  N_9
REMARK    5  A    between atoms: C_10  and  C_11
REMARK                            x       y       z     vdW  Elec       q    Type
REMARK                         _______ _______ _______ _____ _____    ______ ____
ROOT
ATOM      1  N   UNL     1       4.748   3.799  17.801  0.00  0.00    +0.000 N 
ATOM      2  H   UNL     1       5.082   2.997  18.334  0.00  0.00    +0.000 HD
ENDROOT
BRANCH   1   6
ATOM      3  C   UNL     1       7.017   4.753  14.353  0.00  0.00    +0.000 A 
ATOM      4  C   UNL     1       5.801   4.068  14.233  0.00  0.00    +0.000 A 
ATOM      5  C   UNL     1       5.068   3.740  15.383  0.00  0.00    +0.000 A 
ATOM      6  C   UNL     1       5.538   4.076  16.662  0.00  0.00    +0.000 A 
ATOM      7  C   UNL     1       6.746   4.778  16.759  0.00  0.00    +0.000 A 
ATOM      8  C   UNL     1       7.480   5.118  15.618  0.00  0.00    +0.000 A 
BRANCH   3  10
ATOM      9  O   UNL     1       8.764   5.933  13.243  0.00  0.00    +0.000 OA
ATOM     10  C   UNL     1       7.809   5.177  13.170  0.00  0.00    +0.000 C 
BRANCH  10  11
ATOM     11  O   UNL     1       7.401   4.622  12.010  0.00  0.00    +0.000 OA
ATOM     12  H   UNL     1       8.112   4.448  11.364  0.00  0.00    +0.000 HD
ENDBRANCH  10  11
ENDBRANCH   3  10
ENDBRANCH   1   6
BRANCH   1  13
ATOM     13  N   UNL     1       4.254   4.866  18.500  0.00  0.00    +0.000 NA
ATOM     14  C   UNL     1       3.635   5.739  17.768  0.00  0.00    +0.000 C 
BRANCH  14  15
ATOM     15  C   UNL     1       2.945   6.912  18.341  0.00  0.00    +0.000 A 
ATOM     16  C   UNL     1       2.717   8.015  17.515  0.00  0.00    +0.000 A 
ATOM     17  C   UNL     1       1.917   9.067  17.971  0.00  0.00    +0.000 A 
ATOM     18  C   UNL     1       1.347   9.057  19.237  0.00  0.00    +0.000 A 
ATOM     19  N   UNL     1       0.511  10.049  19.587  0.00  0.00    +0.000 NA
ATOM     20  C   UNL     1      -0.018  10.023  20.830  0.00  0.00    +0.000 A 
ATOM     21  C   UNL     1       0.297   9.070  21.780  0.00  0.00    +0.000 A 
ATOM     22  C   UNL     1       1.155   8.040  21.410  0.00  0.00    +0.000 A 
ATOM     23  C   UNL     1       1.665   7.989  20.105  0.00  0.00    +0.000 A 
ATOM     24  C   UNL     1       2.451   6.913  19.648  0.00  0.00    +0.000 A 
ENDBRANCH  14  15
ENDBRANCH   1  13
TORSDOF 5
ENDMDL
MODEL 9
REMARK VINA RESULT:      -7.4      0.651      1.222
REMARK  Name = 
REMARK  5 active torsions:
REMARK  status: ('A' for Active; 'I' for Inactive)
REMARK    1  A    between atoms: C_2  and  O_3
REMARK    2  A    between atoms: C_2  and  C_4
REMARK    3  A    between atoms: C_7  and  N_8
REMARK    4  A    between atoms: N_8  and  N_9
REMARK    5  A    between atoms: C_10  and  C_11
REMARK                            x       y       z     vdW  Elec       q    Type
REMARK                         _______ _______ _______ _____ _____    ______ ____
ROOT
ATOM      1  N   UNL     1       4.787   4.524  18.557  0.00  0.00    +0.000 N 
ATOM      2  H   UNL     1       5.319   3.902  19.163  0.00  0.00    +0.000 HD
ENDROOT
BRANCH   1   6
ATOM      3  C   UNL     1       6.581   4.796  14.728  0.00  0.00    +0.000 A 
ATOM      4  C   UNL     1       7.213   5.351  15.847  0.00  0.00    +0.000 A 
ATOM      5  C   UNL     1       6.601   5.272  17.106  0.00  0.00    +0.000 A 
ATOM      6  C   UNL     1       5.351   4.655  17.267  0.00  0.00    +0.000 A 
ATOM      7  C   UNL     1       4.744   4.089  16.139  0.00  0.00    +0.000 A 
ATOM      8  C   UNL     1       5.351   4.153  14.880  0.00  0.00    +0.000 A 
BRANCH   3  10
ATOM      9  O   UNL     1       8.093   5.571  13.058  0.00  0.00    +0.000 OA
ATOM     10  C   UNL     1       7.205   4.798  13.381  0.00  0.00    +0.000 C 
BRANCH  10  11
ATOM     11  O   UNL     1       6.730   3.844  12.554  0.00  0.00    +0.000 OA
ATOM     12  H   UNL     1       7.376   3.497  11.910  0.00  0.00    +0.000 HD
ENDBRANCH  10  11
ENDBRANCH   3  10
ENDBRANCH   1   6
BRANCH   1  13
ATOM     13  N   UNL     1       4.234   5.642  19.119  0.00  0.00    +0.000 NA
ATOM     14  C   UNL     1       3.395   6.262  18.350  0.00  0.00    +0.000 C 
BRANCH  14  15
ATOM     15  C   UNL     1       2.616   7.433  18.803  0.00  0.00    +0.000 A 
ATOM     16  C   UNL     1       2.338   8.441  17.878  0.00  0.00    +0.000 A 
ATOM     17  C   UNL     1       1.460   9.473  18.223  0.00  0.00    +0.000 A 
ATOM     18  C   UNL     1       0.861   9.537  19.474  0.00  0.00    +0.000 A 
ATOM     19  N   UNL     1      -0.046  10.498  19.718  0.00  0.00    +0.000 NA
ATOM     20  C   UNL     1      -0.602  10.546  20.948  0.00  0.00    +0.000 A 
ATOM     21  C   UNL     1      -0.248   9.704  21.986  0.00  0.00    +0.000 A 
ATOM     22  C   UNL     1       0.683   8.705  21.725  0.00  0.00    +0.000 A 
ATOM     23  C   UNL     1       1.227   8.573  20.440  0.00  0.00    +0.000 A 
ATOM     24  C   UNL     1       2.091   7.516  20.095  0.00  0.00    +0.000 A 
ENDBRANCH  14  15
ENDBRANCH   1  13
TORSDOF 5
ENDMDL
