MODEL 1
REMARK VINA RESULT:      -6.8      0.000      0.000
REMARK  Name = 
REMARK  6 active torsions:
REMARK  status: ('A' for Active; 'I' for Inactive)
REMARK    1  A    between atoms: C_1  and  C_2
REMARK    2  A    between atoms: N_7  and  C_8
REMARK    3  A    between atoms: C_8  and  C_9
REMARK    4  A    between atoms: C_9  and  O_10
REMARK    5  A    between atoms: O_10  and  C_11
REMARK    6  A    between atoms: C_11  and  C_12
REMARK                            x       y       z     vdW  Elec       q    Type
REMARK                         _______ _______ _______ _____ _____    ______ ____
ROOT
ATOM      1  C   UNL     1       0.711   3.233  19.740  0.00  0.00    +0.000 C 
ATOM      2  C   UNL     1       1.831   3.990  20.430  0.00  0.00    +0.000 C 
ATOM      3  O   UNL     1       2.657   4.668  19.458  0.00  0.00    +0.000 OA
ATOM      4  C   UNL     1       3.854   3.901  19.237  0.00  0.00    +0.000 C 
ATOM      5  C   UNL     1       5.066   4.836  19.295  0.00  0.00    +0.000 C 
ATOM      6  C   UNL     1       5.144   5.743  18.067  0.00  0.00    +0.000 C 
ATOM      7  N   UNL     1       5.060   5.013  16.794  0.00  0.00    +0.000 NA
ATOM      8  C   UNL     1       3.826   4.225  16.749  0.00  0.00    +0.000 C 
ATOM      9  C   UNL     1       3.745   3.201  17.880  0.00  0.00    +0.000 C 
ATOM     10  N   UNL     1       3.901   2.972  20.318  0.00  0.00    +0.000 N 
ATOM     11  C   UNL     1       2.784   3.041  21.103  0.00  0.00    +0.000 C 
ATOM     12  O   UNL     1       2.604   2.408  22.126  0.00  0.00    +0.000 OA
ATOM     13  H   UNL     1       4.693   2.401  20.577  0.00  0.00    +0.000 HD
ENDROOT
BRANCH   7  14
ATOM     14  C   UNL     1       6.289   4.248  16.502  0.00  0.00    +0.000 C 
BRANCH  14  15
ATOM     15  C   UNL     1       7.178   4.835  15.387  0.00  0.00    +0.000 C 
BRANCH  15  16
ATOM     16  O   UNL     1       6.451   4.882  14.161  0.00  0.00    +0.000 OA
BRANCH  16  17
ATOM     17  C   UNL     1       6.113   3.577  13.688  0.00  0.00    +0.000 C 
BRANCH  17  18
ATOM     18  C   UNL     1       6.048   3.567  12.169  0.00  0.00    +0.000 C 
ATOM     19  F   UNL     1       6.681   2.467  11.682  0.00  0.00    +0.000 F 
ATOM     20  F   UNL     1       4.752   3.466  11.774  0.00  0.00    +0.000 F 
ENDBRANCH  17  18
ENDBRANCH  16  17
ENDBRANCH  15  16
ENDBRANCH  14  15
ENDBRANCH   7  14
TORSDOF 5
ENDMDL
MODEL 2
REMARK VINA RESULT:      -6.7      1.022      1.180
REMARK  Name = 
REMARK  6 active torsions:
REMARK  status: ('A' for Active; 'I' for Inactive)
REMARK    1  A    between atoms: C_1  and  C_2
REMARK    2  A    between atoms: N_7  and  C_8
REMARK    3  A    between atoms: C_8  and  C_9
REMARK    4  A    between atoms: C_9  and  O_10
REMARK    5  A    between atoms: O_10  and  C_11
REMARK    6  A    between atoms: C_11  and  C_12
REMARK                            x       y       z     vdW  Elec       q    Type
REMARK                         _______ _______ _______ _____ _____    ______ ____
ROOT
ATOM      1  C   UNL     1       0.836   2.176  19.086  0.00  0.00    +0.000 C 
ATOM      2  C   UNL     1       1.202   3.528  19.670  0.00  0.00    +0.000 C 
ATOM      3  O   UNL     1       1.938   4.313  18.707  0.00  0.00    +0.000 OA
ATOM      4  C   UNL     1       3.342   4.248  19.017  0.00  0.00    +0.000 C 
ATOM      5  C   UNL     1       3.929   5.663  18.980  0.00  0.00    +0.000 C 
ATOM      6  C   UNL     1       4.033   6.197  17.552  0.00  0.00    +0.000 C 
ATOM      7  N   UNL     1       4.722   5.280  16.632  0.00  0.00    +0.000 NA
ATOM      8  C   UNL     1       4.048   3.979  16.625  0.00  0.00    +0.000 C 
ATOM      9  C   UNL     1       4.025   3.325  18.005  0.00  0.00    +0.000 C 
ATOM     10  N   UNL     1       3.402   3.728  20.344  0.00  0.00    +0.000 N 
ATOM     11  C   UNL     1       2.168   3.374  20.813  0.00  0.00    +0.000 C 
ATOM     12  O   UNL     1       1.932   2.970  21.936  0.00  0.00    +0.000 OA
ATOM     13  H   UNL     1       4.216   3.718  20.942  0.00  0.00    +0.000 HD
ENDROOT
BRANCH   7  14
ATOM     14  C   UNL     1       6.176   5.219  16.883  0.00  0.00    +0.000 C 
BRANCH  14  15
ATOM     15  C   UNL     1       7.003   4.520  15.786  0.00  0.00    +0.000 C 
BRANCH  15  16
ATOM     16  O   UNL     1       6.544   4.928  14.498  0.00  0.00    +0.000 OA
BRANCH  16  17
ATOM     17  C   UNL     1       6.203   3.812  13.674  0.00  0.00    +0.000 C 
BRANCH  17  18
ATOM     18  C   UNL     1       6.708   4.030  12.256  0.00  0.00    +0.000 C 
ATOM     19  F   UNL     1       7.780   4.864  12.265  0.00  0.00    +0.000 F 
ATOM     20  F   UNL     1       7.149   2.848  11.749  0.00  0.00    +0.000 F 
ENDBRANCH  17  18
ENDBRANCH  16  17
ENDBRANCH  15  16
ENDBRANCH  14  15
ENDBRANCH   7  14
TORSDOF 5
ENDMDL
MODEL 3
REMARK VINA RESULT:      -6.7      1.660      1.936
REMARK  Name = 
REMARK  6 active torsions:
REMARK  status: ('A' for Active; 'I' for Inactive)
REMARK    1  A    between atoms: C_1  and  C_2
REMARK    2  A    between atoms: N_7  and  C_8
REMARK    3  A    between atoms: C_8  and  C_9
REMARK    4  A    between atoms: C_9  and  O_10
REMARK    5  A    between atoms: O_10  and  C_11
REMARK    6  A    between atoms: C_11  and  C_12
REMARK                            x       y       z     vdW  Elec       q    Type
REMARK                         _______ _______ _______ _____ _____    ______ ____
ROOT
ATOM      1  C   UNL     1       0.779   1.989  19.029  0.00  0.00    +0.000 C 
ATOM      2  C   UNL     1       0.805   3.311  19.775  0.00  0.00    +0.000 C 
ATOM      3  O   UNL     1       1.480   4.321  18.994  0.00  0.00    +0.000 OA
ATOM      4  C   UNL     1       2.824   4.477  19.483  0.00  0.00    +0.000 C 
ATOM      5  C   UNL     1       3.125   5.970  19.651  0.00  0.00    +0.000 C 
ATOM      6  C   UNL     1       3.288   6.672  18.303  0.00  0.00    +0.000 C 
ATOM      7  N   UNL     1       4.244   6.005  17.407  0.00  0.00    +0.000 NA
ATOM      8  C   UNL     1       3.842   4.612  17.194  0.00  0.00    +0.000 C 
ATOM      9  C   UNL     1       3.787   3.814  18.495  0.00  0.00    +0.000 C 
ATOM     10  N   UNL     1       2.830   3.831  20.755  0.00  0.00    +0.000 N 
ATOM     11  C   UNL     1       1.643   3.208  21.020  0.00  0.00    +0.000 C 
ATOM     12  O   UNL     1       1.361   2.644  22.061  0.00  0.00    +0.000 OA
ATOM     13  H   UNL     1       3.555   3.902  21.454  0.00  0.00    +0.000 HD
ENDROOT
BRANCH   7  14
ATOM     14  C   UNL     1       5.643   6.182  17.846  0.00  0.00    +0.000 C 
BRANCH  14  15
ATOM     15  C   UNL     1       6.683   6.254  16.711  0.00  0.00    +0.000 C 
BRANCH  15  16
ATOM     16  O   UNL     1       7.472   5.066  16.698  0.00  0.00    +0.000 OA
BRANCH  16  17
ATOM     17  C   UNL     1       7.057   4.159  15.675  0.00  0.00    +0.000 C 
BRANCH  17  18
ATOM     18  C   UNL     1       6.458   4.922  14.504  0.00  0.00    +0.000 C 
ATOM     19  F   UNL     1       7.366   5.020  13.498  0.00  0.00    +0.000 F 
ATOM     20  F   UNL     1       5.407   4.222  14.001  0.00  0.00    +0.000 F 
ENDBRANCH  17  18
ENDBRANCH  16  17
ENDBRANCH  15  16
ENDBRANCH  14  15
ENDBRANCH   7  14
TORSDOF 5
ENDMDL
MODEL 4
REMARK VINA RESULT:      -6.6      3.114      3.602
REMARK  Name = 
REMARK  6 active torsions:
REMARK  status: ('A' for Active; 'I' for Inactive)
REMARK    1  A    between atoms: C_1  and  C_2
REMARK    2  A    between atoms: N_7  and  C_8
REMARK    3  A    between atoms: C_8  and  C_9
REMARK    4  A    between atoms: C_9  and  O_10
REMARK    5  A    between atoms: O_10  and  C_11
REMARK    6  A    between atoms: C_11  and  C_12
REMARK                            x       y       z     vdW  Elec       q    Type
REMARK                         _______ _______ _______ _____ _____    ______ ____
ROOT
ATOM      1  C   UNL     1       0.460   2.531  19.551  0.00  0.00    +0.000 C 
ATOM      2  C   UNL     1       1.168   3.763  20.086  0.00  0.00    +0.000 C 
ATOM      3  O   UNL     1       1.938   4.398  19.042  0.00  0.00    +0.000 OA
ATOM      4  C   UNL     1       3.322   4.032  19.186  0.00  0.00    +0.000 C 
ATOM      5  C   UNL     1       4.186   5.293  19.078  0.00  0.00    +0.000 C 
ATOM      6  C   UNL     1       4.237   5.825  17.646  0.00  0.00    +0.000 C 
ATOM      7  N   UNL     1       4.606   4.804  16.654  0.00  0.00    +0.000 NA
ATOM      8  C   UNL     1       3.677   3.674  16.728  0.00  0.00    +0.000 C 
ATOM      9  C   UNL     1       3.675   3.009  18.104  0.00  0.00    +0.000 C 
ATOM     10  N   UNL     1       3.422   3.482  20.499  0.00  0.00    +0.000 N 
ATOM     11  C   UNL     1       2.203   3.384  21.109  0.00  0.00    +0.000 C 
ATOM     12  O   UNL     1       2.018   3.014  22.253  0.00  0.00    +0.000 OA
ATOM     13  H   UNL     1       4.279   3.288  20.997  0.00  0.00    +0.000 HD
ENDROOT
BRANCH   7  14
ATOM     14  C   UNL     1       6.034   4.434  16.734  0.00  0.00    +0.000 C 
BRANCH  14  15
ATOM     15  C   UNL     1       6.940   5.076  15.665  0.00  0.00    +0.000 C 
BRANCH  15  16
ATOM     16  O   UNL     1       7.440   6.325  16.138  0.00  0.00    +0.000 OA
BRANCH  16  17
ATOM     17  C   UNL     1       7.599   6.335  17.558  0.00  0.00    +0.000 C 
BRANCH  17  18
ATOM     18  C   UNL     1       7.815   7.756  18.055  0.00  0.00    +0.000 C 
ATOM     19  F   UNL     1       8.755   7.769  19.036  0.00  0.00    +0.000 F 
ATOM     20  F   UNL     1       8.311   8.516  17.043  0.00  0.00    +0.000 F 
ENDBRANCH  17  18
ENDBRANCH  16  17
ENDBRANCH  15  16
ENDBRANCH  14  15
ENDBRANCH   7  14
TORSDOF 5
ENDMDL
MODEL 5
REMARK VINA RESULT:      -6.6      3.066      5.793
REMARK  Name = 
REMARK  6 active torsions:
REMARK  status: ('A' for Active; 'I' for Inactive)
REMARK    1  A    between atoms: C_1  and  C_2
REMARK    2  A    between atoms: N_7  and  C_8
REMARK    3  A    between atoms: C_8  and  C_9
REMARK    4  A    between atoms: C_9  and  O_10
REMARK    5  A    between atoms: O_10  and  C_11
REMARK    6  A    between atoms: C_11  and  C_12
REMARK                            x       y       z     vdW  Elec       q    Type
REMARK                         _______ _______ _______ _____ _____    ______ ____
ROOT
ATOM      1  C   UNL     1       7.959   5.965  19.268  0.00  0.00    +0.000 C 
ATOM      2  C   UNL     1       7.241   6.040  17.933  0.00  0.00    +0.000 C 
ATOM      3  O   UNL     1       5.837   6.319  18.128  0.00  0.00    +0.000 OA
ATOM      4  C   UNL     1       5.090   5.095  18.008  0.00  0.00    +0.000 C 
ATOM      5  C   UNL     1       3.885   5.332  17.092  0.00  0.00    +0.000 C 
ATOM      6  C   UNL     1       2.816   6.189  17.771  0.00  0.00    +0.000 C 
ATOM      7  N   UNL     1       2.423   5.692  19.098  0.00  0.00    +0.000 NA
ATOM      8  C   UNL     1       3.600   5.593  19.964  0.00  0.00    +0.000 C 
ATOM      9  C   UNL     1       4.658   4.644  19.405  0.00  0.00    +0.000 C 
ATOM     10  N   UNL     1       5.992   4.172  17.400  0.00  0.00    +0.000 N 
ATOM     11  C   UNL     1       7.243   4.700  17.248  0.00  0.00    +0.000 C 
ATOM     12  O   UNL     1       8.177   4.149  16.696  0.00  0.00    +0.000 OA
ATOM     13  H   UNL     1       5.747   3.274  17.007  0.00  0.00    +0.000 HD
ENDROOT
BRANCH   7  14
ATOM     14  C   UNL     1       1.611   4.461  19.019  0.00  0.00    +0.000 C 
BRANCH  14  15
ATOM     15  C   UNL     1       1.390   3.733  20.360  0.00  0.00    +0.000 C 
BRANCH  15  16
ATOM     16  O   UNL     1       2.002   2.446  20.320  0.00  0.00    +0.000 OA
BRANCH  16  17
ATOM     17  C   UNL     1       1.949   1.867  19.015  0.00  0.00    +0.000 C 
BRANCH  17  18
ATOM     18  C   UNL     1       3.321   1.351  18.609  0.00  0.00    +0.000 C 
ATOM     19  F   UNL     1       3.745   1.987  17.486  0.00  0.00    +0.000 F 
ATOM     20  F   UNL     1       4.221   1.654  19.581  0.00  0.00    +0.000 F 
ENDBRANCH  17  18
ENDBRANCH  16  17
ENDBRANCH  15  16
ENDBRANCH  14  15
ENDBRANCH   7  14
TORSDOF 5
ENDMDL
MODEL 6
REMARK VINA RESULT:      -6.6      1.302      1.600
REMARK  Name = 
REMARK  6 active torsions:
REMARK  status: ('A' for Active; 'I' for Inactive)
REMARK    1  A    between atoms: C_1  and  C_2
REMARK    2  A    between atoms: N_7  and  C_8
REMARK    3  A    between atoms: C_8  and  C_9
REMARK    4  A    between atoms: C_9  and  O_10
REMARK    5  A    between atoms: O_10  and  C_11
REMARK    6  A    between atoms: C_11  and  C_12
REMARK                            x       y       z     vdW  Elec       q    Type
REMARK                         _______ _______ _______ _____ _____    ______ ____
ROOT
ATOM      1  C   UNL     1       1.008   1.920  19.298  0.00  0.00    +0.000 C 
ATOM      2  C   UNL     1       1.002   3.318  19.889  0.00  0.00    +0.000 C 
ATOM      3  O   UNL     1       1.621   4.255  18.981  0.00  0.00    +0.000 OA
ATOM      4  C   UNL     1       2.969   4.512  19.413  0.00  0.00    +0.000 C 
ATOM      5  C   UNL     1       3.219   6.024  19.404  0.00  0.00    +0.000 C 
ATOM      6  C   UNL     1       3.324   6.574  17.981  0.00  0.00    +0.000 C 
ATOM      7  N   UNL     1       4.282   5.842  17.140  0.00  0.00    +0.000 NA
ATOM      8  C   UNL     1       3.928   4.421  17.096  0.00  0.00    +0.000 C 
ATOM      9  C   UNL     1       3.933   3.775  18.479  0.00  0.00    +0.000 C 
ATOM     10  N   UNL     1       3.030   4.015  20.749  0.00  0.00    +0.000 N 
ATOM     11  C   UNL     1       1.873   3.385  21.114  0.00  0.00    +0.000 C 
ATOM     12  O   UNL     1       1.637   2.934  22.219  0.00  0.00    +0.000 OA
ATOM     13  H   UNL     1       3.768   4.189  21.415  0.00  0.00    +0.000 HD
ENDROOT
BRANCH   7  14
ATOM     14  C   UNL     1       5.684   6.115  17.517  0.00  0.00    +0.000 C 
BRANCH  14  15
ATOM     15  C   UNL     1       6.746   5.541  16.559  0.00  0.00    +0.000 C 
BRANCH  15  16
ATOM     16  O   UNL     1       6.263   5.582  15.218  0.00  0.00    +0.000 OA
BRANCH  16  17
ATOM     17  C   UNL     1       7.167   4.960  14.303  0.00  0.00    +0.000 C 
BRANCH  17  18
ATOM     18  C   UNL     1       6.438   3.920  13.466  0.00  0.00    +0.000 C 
ATOM     19  F   UNL     1       5.095   4.098  13.566  0.00  0.00    +0.000 F 
ATOM     20  F   UNL     1       6.749   4.099  12.155  0.00  0.00    +0.000 F 
ENDBRANCH  17  18
ENDBRANCH  16  17
ENDBRANCH  15  16
ENDBRANCH  14  15
ENDBRANCH   7  14
TORSDOF 5
ENDMDL
MODEL 7
REMARK VINA RESULT:      -6.6      1.692      2.084
REMARK  Name = 
REMARK  6 active torsions:
REMARK  status: ('A' for Active; 'I' for Inactive)
REMARK    1  A    between atoms: C_1  and  C_2
REMARK    2  A    between atoms: N_7  and  C_8
REMARK    3  A    between atoms: C_8  and  C_9
REMARK    4  A    between atoms: C_9  and  O_10
REMARK    5  A    between atoms: O_10  and  C_11
REMARK    6  A    between atoms: C_11  and  C_12
REMARK                            x       y       z     vdW  Elec       q    Type
REMARK                         _______ _______ _______ _____ _____    ______ ____
ROOT
ATOM      1  C   UNL     1       2.214   5.383  19.112  0.00  0.00    +0.000 C 
ATOM      2  C   UNL     1       3.585   5.104  19.702  0.00  0.00    +0.000 C 
ATOM      3  O   UNL     1       4.621   5.631  18.846  0.00  0.00    +0.000 OA
ATOM      4  C   UNL     1       5.181   4.559  18.066  0.00  0.00    +0.000 C 
ATOM      5  C   UNL     1       6.710   4.642  18.125  0.00  0.00    +0.000 C 
ATOM      6  C   UNL     1       7.246   5.822  17.313  0.00  0.00    +0.000 C 
ATOM      7  N   UNL     1       6.734   5.865  15.935  0.00  0.00    +0.000 NA
ATOM      8  C   UNL     1       5.269   5.897  15.945  0.00  0.00    +0.000 C 
ATOM      9  C   UNL     1       4.663   4.674  16.630  0.00  0.00    +0.000 C 
ATOM     10  N   UNL     1       4.732   3.365  18.705  0.00  0.00    +0.000 N 
ATOM     11  C   UNL     1       3.865   3.626  19.729  0.00  0.00    +0.000 C 
ATOM     12  O   UNL     1       3.391   2.793  20.478  0.00  0.00    +0.000 OA
ATOM     13  H   UNL     1       5.079   2.432  18.533  0.00  0.00    +0.000 HD
ENDROOT
BRANCH   7  14
ATOM     14  C   UNL     1       7.320   4.810  15.084  0.00  0.00    +0.000 C 
BRANCH  14  15
ATOM     15  C   UNL     1       6.796   4.768  13.635  0.00  0.00    +0.000 C 
BRANCH  15  16
ATOM     16  O   UNL     1       5.946   3.636  13.459  0.00  0.00    +0.000 OA
BRANCH  16  17
ATOM     17  C   UNL     1       5.819   3.270  12.084  0.00  0.00    +0.000 C 
BRANCH  17  18
ATOM     18  C   UNL     1       6.577   1.980  11.809  0.00  0.00    +0.000 C 
ATOM     19  F   UNL     1       5.773   1.095  11.165  0.00  0.00    +0.000 F 
ATOM     20  F   UNL     1       7.612   2.237  10.967  0.00  0.00    +0.000 F 
ENDBRANCH  17  18
ENDBRANCH  16  17
ENDBRANCH  15  16
ENDBRANCH  14  15
ENDBRANCH   7  14
TORSDOF 5
ENDMDL
MODEL 8
REMARK VINA RESULT:      -6.5      1.496      1.904
REMARK  Name = 
REMARK  6 active torsions:
REMARK  status: ('A' for Active; 'I' for Inactive)
REMARK    1  A    between atoms: C_1  and  C_2
REMARK    2  A    between atoms: N_7  and  C_8
REMARK    3  A    between atoms: C_8  and  C_9
REMARK    4  A    between atoms: C_9  and  O_10
REMARK    5  A    between atoms: O_10  and  C_11
REMARK    6  A    between atoms: C_11  and  C_12
REMARK                            x       y       z     vdW  Elec       q    Type
REMARK                         _______ _______ _______ _____ _____    ______ ____
ROOT
ATOM      1  C   UNL     1       0.814   4.500  20.439  0.00  0.00    +0.000 C 
ATOM      2  C   UNL     1       1.726   3.390  19.949  0.00  0.00    +0.000 C 
ATOM      3  O   UNL     1       3.029   3.916  19.614  0.00  0.00    +0.000 OA
ATOM      4  C   UNL     1       3.122   4.076  18.187  0.00  0.00    +0.000 C 
ATOM      5  C   UNL     1       4.449   3.482  17.702  0.00  0.00    +0.000 C 
ATOM      6  C   UNL     1       5.641   4.349  18.109  0.00  0.00    +0.000 C 
ATOM      7  N   UNL     1       5.490   5.763  17.738  0.00  0.00    +0.000 NA
ATOM      8  C   UNL     1       4.262   6.307  18.323  0.00  0.00    +0.000 C 
ATOM      9  C   UNL     1       3.013   5.565  17.852  0.00  0.00    +0.000 C 
ATOM     10  N   UNL     1       2.030   3.325  17.660  0.00  0.00    +0.000 N 
ATOM     11  C   UNL     1       1.229   2.823  18.647  0.00  0.00    +0.000 C 
ATOM     12  O   UNL     1       0.272   2.092  18.473  0.00  0.00    +0.000 OA
ATOM     13  H   UNL     1       1.895   3.071  16.692  0.00  0.00    +0.000 HD
ENDROOT
BRANCH   7  14
ATOM     14  C   UNL     1       5.628   5.981  16.284  0.00  0.00    +0.000 C 
BRANCH  14  15
ATOM     15  C   UNL     1       6.613   5.034  15.568  0.00  0.00    +0.000 C 
BRANCH  15  16
ATOM     16  O   UNL     1       6.276   4.938  14.186  0.00  0.00    +0.000 OA
BRANCH  16  17
ATOM     17  C   UNL     1       6.138   3.581  13.762  0.00  0.00    +0.000 C 
BRANCH  17  18
ATOM     18  C   UNL     1       6.026   3.510  12.247  0.00  0.00    +0.000 C 
ATOM     19  F   UNL     1       6.658   2.402  11.782  0.00  0.00    +0.000 F 
ATOM     20  F   UNL     1       4.719   3.376  11.898  0.00  0.00    +0.000 F 
ENDBRANCH  17  18
ENDBRANCH  16  17
ENDBRANCH  15  16
ENDBRANCH  14  15
ENDBRANCH   7  14
TORSDOF 5
ENDMDL
MODEL 9
REMARK VINA RESULT:      -6.5      3.054      6.582
REMARK  Name = 
REMARK  6 active torsions:
REMARK  status: ('A' for Active; 'I' for Inactive)
REMARK    1  A    between atoms: C_1  and  C_2
REMARK    2  A    between atoms: N_7  and  C_8
REMARK    3  A    between atoms: C_8  and  C_9
REMARK    4  A    between atoms: C_9  and  O_10
REMARK    5  A    between atoms: O_10  and  C_11
REMARK    6  A    between atoms: C_11  and  C_12
REMARK                            x       y       z     vdW  Elec       q    Type
REMARK                         _______ _______ _______ _____ _____    ______ ____
ROOT
ATOM      1  C   UNL     1       5.506   3.838  13.485  0.00  0.00    +0.000 C 
ATOM      2  C   UNL     1       6.544   3.799  14.591  0.00  0.00    +0.000 C 
ATOM      3  O   UNL     1       5.912   3.582  15.871  0.00  0.00    +0.000 OA
ATOM      4  C   UNL     1       5.805   4.839  16.564  0.00  0.00    +0.000 C 
ATOM      5  C   UNL     1       6.290   4.658  18.007  0.00  0.00    +0.000 C 
ATOM      6  C   UNL     1       5.298   3.848  18.842  0.00  0.00    +0.000 C 
ATOM      7  N   UNL     1       3.921   4.359  18.773  0.00  0.00    +0.000 NA
ATOM      8  C   UNL     1       3.472   4.404  17.380  0.00  0.00    +0.000 C 
ATOM      9  C   UNL     1       4.348   5.306  16.512  0.00  0.00    +0.000 C 
ATOM     10  N   UNL     1       6.678   5.722  15.863  0.00  0.00    +0.000 N 
ATOM     11  C   UNL     1       7.211   5.138  14.748  0.00  0.00    +0.000 C 
ATOM     12  O   UNL     1       8.036   5.648  14.014  0.00  0.00    +0.000 OA
ATOM     13  H   UNL     1       6.985   6.630  16.180  0.00  0.00    +0.000 HD
ENDROOT
BRANCH   7  14
ATOM     14  C   UNL     1       3.754   5.626  19.515  0.00  0.00    +0.000 C 
BRANCH  14  15
ATOM     15  C   UNL     1       2.541   5.675  20.465  0.00  0.00    +0.000 C 
BRANCH  15  16
ATOM     16  O   UNL     1       2.161   4.351  20.835  0.00  0.00    +0.000 OA
BRANCH  16  17
ATOM     17  C   UNL     1       0.829   4.041  20.421  0.00  0.00    +0.000 C 
BRANCH  17  18
ATOM     18  C   UNL     1       0.804   2.716  19.675  0.00  0.00    +0.000 C 
ATOM     19  F   UNL     1       0.735   2.934  18.337  0.00  0.00    +0.000 F 
ATOM     20  F   UNL     1       1.971   2.054  19.894  0.00  0.00    +0.000 F 
ENDBRANCH  17  18
ENDBRANCH  16  17
ENDBRANCH  15  16
ENDBRANCH  14  15
ENDBRANCH   7  14
TORSDOF 5
ENDMDL
