MODEL 1
REMARK VINA RESULT:      -7.4      0.000      0.000
REMARK  Name = 
REMARK  9 active torsions:
REMARK  status: ('A' for Active; 'I' for Inactive)
REMARK    1  A    between atoms: C_1  and  N_2
REMARK    2  A    between atoms: N_2  and  C_3
REMARK    3  A    between atoms: N_2  and  C_4
REMARK    4  A    between atoms: C_4  and  C_5
REMARK    5  A    between atoms: C_10  and  O_11
REMARK    6  A    between atoms: C_10  and  C_16
REMARK    7  A    between atoms: O_11  and  C_12
REMARK    8  A    between atoms: C_12  and  C_13
REMARK    9  A    between atoms: C_20  and  O_21
REMARK                            x       y       z     vdW  Elec       q    Type
REMARK                         _______ _______ _______ _____ _____    ______ ____
ROOT
ATOM      1  C   UNL     1       3.259   5.600  18.272  0.00  0.00    +0.000 C 
ATOM      2  C   UNL     1       1.904   4.873  18.113  0.00  0.00    +0.000 C 
ATOM      3  C   UNL     1       1.945   3.400  18.495  0.00  0.00    +0.000 C 
ATOM      4  C   UNL     1       3.078   2.649  17.817  0.00  0.00    +0.000 C 
ATOM      5  C   UNL     1       4.417   3.346  18.030  0.00  0.00    +0.000 C 
ATOM      6  C   UNL     1       4.473   4.845  17.580  0.00  0.00    +0.000 C 
ENDROOT
BRANCH   6   7
ATOM      7  C   UNL     1       5.786   5.530  18.040  0.00  0.00    +0.000 A 
ATOM      8  C   UNL     1       6.382   6.563  17.283  0.00  0.00    +0.000 A 
ATOM      9  C   UNL     1       7.573   7.166  17.671  0.00  0.00    +0.000 A 
ATOM     10  C   UNL     1       8.217   6.763  18.835  0.00  0.00    +0.000 A 
ATOM     11  C   UNL     1       7.636   5.770  19.612  0.00  0.00    +0.000 A 
ATOM     12  C   UNL     1       6.436   5.176  19.236  0.00  0.00    +0.000 A 
BRANCH  11  13
ATOM     13  O   UNL     1       8.207   5.328  20.762  0.00  0.00    +0.000 OA
ATOM     14  H   UNL     1       7.519   5.284  21.448  0.00  0.00    +0.000 HD
ENDBRANCH  11  13
ENDBRANCH   6   7
BRANCH   1  15
ATOM     15  C   UNL     1       3.114   7.083  17.819  0.00  0.00    +0.000 C 
BRANCH  15  17
ATOM     16  C   UNL     1       1.996   7.898  19.837  0.00  0.00    +0.000 C 
ATOM     17  N   UNL     1       1.959   7.838  18.371  0.00  0.00    +0.000 NA
ATOM     18  C   UNL     1       1.999   9.216  17.853  0.00  0.00    +0.000 C 
ENDBRANCH  15  17
ENDBRANCH   1  15
BRANCH   6  19
ATOM     19  O   UNL     1       4.341   4.921  16.120  0.00  0.00    +0.000 OA
BRANCH  19  20
ATOM     20  C   UNL     1       5.208   4.021  15.392  0.00  0.00    +0.000 C 
BRANCH  20  21
ATOM     21  C   UNL     1       5.713   4.628  14.117  0.00  0.00    +0.000 C 
ATOM     22  C   UNL     1       7.166   4.797  13.749  0.00  0.00    +0.000 C 
ATOM     23  C   UNL     1       6.363   3.704  13.103  0.00  0.00    +0.000 C 
ENDBRANCH  20  21
ENDBRANCH  19  20
ENDBRANCH   6  19
TORSDOF 7
ENDMDL
MODEL 2
REMARK VINA RESULT:      -6.8      1.057      1.468
REMARK  Name = 
REMARK  9 active torsions:
REMARK  status: ('A' for Active; 'I' for Inactive)
REMARK    1  A    between atoms: C_1  and  N_2
REMARK    2  A    between atoms: N_2  and  C_3
REMARK    3  A    between atoms: N_2  and  C_4
REMARK    4  A    between atoms: C_4  and  C_5
REMARK    5  A    between atoms: C_10  and  O_11
REMARK    6  A    between atoms: C_10  and  C_16
REMARK    7  A    between atoms: O_11  and  C_12
REMARK    8  A    between atoms: C_12  and  C_13
REMARK    9  A    between atoms: C_20  and  O_21
REMARK                            x       y       z     vdW  Elec       q    Type
REMARK                         _______ _______ _______ _____ _____    ______ ____
ROOT
ATOM      1  C   UNL     1       3.244   5.648  18.580  0.00  0.00    +0.000 C 
ATOM      2  C   UNL     1       1.867   4.946  18.547  0.00  0.00    +0.000 C 
ATOM      3  C   UNL     1       1.900   3.498  19.016  0.00  0.00    +0.000 C 
ATOM      4  C   UNL     1       2.973   2.680  18.319  0.00  0.00    +0.000 C 
ATOM      5  C   UNL     1       4.337   3.356  18.408  0.00  0.00    +0.000 C 
ATOM      6  C   UNL     1       4.397   4.823  17.864  0.00  0.00    +0.000 C 
ENDROOT
BRANCH   6   7
ATOM      7  C   UNL     1       5.750   5.502  18.201  0.00  0.00    +0.000 A 
ATOM      8  C   UNL     1       6.537   5.072  19.293  0.00  0.00    +0.000 A 
ATOM      9  C   UNL     1       7.738   5.690  19.620  0.00  0.00    +0.000 A 
ATOM     10  C   UNL     1       8.204   6.762  18.869  0.00  0.00    +0.000 A 
ATOM     11  C   UNL     1       7.464   7.184  17.773  0.00  0.00    +0.000 A 
ATOM     12  C   UNL     1       6.269   6.557  17.432  0.00  0.00    +0.000 A 
BRANCH  11  13
ATOM     13  O   UNL     1       7.859   8.222  16.993  0.00  0.00    +0.000 OA
ATOM     14  H   UNL     1       7.209   8.940  17.086  0.00  0.00    +0.000 HD
ENDBRANCH  11  13
ENDBRANCH   6   7
BRANCH   1  15
ATOM     15  C   UNL     1       3.102   7.105  18.045  0.00  0.00    +0.000 C 
BRANCH  15  17
ATOM     16  C   UNL     1       1.898   8.061  19.948  0.00  0.00    +0.000 C 
ATOM     17  N   UNL     1       1.906   7.865  18.494  0.00  0.00    +0.000 NA
ATOM     18  C   UNL     1       1.915   9.189  17.851  0.00  0.00    +0.000 C 
ENDBRANCH  15  17
ENDBRANCH   1  15
BRANCH   6  19
ATOM     19  O   UNL     1       4.177   4.814  16.412  0.00  0.00    +0.000 OA
BRANCH  19  20
ATOM     20  C   UNL     1       5.087   3.968  15.673  0.00  0.00    +0.000 C 
BRANCH  20  21
ATOM     21  C   UNL     1       5.599   4.635  14.431  0.00  0.00    +0.000 C 
ATOM     22  C   UNL     1       7.054   4.840  14.090  0.00  0.00    +0.000 C 
ATOM     23  C   UNL     1       6.276   3.763  13.389  0.00  0.00    +0.000 C 
ENDBRANCH  20  21
ENDBRANCH  19  20
ENDBRANCH   6  19
TORSDOF 7
ENDMDL
MODEL 3
REMARK VINA RESULT:      -6.8      2.330      5.752
REMARK  Name = 
REMARK  9 active torsions:
REMARK  status: ('A' for Active; 'I' for Inactive)
REMARK    1  A    between atoms: C_1  and  N_2
REMARK    2  A    between atoms: N_2  and  C_3
REMARK    3  A    between atoms: N_2  and  C_4
REMARK    4  A    between atoms: C_4  and  C_5
REMARK    5  A    between atoms: C_10  and  O_11
REMARK    6  A    between atoms: C_10  and  C_16
REMARK    7  A    between atoms: O_11  and  C_12
REMARK    8  A    between atoms: C_12  and  C_13
REMARK    9  A    between atoms: C_20  and  O_21
REMARK                            x       y       z     vdW  Elec       q    Type
REMARK                         _______ _______ _______ _____ _____    ______ ____
ROOT
ATOM      1  C   UNL     1       4.665   6.049  17.496  0.00  0.00    +0.000 C 
ATOM      2  C   UNL     1       5.363   4.835  16.840  0.00  0.00    +0.000 C 
ATOM      3  C   UNL     1       4.406   3.856  16.176  0.00  0.00    +0.000 C 
ATOM      4  C   UNL     1       3.269   3.434  17.091  0.00  0.00    +0.000 C 
ATOM      5  C   UNL     1       2.553   4.640  17.686  0.00  0.00    +0.000 C 
ATOM      6  C   UNL     1       3.466   5.651  18.459  0.00  0.00    +0.000 C 
ENDROOT
BRANCH   6   7
ATOM      7  C   UNL     1       2.699   6.947  18.827  0.00  0.00    +0.000 A 
ATOM      8  C   UNL     1       2.121   7.122  20.105  0.00  0.00    +0.000 A 
ATOM      9  C   UNL     1       1.408   8.268  20.437  0.00  0.00    +0.000 A 
ATOM     10  C   UNL     1       1.245   9.289  19.508  0.00  0.00    +0.000 A 
ATOM     11  C   UNL     1       1.829   9.153  18.256  0.00  0.00    +0.000 A 
ATOM     12  C   UNL     1       2.558   8.015  17.924  0.00  0.00    +0.000 A 
BRANCH  11  13
ATOM     13  O   UNL     1       1.714  10.110  17.299  0.00  0.00    +0.000 OA
ATOM     14  H   UNL     1       1.759   9.679  16.428  0.00  0.00    +0.000 HD
ENDBRANCH  11  13
ENDBRANCH   6   7
BRANCH   1  15
ATOM     15  C   UNL     1       5.728   6.961  18.176  0.00  0.00    +0.000 C 
BRANCH  15  17
ATOM     16  C   UNL     1       7.847   7.980  17.500  0.00  0.00    +0.000 C 
ATOM     17  N   UNL     1       7.147   6.725  17.799  0.00  0.00    +0.000 NA
ATOM     18  C   UNL     1       7.836   6.070  18.923  0.00  0.00    +0.000 C 
ENDBRANCH  15  17
ENDBRANCH   1  15
BRANCH   6  19
ATOM     19  O   UNL     1       3.991   5.006  19.669  0.00  0.00    +0.000 OA
BRANCH  19  20
ATOM     20  C   UNL     1       3.411   3.713  19.959  0.00  0.00    +0.000 C 
BRANCH  20  21
ATOM     21  C   UNL     1       2.296   3.803  20.958  0.00  0.00    +0.000 C 
ATOM     22  C   UNL     1       0.892   3.300  20.742  0.00  0.00    +0.000 C 
ATOM     23  C   UNL     1       1.830   2.516  21.614  0.00  0.00    +0.000 C 
ENDBRANCH  20  21
ENDBRANCH  19  20
ENDBRANCH   6  19
TORSDOF 7
ENDMDL
MODEL 4
REMARK VINA RESULT:      -6.8      1.937      4.472
REMARK  Name = 
REMARK  9 active torsions:
REMARK  status: ('A' for Active; 'I' for Inactive)
REMARK    1  A    between atoms: C_1  and  N_2
REMARK    2  A    between atoms: N_2  and  C_3
REMARK    3  A    between atoms: N_2  and  C_4
REMARK    4  A    between atoms: C_4  and  C_5
REMARK    5  A    between atoms: C_10  and  O_11
REMARK    6  A    between atoms: C_10  and  C_16
REMARK    7  A    between atoms: O_11  and  C_12
REMARK    8  A    between atoms: C_12  and  C_13
REMARK    9  A    between atoms: C_20  and  O_21
REMARK                            x       y       z     vdW  Elec       q    Type
REMARK                         _______ _______ _______ _____ _____    ______ ____
ROOT
ATOM      1  C   UNL     1       3.832   6.177  17.309  0.00  0.00    +0.000 C 
ATOM      2  C   UNL     1       4.817   6.792  16.289  0.00  0.00    +0.000 C 
ATOM      3  C   UNL     1       5.203   5.850  15.157  0.00  0.00    +0.000 C 
ATOM      4  C   UNL     1       5.672   4.494  15.656  0.00  0.00    +0.000 C 
ATOM      5  C   UNL     1       4.664   3.873  16.617  0.00  0.00    +0.000 C 
ATOM      6  C   UNL     1       4.283   4.755  17.854  0.00  0.00    +0.000 C 
ENDROOT
BRANCH   6   7
ATOM      7  C   UNL     1       3.095   4.147  18.644  0.00  0.00    +0.000 A 
ATOM      8  C   UNL     1       1.918   3.721  17.990  0.00  0.00    +0.000 A 
ATOM      9  C   UNL     1       0.836   3.200  18.691  0.00  0.00    +0.000 A 
ATOM     10  C   UNL     1       0.888   3.080  20.074  0.00  0.00    +0.000 A 
ATOM     11  C   UNL     1       2.045   3.464  20.737  0.00  0.00    +0.000 A 
ATOM     12  C   UNL     1       3.136   3.971  20.038  0.00  0.00    +0.000 A 
BRANCH  11  13
ATOM     13  O   UNL     1       2.168   3.373  22.086  0.00  0.00    +0.000 OA
ATOM     14  H   UNL     1       1.556   2.685  22.403  0.00  0.00    +0.000 HD
ENDBRANCH  11  13
ENDBRANCH   6   7
BRANCH   1  15
ATOM     15  C   UNL     1       3.538   7.207  18.439  0.00  0.00    +0.000 C 
BRANCH  15  17
ATOM     16  C   UNL     1       1.770   7.896  19.984  0.00  0.00    +0.000 C 
ATOM     17  N   UNL     1       2.127   7.656  18.581  0.00  0.00    +0.000 NA
ATOM     18  C   UNL     1       1.951   8.914  17.839  0.00  0.00    +0.000 C 
ENDBRANCH  15  17
ENDBRANCH   1  15
BRANCH   6  19
ATOM     19  O   UNL     1       5.455   4.903  18.726  0.00  0.00    +0.000 OA
BRANCH  19  20
ATOM     20  C   UNL     1       6.654   4.261  18.234  0.00  0.00    +0.000 C 
BRANCH  20  21
ATOM     21  C   UNL     1       7.839   5.179  18.255  0.00  0.00    +0.000 C 
ATOM     22  C   UNL     1       7.774   6.681  18.365  0.00  0.00    +0.000 C 
ATOM     23  C   UNL     1       8.174   5.870  19.565  0.00  0.00    +0.000 C 
ENDBRANCH  20  21
ENDBRANCH  19  20
ENDBRANCH   6  19
TORSDOF 7
ENDMDL
MODEL 5
REMARK VINA RESULT:      -6.7      2.486      5.600
REMARK  Name = 
REMARK  9 active torsions:
REMARK  status: ('A' for Active; 'I' for Inactive)
REMARK    1  A    between atoms: C_1  and  N_2
REMARK    2  A    between atoms: N_2  and  C_3
REMARK    3  A    between atoms: N_2  and  C_4
REMARK    4  A    between atoms: C_4  and  C_5
REMARK    5  A    between atoms: C_10  and  O_11
REMARK    6  A    between atoms: C_10  and  C_16
REMARK    7  A    between atoms: O_11  and  C_12
REMARK    8  A    between atoms: C_12  and  C_13
REMARK    9  A    between atoms: C_20  and  O_21
REMARK                            x       y       z     vdW  Elec       q    Type
REMARK                         _______ _______ _______ _____ _____    ______ ____
ROOT
ATOM      1  C   UNL     1       4.677   6.057  17.432  0.00  0.00    +0.000 C 
ATOM      2  C   UNL     1       5.419   4.832  16.852  0.00  0.00    +0.000 C 
ATOM      3  C   UNL     1       4.502   3.800  16.209  0.00  0.00    +0.000 C 
ATOM      4  C   UNL     1       3.351   3.395  17.115  0.00  0.00    +0.000 C 
ATOM      5  C   UNL     1       2.593   4.610  17.634  0.00  0.00    +0.000 C 
ATOM      6  C   UNL     1       3.462   5.677  18.382  0.00  0.00    +0.000 C 
ENDROOT
BRANCH   6   7
ATOM      7  C   UNL     1       2.657   6.970  18.670  0.00  0.00    +0.000 A 
ATOM      8  C   UNL     1       2.341   7.884  17.640  0.00  0.00    +0.000 A 
ATOM      9  C   UNL     1       1.643   9.060  17.891  0.00  0.00    +0.000 A 
ATOM     10  C   UNL     1       1.229   9.370  19.181  0.00  0.00    +0.000 A 
ATOM     11  C   UNL     1       1.502   8.473  20.205  0.00  0.00    +0.000 A 
ATOM     12  C   UNL     1       2.185   7.287  19.955  0.00  0.00    +0.000 A 
BRANCH  11  13
ATOM     13  O   UNL     1       1.126   8.708  21.488  0.00  0.00    +0.000 OA
ATOM     14  H   UNL     1       0.210   8.400  21.600  0.00  0.00    +0.000 HD
ENDBRANCH  11  13
ENDBRANCH   6   7
BRANCH   1  15
ATOM     15  C   UNL     1       5.702   7.024  18.096  0.00  0.00    +0.000 C 
BRANCH  15  17
ATOM     16  C   UNL     1       7.826   8.077  17.490  0.00  0.00    +0.000 C 
ATOM     17  N   UNL     1       7.134   6.811  17.760  0.00  0.00    +0.000 NA
ATOM     18  C   UNL     1       7.798   6.156  18.899  0.00  0.00    +0.000 C 
ENDBRANCH  15  17
ENDBRANCH   1  15
BRANCH   6  19
ATOM     19  O   UNL     1       3.969   5.100  19.633  0.00  0.00    +0.000 OA
BRANCH  19  20
ATOM     20  C   UNL     1       3.428   3.799  19.957  0.00  0.00    +0.000 C 
BRANCH  20  21
ATOM     21  C   UNL     1       2.289   3.884  20.929  0.00  0.00    +0.000 C 
ATOM     22  C   UNL     1       0.897   3.356  20.687  0.00  0.00    +0.000 C 
ATOM     23  C   UNL     1       1.828   2.597  21.591  0.00  0.00    +0.000 C 
ENDBRANCH  20  21
ENDBRANCH  19  20
ENDBRANCH   6  19
TORSDOF 7
ENDMDL
MODEL 6
REMARK VINA RESULT:      -6.6      1.819      4.698
REMARK  Name = 
REMARK  9 active torsions:
REMARK  status: ('A' for Active; 'I' for Inactive)
REMARK    1  A    between atoms: C_1  and  N_2
REMARK    2  A    between atoms: N_2  and  C_3
REMARK    3  A    between atoms: N_2  and  C_4
REMARK    4  A    between atoms: C_4  and  C_5
REMARK    5  A    between atoms: C_10  and  O_11
REMARK    6  A    between atoms: C_10  and  C_16
REMARK    7  A    between atoms: O_11  and  C_12
REMARK    8  A    between atoms: C_12  and  C_13
REMARK    9  A    between atoms: C_20  and  O_21
REMARK                            x       y       z     vdW  Elec       q    Type
REMARK                         _______ _______ _______ _____ _____    ______ ____
ROOT
ATOM      1  C   UNL     1       3.839   6.178  17.277  0.00  0.00    +0.000 C 
ATOM      2  C   UNL     1       4.826   6.691  16.204  0.00  0.00    +0.000 C 
ATOM      3  C   UNL     1       5.200   5.649  15.158  0.00  0.00    +0.000 C 
ATOM      4  C   UNL     1       5.657   4.338  15.775  0.00  0.00    +0.000 C 
ATOM      5  C   UNL     1       4.647   3.814  16.789  0.00  0.00    +0.000 C 
ATOM      6  C   UNL     1       4.278   4.805  17.944  0.00  0.00    +0.000 C 
ENDROOT
BRANCH   6   7
ATOM      7  C   UNL     1       3.087   4.281  18.788  0.00  0.00    +0.000 A 
ATOM      8  C   UNL     1       2.956   4.606  20.157  0.00  0.00    +0.000 A 
ATOM      9  C   UNL     1       1.908   4.120  20.929  0.00  0.00    +0.000 A 
ATOM     10  C   UNL     1       0.945   3.291  20.365  0.00  0.00    +0.000 A 
ATOM     11  C   UNL     1       1.036   2.982  19.015  0.00  0.00    +0.000 A 
ATOM     12  C   UNL     1       2.074   3.480  18.234  0.00  0.00    +0.000 A 
BRANCH  11  13
ATOM     13  O   UNL     1       0.130   2.182  18.397  0.00  0.00    +0.000 OA
ATOM     14  H   UNL     1      -0.760   2.437  18.696  0.00  0.00    +0.000 HD
ENDBRANCH  11  13
ENDBRANCH   6   7
BRANCH   1  15
ATOM     15  C   UNL     1       3.557   7.307  18.312  0.00  0.00    +0.000 C 
BRANCH  15  17
ATOM     16  C   UNL     1       1.773   7.987  19.841  0.00  0.00    +0.000 C 
ATOM     17  N   UNL     1       2.146   7.756  18.441  0.00  0.00    +0.000 NA
ATOM     18  C   UNL     1       1.980   9.020  17.705  0.00  0.00    +0.000 C 
ENDBRANCH  15  17
ENDBRANCH   1  15
BRANCH   6  19
ATOM     19  O   UNL     1       5.454   5.019  18.796  0.00  0.00    +0.000 OA
BRANCH  19  20
ATOM     20  C   UNL     1       6.643   4.316  18.366  0.00  0.00    +0.000 C 
BRANCH  20  21
ATOM     21  C   UNL     1       7.844   5.212  18.313  0.00  0.00    +0.000 C 
ATOM     22  C   UNL     1       7.807   6.719  18.344  0.00  0.00    +0.000 C 
ATOM     23  C   UNL     1       8.219   5.966  19.577  0.00  0.00    +0.000 C 
ENDBRANCH  20  21
ENDBRANCH  19  20
ENDBRANCH   6  19
TORSDOF 7
ENDMDL
MODEL 7
REMARK VINA RESULT:      -6.3      2.089      4.506
REMARK  Name = 
REMARK  9 active torsions:
REMARK  status: ('A' for Active; 'I' for Inactive)
REMARK    1  A    between atoms: C_1  and  N_2
REMARK    2  A    between atoms: N_2  and  C_3
REMARK    3  A    between atoms: N_2  and  C_4
REMARK    4  A    between atoms: C_4  and  C_5
REMARK    5  A    between atoms: C_10  and  O_11
REMARK    6  A    between atoms: C_10  and  C_16
REMARK    7  A    between atoms: O_11  and  C_12
REMARK    8  A    between atoms: C_12  and  C_13
REMARK    9  A    between atoms: C_20  and  O_21
REMARK                            x       y       z     vdW  Elec       q    Type
REMARK                         _______ _______ _______ _____ _____    ______ ____
ROOT
ATOM      1  C   UNL     1       3.087   4.521  18.787  0.00  0.00    +0.000 C 
ATOM      2  C   UNL     1       3.980   3.265  18.666  0.00  0.00    +0.000 C 
ATOM      3  C   UNL     1       5.371   3.435  19.261  0.00  0.00    +0.000 C 
ATOM      4  C   UNL     1       6.074   4.685  18.760  0.00  0.00    +0.000 C 
ATOM      5  C   UNL     1       5.205   5.925  18.937  0.00  0.00    +0.000 C 
ATOM      6  C   UNL     1       3.787   5.853  18.277  0.00  0.00    +0.000 C 
ENDROOT
BRANCH   6   7
ATOM      7  C   UNL     1       2.899   7.052  18.699  0.00  0.00    +0.000 A 
ATOM      8  C   UNL     1       2.266   7.089  19.961  0.00  0.00    +0.000 A 
ATOM      9  C   UNL     1       1.446   8.147  20.340  0.00  0.00    +0.000 A 
ATOM     10  C   UNL     1       1.227   9.211  19.473  0.00  0.00    +0.000 A 
ATOM     11  C   UNL     1       1.862   9.210  18.239  0.00  0.00    +0.000 A 
ATOM     12  C   UNL     1       2.696   8.163  17.863  0.00  0.00    +0.000 A 
BRANCH  11  13
ATOM     13  O   UNL     1       1.696  10.217  17.343  0.00  0.00    +0.000 OA
ATOM     14  H   UNL     1       2.148  11.009  17.686  0.00  0.00    +0.000 HD
ENDBRANCH  11  13
ENDBRANCH   6   7
BRANCH   1  15
ATOM     15  C   UNL     1       1.708   4.251  18.115  0.00  0.00    +0.000 C 
BRANCH  15  17
ATOM     16  C   UNL     1       0.704   2.109  18.739  0.00  0.00    +0.000 C 
ATOM     17  N   UNL     1       0.686   3.562  18.946  0.00  0.00    +0.000 NA
ATOM     18  C   UNL     1       0.968   3.828  20.366  0.00  0.00    +0.000 C 
ENDBRANCH  15  17
ENDBRANCH   1  15
BRANCH   6  19
ATOM     19  O   UNL     1       3.932   5.812  16.816  0.00  0.00    +0.000 OA
BRANCH  19  20
ATOM     20  C   UNL     1       5.291   5.953  16.344  0.00  0.00    +0.000 C 
BRANCH  20  21
ATOM     21  C   UNL     1       5.532   5.194  15.073  0.00  0.00    +0.000 C 
ATOM     22  C   UNL     1       6.886   4.895  14.481  0.00  0.00    +0.000 C 
ATOM     23  C   UNL     1       6.129   3.803  15.182  0.00  0.00    +0.000 C 
ENDBRANCH  20  21
ENDBRANCH  19  20
ENDBRANCH   6  19
TORSDOF 7
ENDMDL
MODEL 8
REMARK VINA RESULT:      -6.3      2.145      4.364
REMARK  Name = 
REMARK  9 active torsions:
REMARK  status: ('A' for Active; 'I' for Inactive)
REMARK    1  A    between atoms: C_1  and  N_2
REMARK    2  A    between atoms: N_2  and  C_3
REMARK    3  A    between atoms: N_2  and  C_4
REMARK    4  A    between atoms: C_4  and  C_5
REMARK    5  A    between atoms: C_10  and  O_11
REMARK    6  A    between atoms: C_10  and  C_16
REMARK    7  A    between atoms: O_11  and  C_12
REMARK    8  A    between atoms: C_12  and  C_13
REMARK    9  A    between atoms: C_20  and  O_21
REMARK                            x       y       z     vdW  Elec       q    Type
REMARK                         _______ _______ _______ _____ _____    ______ ____
ROOT
ATOM      1  C   UNL     1       3.090   4.621  18.777  0.00  0.00    +0.000 C 
ATOM      2  C   UNL     1       4.035   3.400  18.692  0.00  0.00    +0.000 C 
ATOM      3  C   UNL     1       5.408   3.637  19.305  0.00  0.00    +0.000 C 
ATOM      4  C   UNL     1       6.068   4.906  18.792  0.00  0.00    +0.000 C 
ATOM      5  C   UNL     1       5.147   6.112  18.934  0.00  0.00    +0.000 C 
ATOM      6  C   UNL     1       3.744   5.971  18.253  0.00  0.00    +0.000 C 
ENDROOT
BRANCH   6   7
ATOM      7  C   UNL     1       2.801   7.140  18.640  0.00  0.00    +0.000 A 
ATOM      8  C   UNL     1       2.411   8.113  17.693  0.00  0.00    +0.000 A 
ATOM      9  C   UNL     1       1.588   9.180  18.035  0.00  0.00    +0.000 A 
ATOM     10  C   UNL     1       1.119   9.317  19.336  0.00  0.00    +0.000 A 
ATOM     11  C   UNL     1       1.465   8.357  20.277  0.00  0.00    +0.000 A 
ATOM     12  C   UNL     1       2.274   7.279  19.935  0.00  0.00    +0.000 A 
BRANCH  11  13
ATOM     13  O   UNL     1       1.042   8.425  21.565  0.00  0.00    +0.000 OA
ATOM     14  H   UNL     1       0.696   7.552  21.820  0.00  0.00    +0.000 HD
ENDBRANCH  11  13
ENDBRANCH   6   7
BRANCH   1  15
ATOM     15  C   UNL     1       1.734   4.283  18.089  0.00  0.00    +0.000 C 
BRANCH  15  17
ATOM     16  C   UNL     1       0.743   2.154  18.774  0.00  0.00    +0.000 C 
ATOM     17  N   UNL     1       0.709   3.613  18.931  0.00  0.00    +0.000 NA
ATOM     18  C   UNL     1       0.971   3.931  20.344  0.00  0.00    +0.000 C 
ENDBRANCH  15  17
ENDBRANCH   1  15
BRANCH   6  19
ATOM     19  O   UNL     1       3.914   5.910  16.796  0.00  0.00    +0.000 OA
BRANCH  19  20
ATOM     20  C   UNL     1       5.260   6.172  16.338  0.00  0.00    +0.000 C 
BRANCH  20  21
ATOM     21  C   UNL     1       5.614   5.362  15.126  0.00  0.00    +0.000 C 
ATOM     22  C   UNL     1       6.995   4.858  14.789  0.00  0.00    +0.000 C 
ATOM     23  C   UNL     1       5.972   3.901  15.332  0.00  0.00    +0.000 C 
ENDBRANCH  20  21
ENDBRANCH  19  20
ENDBRANCH   6  19
TORSDOF 7
ENDMDL
MODEL 9
REMARK VINA RESULT:      -6.2      2.059      5.111
REMARK  Name = 
REMARK  9 active torsions:
REMARK  status: ('A' for Active; 'I' for Inactive)
REMARK    1  A    between atoms: C_1  and  N_2
REMARK    2  A    between atoms: N_2  and  C_3
REMARK    3  A    between atoms: N_2  and  C_4
REMARK    4  A    between atoms: C_4  and  C_5
REMARK    5  A    between atoms: C_10  and  O_11
REMARK    6  A    between atoms: C_10  and  C_16
REMARK    7  A    between atoms: O_11  and  C_12
REMARK    8  A    between atoms: C_12  and  C_13
REMARK    9  A    between atoms: C_20  and  O_21
REMARK                            x       y       z     vdW  Elec       q    Type
REMARK                         _______ _______ _______ _____ _____    ______ ____
ROOT
ATOM      1  C   UNL     1       6.210   5.186  17.504  0.00  0.00    +0.000 C 
ATOM      2  C   UNL     1       7.242   4.407  16.658  0.00  0.00    +0.000 C 
ATOM      3  C   UNL     1       7.059   4.571  15.155  0.00  0.00    +0.000 C 
ATOM      4  C   UNL     1       5.633   4.304  14.705  0.00  0.00    +0.000 C 
ATOM      5  C   UNL     1       4.630   5.122  15.510  0.00  0.00    +0.000 C 
ATOM      6  C   UNL     1       4.705   4.938  17.063  0.00  0.00    +0.000 C 
ENDROOT
BRANCH   6   7
ATOM      7  C   UNL     1       3.813   5.969  17.804  0.00  0.00    +0.000 A 
ATOM      8  C   UNL     1       3.524   7.231  17.239  0.00  0.00    +0.000 A 
ATOM      9  C   UNL     1       2.748   8.173  17.905  0.00  0.00    +0.000 A 
ATOM     10  C   UNL     1       2.228   7.892  19.163  0.00  0.00    +0.000 A 
ATOM     11  C   UNL     1       2.474   6.647  19.726  0.00  0.00    +0.000 A 
ATOM     12  C   UNL     1       3.235   5.695  19.055  0.00  0.00    +0.000 A 
BRANCH  11  13
ATOM     13  O   UNL     1       1.995   6.302  20.948  0.00  0.00    +0.000 OA
ATOM     14  H   UNL     1       2.329   6.943  21.600  0.00  0.00    +0.000 HD
ENDBRANCH  11  13
ENDBRANCH   6   7
BRANCH   1  15
ATOM     15  C   UNL     1       6.464   4.917  19.018  0.00  0.00    +0.000 C 
BRANCH  15  17
ATOM     16  C   UNL     1       8.482   5.156  20.380  0.00  0.00    +0.000 C 
ATOM     17  N   UNL     1       7.376   5.859  19.718  0.00  0.00    +0.000 NA
ATOM     18  C   UNL     1       7.947   6.791  18.732  0.00  0.00    +0.000 C 
ENDBRANCH  15  17
ENDBRANCH   1  15
BRANCH   6  19
ATOM     19  O   UNL     1       4.302   3.570  17.411  0.00  0.00    +0.000 OA
BRANCH  19  20
ATOM     20  C   UNL     1       2.909   3.272  17.161  0.00  0.00    +0.000 C 
BRANCH  20  21
ATOM     21  C   UNL     1       2.393   2.181  18.051  0.00  0.00    +0.000 C 
ATOM     22  C   UNL     1       2.220   2.287  19.545  0.00  0.00    +0.000 C 
ATOM     23  C   UNL     1       1.012   2.358  18.656  0.00  0.00    +0.000 C 
ENDBRANCH  20  21
ENDBRANCH  19  20
ENDBRANCH   6  19
TORSDOF 7
ENDMDL
