MODEL 1
REMARK VINA RESULT:      -9.0      0.000      0.000
REMARK  Name = 
REMARK  12 active torsions:
REMARK  status: ('A' for Active; 'I' for Inactive)
REMARK    1  A    between atoms: C_1  and  O_2
REMARK    2  A    between atoms: O_2  and  C_3
REMARK    3  A    between atoms: C_6  and  C_7
REMARK    4  A    between atoms: C_7  and  N_8
REMARK    5  A    between atoms: C_9  and  C_11
REMARK    6  A    between atoms: C_11  and  C_12
REMARK    7  A    between atoms: C_12  and  C_13
REMARK    8  A    between atoms: C_13  and  N_14
REMARK    9  A    between atoms: C_16  and  C_17
REMARK   10  A    between atoms: C_19  and  C_20
REMARK   11  A    between atoms: N_21  and  C_22
REMARK   12  A    between atoms: C_25  and  C_26
REMARK                            x       y       z     vdW  Elec       q    Type
REMARK                         _______ _______ _______ _____ _____    ______ ____
ROOT
ATOM      1  N   UNL     1       1.822   7.662  19.901  0.00  0.00    +0.000 N 
ATOM      2  N   UNL     1       1.244   7.875  21.150  0.00  0.00    +0.000 NA
ATOM      3  C   UNL     1       0.789   9.041  21.498  0.00  0.00    +0.000 A 
ATOM      4  C   UNL     1       0.185   9.183  22.861  0.00  0.00    +0.000 C 
ATOM      5  C   UNL     1       0.874  10.147  20.579  0.00  0.00    +0.000 A 
ATOM      6  C   UNL     1       0.492  11.474  20.656  0.00  0.00    +0.000 A 
ATOM      7  C   UNL     1      -0.247  12.206  21.724  0.00  0.00    +0.000 C 
ATOM      8  N   UNL     1       0.887  12.051  19.448  0.00  0.00    +0.000 N 
ATOM      9  N   UNL     1       1.345  11.097  18.575  0.00  0.00    +0.000 NA
ATOM     10  C   UNL     1       1.412   9.966  19.297  0.00  0.00    +0.000 A 
ATOM     11  C   UNL     1       1.931   8.648  18.883  0.00  0.00    +0.000 A 
ATOM     12  O   UNL     1       2.414   8.420  17.781  0.00  0.00    +0.000 OA
ENDROOT
BRANCH   8  13
ATOM     13  C   UNL     1       0.914  13.440  19.080  0.00  0.00    +0.000 A 
ATOM     14  C   UNL     1      -0.262  14.192  18.956  0.00  0.00    +0.000 A 
ATOM     15  C   UNL     1      -0.225  15.565  18.696  0.00  0.00    +0.000 A 
ATOM     16  C   UNL     1       0.999  16.221  18.567  0.00  0.00    +0.000 A 
ATOM     17  C   UNL     1       1.048  17.712  18.426  0.00  0.00    +0.000 C 
ATOM     18  C   UNL     1       2.176  15.468  18.638  0.00  0.00    +0.000 A 
ATOM     19  C   UNL     1       2.142  14.092  18.906  0.00  0.00    +0.000 A 
ENDBRANCH   8  13
BRANCH   1  20
ATOM     20  C   UNL     1       2.320   6.293  19.703  0.00  0.00    +0.000 C 
BRANCH  20  21
ATOM     21  C   UNL     1       1.684   5.295  20.674  0.00  0.00    +0.000 C 
BRANCH  21  22
ATOM     22  C   UNL     1       1.044   4.101  19.962  0.00  0.00    +0.000 C 
BRANCH  22  24
ATOM     23  N   UNL     1       2.998   3.222  18.810  0.00  0.00    +0.000 N 
ATOM     24  C   UNL     1       1.756   3.791  18.657  0.00  0.00    +0.000 C 
ATOM     25  O   UNL     1       1.252   4.036  17.566  0.00  0.00    +0.000 OA
ATOM     26  H   UNL     1       3.235   2.794  19.698  0.00  0.00    +0.000 HD
BRANCH  23  27
ATOM     27  C   UNL     1       3.811   2.876  17.664  0.00  0.00    +0.000 C 
BRANCH  27  31
ATOM     28  C   UNL     1       6.754   5.904  16.687  0.00  0.00    +0.000 A 
ATOM     29  C   UNL     1       6.474   5.577  18.013  0.00  0.00    +0.000 A 
ATOM     30  C   UNL     1       5.524   4.598  18.318  0.00  0.00    +0.000 A 
ATOM     31  C   UNL     1       4.813   3.946  17.299  0.00  0.00    +0.000 A 
ATOM     32  C   UNL     1       5.120   4.264  15.968  0.00  0.00    +0.000 A 
ATOM     33  C   UNL     1       6.074   5.244  15.664  0.00  0.00    +0.000 A 
BRANCH  28  35
ATOM     34  C   UNL     1       7.747   7.870  17.542  0.00  0.00    +0.000 C 
ATOM     35  O   UNL     1       7.683   6.893  16.509  0.00  0.00    +0.000 OA
ENDBRANCH  28  35
ENDBRANCH  27  31
ENDBRANCH  23  27
ENDBRANCH  22  24
ENDBRANCH  21  22
ENDBRANCH  20  21
ENDBRANCH   1  20
TORSDOF 8
ENDMDL
MODEL 2
REMARK VINA RESULT:      -8.7      0.555      1.182
REMARK  Name = 
REMARK  12 active torsions:
REMARK  status: ('A' for Active; 'I' for Inactive)
REMARK    1  A    between atoms: C_1  and  O_2
REMARK    2  A    between atoms: O_2  and  C_3
REMARK    3  A    between atoms: C_6  and  C_7
REMARK    4  A    between atoms: C_7  and  N_8
REMARK    5  A    between atoms: C_9  and  C_11
REMARK    6  A    between atoms: C_11  and  C_12
REMARK    7  A    between atoms: C_12  and  C_13
REMARK    8  A    between atoms: C_13  and  N_14
REMARK    9  A    between atoms: C_16  and  C_17
REMARK   10  A    between atoms: C_19  and  C_20
REMARK   11  A    between atoms: N_21  and  C_22
REMARK   12  A    between atoms: C_25  and  C_26
REMARK                            x       y       z     vdW  Elec       q    Type
REMARK                         _______ _______ _______ _____ _____    ______ ____
ROOT
ATOM      1  N   UNL     1       1.738   7.793  19.942  0.00  0.00    +0.000 N 
ATOM      2  N   UNL     1       1.142   7.964  21.189  0.00  0.00    +0.000 NA
ATOM      3  C   UNL     1       0.679   9.117  21.567  0.00  0.00    +0.000 A 
ATOM      4  C   UNL     1       0.054   9.213  22.925  0.00  0.00    +0.000 C 
ATOM      5  C   UNL     1       0.775  10.253  20.687  0.00  0.00    +0.000 A 
ATOM      6  C   UNL     1       0.389  11.576  20.801  0.00  0.00    +0.000 A 
ATOM      7  C   UNL     1      -0.367  12.272  21.881  0.00  0.00    +0.000 C 
ATOM      8  N   UNL     1       0.801  12.193  19.618  0.00  0.00    +0.000 N 
ATOM      9  N   UNL     1       1.273  11.269  18.722  0.00  0.00    +0.000 NA
ATOM     10  C   UNL     1       1.332  10.115  19.408  0.00  0.00    +0.000 A 
ATOM     11  C   UNL     1       1.860   8.812  18.958  0.00  0.00    +0.000 A 
ATOM     12  O   UNL     1       2.360   8.621  17.856  0.00  0.00    +0.000 OA
ENDROOT
BRANCH   8  13
ATOM     13  C   UNL     1       0.831  13.594  19.297  0.00  0.00    +0.000 A 
ATOM     14  C   UNL     1       2.037  14.276  19.092  0.00  0.00    +0.000 A 
ATOM     15  C   UNL     1       2.058  15.613  18.684  0.00  0.00    +0.000 A 
ATOM     16  C   UNL     1       0.863  16.295  18.458  0.00  0.00    +0.000 A 
ATOM     17  C   UNL     1       0.878  17.681  17.889  0.00  0.00    +0.000 C 
ATOM     18  C   UNL     1      -0.345  15.637  18.710  0.00  0.00    +0.000 A 
ATOM     19  C   UNL     1      -0.369  14.293  19.114  0.00  0.00    +0.000 A 
ENDBRANCH   8  13
BRANCH   1  20
ATOM     20  C   UNL     1       2.242   6.432  19.707  0.00  0.00    +0.000 C 
BRANCH  20  21
ATOM     21  C   UNL     1       1.613   5.406  20.653  0.00  0.00    +0.000 C 
BRANCH  21  22
ATOM     22  C   UNL     1       1.155   4.137  19.930  0.00  0.00    +0.000 C 
BRANCH  22  24
ATOM     23  N   UNL     1       3.242   3.539  18.834  0.00  0.00    +0.000 N 
ATOM     24  C   UNL     1       1.935   3.920  18.646  0.00  0.00    +0.000 C 
ATOM     25  O   UNL     1       1.428   4.078  17.540  0.00  0.00    +0.000 OA
ATOM     26  H   UNL     1       3.517   3.159  19.733  0.00  0.00    +0.000 HD
BRANCH  23  27
ATOM     27  C   UNL     1       4.125   3.304  17.712  0.00  0.00    +0.000 C 
BRANCH  27  31
ATOM     28  C   UNL     1       6.870   6.596  17.071  0.00  0.00    +0.000 A 
ATOM     29  C   UNL     1       5.595   6.604  16.506  0.00  0.00    +0.000 A 
ATOM     30  C   UNL     1       4.717   5.538  16.721  0.00  0.00    +0.000 A 
ATOM     31  C   UNL     1       5.109   4.427  17.481  0.00  0.00    +0.000 A 
ATOM     32  C   UNL     1       6.383   4.440  18.067  0.00  0.00    +0.000 A 
ATOM     33  C   UNL     1       7.262   5.510  17.853  0.00  0.00    +0.000 A 
BRANCH  28  35
ATOM     34  C   UNL     1       8.035   8.483  17.885  0.00  0.00    +0.000 C 
ATOM     35  O   UNL     1       7.651   7.680  16.775  0.00  0.00    +0.000 OA
ENDBRANCH  28  35
ENDBRANCH  27  31
ENDBRANCH  23  27
ENDBRANCH  22  24
ENDBRANCH  21  22
ENDBRANCH  20  21
ENDBRANCH   1  20
TORSDOF 8
ENDMDL
MODEL 3
REMARK VINA RESULT:      -8.5      3.879      9.272
REMARK  Name = 
REMARK  12 active torsions:
REMARK  status: ('A' for Active; 'I' for Inactive)
REMARK    1  A    between atoms: C_1  and  O_2
REMARK    2  A    between atoms: O_2  and  C_3
REMARK    3  A    between atoms: C_6  and  C_7
REMARK    4  A    between atoms: C_7  and  N_8
REMARK    5  A    between atoms: C_9  and  C_11
REMARK    6  A    between atoms: C_11  and  C_12
REMARK    7  A    between atoms: C_12  and  C_13
REMARK    8  A    between atoms: C_13  and  N_14
REMARK    9  A    between atoms: C_16  and  C_17
REMARK   10  A    between atoms: C_19  and  C_20
REMARK   11  A    between atoms: N_21  and  C_22
REMARK   12  A    between atoms: C_25  and  C_26
REMARK                            x       y       z     vdW  Elec       q    Type
REMARK                         _______ _______ _______ _____ _____    ______ ____
ROOT
ATOM      1  N   UNL     1      -0.529  12.107  22.099  0.00  0.00    +0.000 N 
ATOM      2  N   UNL     1      -0.169  12.720  20.901  0.00  0.00    +0.000 NA
ATOM      3  C   UNL     1       0.414  12.057  19.948  0.00  0.00    +0.000 A 
ATOM      4  C   UNL     1       0.768  12.794  18.694  0.00  0.00    +0.000 C 
ATOM      5  C   UNL     1       0.697  10.655  20.118  0.00  0.00    +0.000 A 
ATOM      6  C   UNL     1       1.293   9.704  19.311  0.00  0.00    +0.000 A 
ATOM      7  C   UNL     1       1.778   9.797  17.905  0.00  0.00    +0.000 C 
ATOM      8  N   UNL     1       1.314   8.529  20.065  0.00  0.00    +0.000 N 
ATOM      9  N   UNL     1       0.611   8.682  21.232  0.00  0.00    +0.000 NA
ATOM     10  C   UNL     1       0.315   9.991  21.293  0.00  0.00    +0.000 A 
ATOM     11  C   UNL     1      -0.351  10.726  22.386  0.00  0.00    +0.000 A 
ATOM     12  O   UNL     1      -0.710  10.210  23.437  0.00  0.00    +0.000 OA
ENDROOT
BRANCH   8  13
ATOM     13  C   UNL     1       1.997   7.294  19.788  0.00  0.00    +0.000 A 
ATOM     14  C   UNL     1       1.850   6.171  20.613  0.00  0.00    +0.000 A 
ATOM     15  C   UNL     1       2.437   4.945  20.286  0.00  0.00    +0.000 A 
ATOM     16  C   UNL     1       3.175   4.814  19.111  0.00  0.00    +0.000 A 
ATOM     17  C   UNL     1       3.689   3.471  18.685  0.00  0.00    +0.000 C 
ATOM     18  C   UNL     1       3.369   5.942  18.308  0.00  0.00    +0.000 A 
ATOM     19  C   UNL     1       2.776   7.173  18.630  0.00  0.00    +0.000 A 
ENDBRANCH   8  13
BRANCH   1  20
ATOM     20  C   UNL     1      -1.135  13.024  23.075  0.00  0.00    +0.000 C 
BRANCH  20  21
ATOM     21  C   UNL     1      -2.275  13.847  22.472  0.00  0.00    +0.000 C 
BRANCH  21  22
ATOM     22  C   UNL     1      -3.608  13.632  23.194  0.00  0.00    +0.000 C 
BRANCH  22  24
ATOM     23  N   UNL     1      -4.277  12.895  20.974  0.00  0.00    +0.000 N 
ATOM     24  C   UNL     1      -4.602  12.901  22.310  0.00  0.00    +0.000 C 
ATOM     25  O   UNL     1      -5.609  12.367  22.764  0.00  0.00    +0.000 OA
ATOM     26  H   UNL     1      -3.321  13.097  20.703  0.00  0.00    +0.000 HD
BRANCH  23  27
ATOM     27  C   UNL     1      -5.127  12.251  19.997  0.00  0.00    +0.000 C 
BRANCH  27  31
ATOM     28  C   UNL     1      -3.051  11.108  16.368  0.00  0.00    +0.000 A 
ATOM     29  C   UNL     1      -4.425  11.344  16.365  0.00  0.00    +0.000 A 
ATOM     30  C   UNL     1      -5.085  11.714  17.540  0.00  0.00    +0.000 A 
ATOM     31  C   UNL     1      -4.386  11.825  18.751  0.00  0.00    +0.000 A 
ATOM     32  C   UNL     1      -2.999  11.610  18.739  0.00  0.00    +0.000 A 
ATOM     33  C   UNL     1      -2.339  11.242  17.560  0.00  0.00    +0.000 A 
BRANCH  28  35
ATOM     34  C   UNL     1      -3.406  10.056  14.283  0.00  0.00    +0.000 C 
ATOM     35  O   UNL     1      -2.517  10.729  15.166  0.00  0.00    +0.000 OA
ENDBRANCH  28  35
ENDBRANCH  27  31
ENDBRANCH  23  27
ENDBRANCH  22  24
ENDBRANCH  21  22
ENDBRANCH  20  21
ENDBRANCH   1  20
TORSDOF 8
ENDMDL
MODEL 4
REMARK VINA RESULT:      -8.3      0.936      1.010
REMARK  Name = 
REMARK  12 active torsions:
REMARK  status: ('A' for Active; 'I' for Inactive)
REMARK    1  A    between atoms: C_1  and  O_2
REMARK    2  A    between atoms: O_2  and  C_3
REMARK    3  A    between atoms: C_6  and  C_7
REMARK    4  A    between atoms: C_7  and  N_8
REMARK    5  A    between atoms: C_9  and  C_11
REMARK    6  A    between atoms: C_11  and  C_12
REMARK    7  A    between atoms: C_12  and  C_13
REMARK    8  A    between atoms: C_13  and  N_14
REMARK    9  A    between atoms: C_16  and  C_17
REMARK   10  A    between atoms: C_19  and  C_20
REMARK   11  A    between atoms: N_21  and  C_22
REMARK   12  A    between atoms: C_25  and  C_26
REMARK                            x       y       z     vdW  Elec       q    Type
REMARK                         _______ _______ _______ _____ _____    ______ ____
ROOT
ATOM      1  N   UNL     1       1.701   7.798  20.220  0.00  0.00    +0.000 N 
ATOM      2  N   UNL     1       1.135   8.057  21.466  0.00  0.00    +0.000 NA
ATOM      3  C   UNL     1       0.692   9.237  21.779  0.00  0.00    +0.000 A 
ATOM      4  C   UNL     1       0.100   9.428  23.141  0.00  0.00    +0.000 C 
ATOM      5  C   UNL     1       0.778  10.312  20.824  0.00  0.00    +0.000 A 
ATOM      6  C   UNL     1       0.407  11.644  20.860  0.00  0.00    +0.000 A 
ATOM      7  C   UNL     1      -0.317  12.416  21.909  0.00  0.00    +0.000 C 
ATOM      8  N   UNL     1       0.797  12.177  19.631  0.00  0.00    +0.000 N 
ATOM      9  N   UNL     1       1.240  11.192  18.786  0.00  0.00    +0.000 NA
ATOM     10  C   UNL     1       1.305  10.085  19.544  0.00  0.00    +0.000 A 
ATOM     11  C   UNL     1       1.810   8.750  19.169  0.00  0.00    +0.000 A 
ATOM     12  O   UNL     1       2.282   8.482  18.071  0.00  0.00    +0.000 OA
ENDROOT
BRANCH   8  13
ATOM     13  C   UNL     1       0.832  13.554  19.218  0.00  0.00    +0.000 A 
ATOM     14  C   UNL     1      -0.341  14.276  18.960  0.00  0.00    +0.000 A 
ATOM     15  C   UNL     1      -0.306  15.639  18.655  0.00  0.00    +0.000 A 
ATOM     16  C   UNL     1       0.913  16.316  18.615  0.00  0.00    +0.000 A 
ATOM     17  C   UNL     1       0.947  17.803  18.426  0.00  0.00    +0.000 C 
ATOM     18  C   UNL     1       2.091  15.593  18.820  0.00  0.00    +0.000 A 
ATOM     19  C   UNL     1       2.059  14.226  19.133  0.00  0.00    +0.000 A 
ENDBRANCH   8  13
BRANCH   1  20
ATOM     20  C   UNL     1       2.187   6.420  20.064  0.00  0.00    +0.000 C 
BRANCH  20  21
ATOM     21  C   UNL     1       1.110   5.382  20.389  0.00  0.00    +0.000 C 
BRANCH  21  22
ATOM     22  C   UNL     1       1.691   3.994  20.674  0.00  0.00    +0.000 C 
BRANCH  22  24
ATOM     23  N   UNL     1       2.376   3.797  18.349  0.00  0.00    +0.000 N 
ATOM     24  C   UNL     1       2.756   3.622  19.658  0.00  0.00    +0.000 C 
ATOM     25  O   UNL     1       3.858   3.200  19.994  0.00  0.00    +0.000 OA
ATOM     26  H   UNL     1       1.585   4.397  18.144  0.00  0.00    +0.000 HD
BRANCH  23  27
ATOM     27  C   UNL     1       3.271   3.478  17.258  0.00  0.00    +0.000 C 
BRANCH  27  31
ATOM     28  C   UNL     1       6.585   6.230  16.776  0.00  0.00    +0.000 A 
ATOM     29  C   UNL     1       6.787   4.850  16.743  0.00  0.00    +0.000 A 
ATOM     30  C   UNL     1       5.711   3.971  16.898  0.00  0.00    +0.000 A 
ATOM     31  C   UNL     1       4.414   4.456  17.119  0.00  0.00    +0.000 A 
ATOM     32  C   UNL     1       4.217   5.846  17.124  0.00  0.00    +0.000 A 
ATOM     33  C   UNL     1       5.295   6.725  16.967  0.00  0.00    +0.000 A 
BRANCH  28  35
ATOM     34  C   UNL     1       7.847   8.065  17.562  0.00  0.00    +0.000 C 
ATOM     35  O   UNL     1       7.713   6.993  16.637  0.00  0.00    +0.000 OA
ENDBRANCH  28  35
ENDBRANCH  27  31
ENDBRANCH  23  27
ENDBRANCH  22  24
ENDBRANCH  21  22
ENDBRANCH  20  21
ENDBRANCH   1  20
TORSDOF 8
ENDMDL
MODEL 5
REMARK VINA RESULT:      -8.2      2.929      9.173
REMARK  Name = 
REMARK  12 active torsions:
REMARK  status: ('A' for Active; 'I' for Inactive)
REMARK    1  A    between atoms: C_1  and  O_2
REMARK    2  A    between atoms: O_2  and  C_3
REMARK    3  A    between atoms: C_6  and  C_7
REMARK    4  A    between atoms: C_7  and  N_8
REMARK    5  A    between atoms: C_9  and  C_11
REMARK    6  A    between atoms: C_11  and  C_12
REMARK    7  A    between atoms: C_12  and  C_13
REMARK    8  A    between atoms: C_13  and  N_14
REMARK    9  A    between atoms: C_16  and  C_17
REMARK   10  A    between atoms: C_19  and  C_20
REMARK   11  A    between atoms: N_21  and  C_22
REMARK   12  A    between atoms: C_25  and  C_26
REMARK                            x       y       z     vdW  Elec       q    Type
REMARK                         _______ _______ _______ _____ _____    ______ ____
ROOT
ATOM      1  N   UNL     1       1.611   7.086  20.297  0.00  0.00    +0.000 N 
ATOM      2  N   UNL     1       1.683   5.814  20.858  0.00  0.00    +0.000 NA
ATOM      3  C   UNL     1       2.441   4.890  20.350  0.00  0.00    +0.000 A 
ATOM      4  C   UNL     1       2.458   3.548  21.015  0.00  0.00    +0.000 C 
ATOM      5  C   UNL     1       3.233   5.174  19.180  0.00  0.00    +0.000 A 
ATOM      6  C   UNL     1       4.111   4.419  18.424  0.00  0.00    +0.000 A 
ATOM      7  C   UNL     1       4.618   3.033  18.630  0.00  0.00    +0.000 C 
ATOM      8  N   UNL     1       4.527   5.253  17.385  0.00  0.00    +0.000 N 
ATOM      9  N   UNL     1       4.068   6.532  17.568  0.00  0.00    +0.000 NA
ATOM     10  C   UNL     1       3.219   6.454  18.607  0.00  0.00    +0.000 A 
ATOM     11  C   UNL     1       2.368   7.518  19.173  0.00  0.00    +0.000 A 
ATOM     12  O   UNL     1       2.307   8.655  18.724  0.00  0.00    +0.000 OA
ENDROOT
BRANCH   8  13
ATOM     13  C   UNL     1       5.278   4.917  16.206  0.00  0.00    +0.000 A 
ATOM     14  C   UNL     1       4.700   4.211  15.141  0.00  0.00    +0.000 A 
ATOM     15  C   UNL     1       5.404   3.972  13.958  0.00  0.00    +0.000 A 
ATOM     16  C   UNL     1       6.706   4.450  13.810  0.00  0.00    +0.000 A 
ATOM     17  C   UNL     1       7.416   4.318  12.496  0.00  0.00    +0.000 C 
ATOM     18  C   UNL     1       7.308   5.109  14.886  0.00  0.00    +0.000 A 
ATOM     19  C   UNL     1       6.601   5.356  16.073  0.00  0.00    +0.000 A 
ENDBRANCH   8  13
BRANCH   1  20
ATOM     20  C   UNL     1       0.668   7.983  20.981  0.00  0.00    +0.000 C 
BRANCH  20  21
ATOM     21  C   UNL     1       1.373   8.953  21.933  0.00  0.00    +0.000 C 
BRANCH  21  22
ATOM     22  C   UNL     1       0.473   9.412  23.084  0.00  0.00    +0.000 C 
BRANCH  22  24
ATOM     23  N   UNL     1      -0.269  11.021  21.417  0.00  0.00    +0.000 N 
ATOM     24  C   UNL     1      -0.575  10.399  22.605  0.00  0.00    +0.000 C 
ATOM     25  O   UNL     1      -1.604  10.616  23.237  0.00  0.00    +0.000 OA
ATOM     26  H   UNL     1       0.434  10.607  20.815  0.00  0.00    +0.000 HD
BRANCH  23  27
ATOM     27  C   UNL     1      -1.159  11.998  20.829  0.00  0.00    +0.000 C 
BRANCH  27  31
ATOM     28  C   UNL     1      -3.038  10.514  17.217  0.00  0.00    +0.000 A 
ATOM     29  C   UNL     1      -1.842   9.967  17.681  0.00  0.00    +0.000 A 
ATOM     30  C   UNL     1      -1.245  10.452  18.848  0.00  0.00    +0.000 A 
ATOM     31  C   UNL     1      -1.819  11.516  19.559  0.00  0.00    +0.000 A 
ATOM     32  C   UNL     1      -3.035  12.042  19.099  0.00  0.00    +0.000 A 
ATOM     33  C   UNL     1      -3.633  11.554  17.930  0.00  0.00    +0.000 A 
BRANCH  28  35
ATOM     34  C   UNL     1      -2.935  10.482  14.857  0.00  0.00    +0.000 C 
ATOM     35  O   UNL     1      -3.518   9.977  16.053  0.00  0.00    +0.000 OA
ENDBRANCH  28  35
ENDBRANCH  27  31
ENDBRANCH  23  27
ENDBRANCH  22  24
ENDBRANCH  21  22
ENDBRANCH  20  21
ENDBRANCH   1  20
TORSDOF 8
ENDMDL
MODEL 6
REMARK VINA RESULT:      -8.1      1.429      2.103
REMARK  Name = 
REMARK  12 active torsions:
REMARK  status: ('A' for Active; 'I' for Inactive)
REMARK    1  A    between atoms: C_1  and  O_2
REMARK    2  A    between atoms: O_2  and  C_3
REMARK    3  A    between atoms: C_6  and  C_7
REMARK    4  A    between atoms: C_7  and  N_8
REMARK    5  A    between atoms: C_9  and  C_11
REMARK    6  A    between atoms: C_11  and  C_12
REMARK    7  A    between atoms: C_12  and  C_13
REMARK    8  A    between atoms: C_13  and  N_14
REMARK    9  A    between atoms: C_16  and  C_17
REMARK   10  A    between atoms: C_19  and  C_20
REMARK   11  A    between atoms: N_21  and  C_22
REMARK   12  A    between atoms: C_25  and  C_26
REMARK                            x       y       z     vdW  Elec       q    Type
REMARK                         _______ _______ _______ _____ _____    ______ ____
ROOT
ATOM      1  N   UNL     1       1.610   8.441  19.615  0.00  0.00    +0.000 N 
ATOM      2  N   UNL     1       1.097   8.605  20.899  0.00  0.00    +0.000 NA
ATOM      3  C   UNL     1       0.685   9.762  21.323  0.00  0.00    +0.000 A 
ATOM      4  C   UNL     1       0.149   9.850  22.718  0.00  0.00    +0.000 C 
ATOM      5  C   UNL     1       0.750  10.910  20.454  0.00  0.00    +0.000 A 
ATOM      6  C   UNL     1       0.402  12.238  20.612  0.00  0.00    +0.000 A 
ATOM      7  C   UNL     1      -0.269  12.933  21.747  0.00  0.00    +0.000 C 
ATOM      8  N   UNL     1       0.752  12.864  19.414  0.00  0.00    +0.000 N 
ATOM      9  N   UNL     1       1.147  11.945  18.477  0.00  0.00    +0.000 NA
ATOM     10  C   UNL     1       1.223  10.780  19.140  0.00  0.00    +0.000 A 
ATOM     11  C   UNL     1       1.693   9.473  18.640  0.00  0.00    +0.000 A 
ATOM     12  O   UNL     1       2.118   9.289  17.506  0.00  0.00    +0.000 OA
ENDROOT
BRANCH   8  13
ATOM     13  C   UNL     1       0.792  14.269  19.111  0.00  0.00    +0.000 A 
ATOM     14  C   UNL     1       2.002  14.936  18.873  0.00  0.00    +0.000 A 
ATOM     15  C   UNL     1       2.029  16.279  18.484  0.00  0.00    +0.000 A 
ATOM     16  C   UNL     1       0.838  16.981  18.309  0.00  0.00    +0.000 A 
ATOM     17  C   UNL     1       0.854  18.376  17.760  0.00  0.00    +0.000 C 
ATOM     18  C   UNL     1      -0.371  16.338  18.595  0.00  0.00    +0.000 A 
ATOM     19  C   UNL     1      -0.402  14.989  18.980  0.00  0.00    +0.000 A 
ENDBRANCH   8  13
BRANCH   1  20
ATOM     20  C   UNL     1       2.069   7.074  19.329  0.00  0.00    +0.000 C 
BRANCH  20  21
ATOM     21  C   UNL     1       1.830   6.122  20.504  0.00  0.00    +0.000 C 
BRANCH  21  22
ATOM     22  C   UNL     1       1.694   4.661  20.065  0.00  0.00    +0.000 C 
BRANCH  22  24
ATOM     23  N   UNL     1       4.005   4.756  19.313  0.00  0.00    +0.000 N 
ATOM     24  C   UNL     1       3.051   3.993  19.944  0.00  0.00    +0.000 C 
ATOM     25  O   UNL     1       3.263   2.865  20.376  0.00  0.00    +0.000 OA
ATOM     26  H   UNL     1       3.859   5.756  19.234  0.00  0.00    +0.000 HD
BRANCH  23  27
ATOM     27  C   UNL     1       5.349   4.260  19.107  0.00  0.00    +0.000 C 
BRANCH  27  31
ATOM     28  C   UNL     1       6.568   4.576  14.959  0.00  0.00    +0.000 A 
ATOM     29  C   UNL     1       5.244   4.296  15.300  0.00  0.00    +0.000 A 
ATOM     30  C   UNL     1       4.861   4.198  16.640  0.00  0.00    +0.000 A 
ATOM     31  C   UNL     1       5.803   4.349  17.669  0.00  0.00    +0.000 A 
ATOM     32  C   UNL     1       7.126   4.655  17.317  0.00  0.00    +0.000 A 
ATOM     33  C   UNL     1       7.508   4.755  15.974  0.00  0.00    +0.000 A 
BRANCH  28  35
ATOM     34  C   UNL     1       6.217   3.610  12.833  0.00  0.00    +0.000 C 
ATOM     35  O   UNL     1       6.832   4.625  13.618  0.00  0.00    +0.000 OA
ENDBRANCH  28  35
ENDBRANCH  27  31
ENDBRANCH  23  27
ENDBRANCH  22  24
ENDBRANCH  21  22
ENDBRANCH  20  21
ENDBRANCH   1  20
TORSDOF 8
ENDMDL
MODEL 7
REMARK VINA RESULT:      -8.1      1.104      1.402
REMARK  Name = 
REMARK  12 active torsions:
REMARK  status: ('A' for Active; 'I' for Inactive)
REMARK    1  A    between atoms: C_1  and  O_2
REMARK    2  A    between atoms: O_2  and  C_3
REMARK    3  A    between atoms: C_6  and  C_7
REMARK    4  A    between atoms: C_7  and  N_8
REMARK    5  A    between atoms: C_9  and  C_11
REMARK    6  A    between atoms: C_11  and  C_12
REMARK    7  A    between atoms: C_12  and  C_13
REMARK    8  A    between atoms: C_13  and  N_14
REMARK    9  A    between atoms: C_16  and  C_17
REMARK   10  A    between atoms: C_19  and  C_20
REMARK   11  A    between atoms: N_21  and  C_22
REMARK   12  A    between atoms: C_25  and  C_26
REMARK                            x       y       z     vdW  Elec       q    Type
REMARK                         _______ _______ _______ _____ _____    ______ ____
ROOT
ATOM      1  N   UNL     1       1.796   6.977  20.093  0.00  0.00    +0.000 N 
ATOM      2  N   UNL     1       1.036   7.308  21.212  0.00  0.00    +0.000 NA
ATOM      3  C   UNL     1       0.624   8.523  21.417  0.00  0.00    +0.000 A 
ATOM      4  C   UNL     1      -0.187   8.793  22.646  0.00  0.00    +0.000 C 
ATOM      5  C   UNL     1       0.952   9.561  20.474  0.00  0.00    +0.000 A 
ATOM      6  C   UNL     1       0.671  10.914  20.417  0.00  0.00    +0.000 A 
ATOM      7  C   UNL     1      -0.175  11.762  21.304  0.00  0.00    +0.000 C 
ATOM      8  N   UNL     1       1.309  11.384  19.268  0.00  0.00    +0.000 N 
ATOM      9  N   UNL     1       1.829  10.347  18.536  0.00  0.00    +0.000 NA
ATOM     10  C   UNL     1       1.682   9.262  19.314  0.00  0.00    +0.000 A 
ATOM     11  C   UNL     1       2.155   7.887  19.061  0.00  0.00    +0.000 A 
ATOM     12  O   UNL     1       2.796   7.556  18.072  0.00  0.00    +0.000 OA
ENDROOT
BRANCH   8  13
ATOM     13  C   UNL     1       1.510  12.742  18.843  0.00  0.00    +0.000 A 
ATOM     14  C   UNL     1       0.489  13.698  18.925  0.00  0.00    +0.000 A 
ATOM     15  C   UNL     1       0.718  15.039  18.602  0.00  0.00    +0.000 A 
ATOM     16  C   UNL     1       1.987  15.456  18.203  0.00  0.00    +0.000 A 
ATOM     17  C   UNL     1       2.274  16.912  17.990  0.00  0.00    +0.000 C 
ATOM     18  C   UNL     1       2.998  14.499  18.069  0.00  0.00    +0.000 A 
ATOM     19  C   UNL     1       2.773  13.154  18.398  0.00  0.00    +0.000 A 
ENDBRANCH   8  13
BRANCH   1  20
ATOM     20  C   UNL     1       2.208   5.566  20.053  0.00  0.00    +0.000 C 
BRANCH  20  21
ATOM     21  C   UNL     1       1.054   4.612  20.372  0.00  0.00    +0.000 C 
BRANCH  21  22
ATOM     22  C   UNL     1       1.526   3.180  20.639  0.00  0.00    +0.000 C 
BRANCH  22  24
ATOM     23  N   UNL     1       2.779   3.106  18.555  0.00  0.00    +0.000 N 
ATOM     24  C   UNL     1       2.824   2.882  19.911  0.00  0.00    +0.000 C 
ATOM     25  O   UNL     1       3.821   2.474  20.498  0.00  0.00    +0.000 OA
ATOM     26  H   UNL     1       2.044   3.695  18.181  0.00  0.00    +0.000 HD
BRANCH  23  27
ATOM     27  C   UNL     1       3.931   2.860  17.715  0.00  0.00    +0.000 C 
BRANCH  27  31
ATOM     28  C   UNL     1       6.305   6.427  17.063  0.00  0.00    +0.000 A 
ATOM     29  C   UNL     1       5.507   5.900  16.047  0.00  0.00    +0.000 A 
ATOM     30  C   UNL     1       4.744   4.750  16.269  0.00  0.00    +0.000 A 
ATOM     31  C   UNL     1       4.787   4.086  17.503  0.00  0.00    +0.000 A 
ATOM     32  C   UNL     1       5.572   4.639  18.526  0.00  0.00    +0.000 A 
ATOM     33  C   UNL     1       6.335   5.792  18.304  0.00  0.00    +0.000 A 
BRANCH  28  35
ATOM     34  C   UNL     1       7.857   8.068  17.752  0.00  0.00    +0.000 C 
ATOM     35  O   UNL     1       7.026   7.541  16.726  0.00  0.00    +0.000 OA
ENDBRANCH  28  35
ENDBRANCH  27  31
ENDBRANCH  23  27
ENDBRANCH  22  24
ENDBRANCH  21  22
ENDBRANCH  20  21
ENDBRANCH   1  20
TORSDOF 8
ENDMDL
MODEL 8
REMARK VINA RESULT:      -8.0      2.994      9.194
REMARK  Name = 
REMARK  12 active torsions:
REMARK  status: ('A' for Active; 'I' for Inactive)
REMARK    1  A    between atoms: C_1  and  O_2
REMARK    2  A    between atoms: O_2  and  C_3
REMARK    3  A    between atoms: C_6  and  C_7
REMARK    4  A    between atoms: C_7  and  N_8
REMARK    5  A    between atoms: C_9  and  C_11
REMARK    6  A    between atoms: C_11  and  C_12
REMARK    7  A    between atoms: C_12  and  C_13
REMARK    8  A    between atoms: C_13  and  N_14
REMARK    9  A    between atoms: C_16  and  C_17
REMARK   10  A    between atoms: C_19  and  C_20
REMARK   11  A    between atoms: N_21  and  C_22
REMARK   12  A    between atoms: C_25  and  C_26
REMARK                            x       y       z     vdW  Elec       q    Type
REMARK                         _______ _______ _______ _____ _____    ______ ____
ROOT
ATOM      1  N   UNL     1       1.984   7.762  19.670  0.00  0.00    +0.000 N 
ATOM      2  N   UNL     1       2.008   6.550  20.354  0.00  0.00    +0.000 NA
ATOM      3  C   UNL     1       2.690   5.536  19.913  0.00  0.00    +0.000 A 
ATOM      4  C   UNL     1       2.660   4.268  20.710  0.00  0.00    +0.000 C 
ATOM      5  C   UNL     1       3.445   5.654  18.692  0.00  0.00    +0.000 A 
ATOM      6  C   UNL     1       4.245   4.776  17.983  0.00  0.00    +0.000 A 
ATOM      7  C   UNL     1       4.681   3.389  18.309  0.00  0.00    +0.000 C 
ATOM      8  N   UNL     1       4.662   5.477  16.850  0.00  0.00    +0.000 N 
ATOM      9  N   UNL     1       4.284   6.793  16.921  0.00  0.00    +0.000 NA
ATOM     10  C   UNL     1       3.479   6.869  17.993  0.00  0.00    +0.000 A 
ATOM     11  C   UNL     1       2.715   8.034  18.480  0.00  0.00    +0.000 A 
ATOM     12  O   UNL     1       2.699   9.123  17.920  0.00  0.00    +0.000 OA
ENDROOT
BRANCH   8  13
ATOM     13  C   UNL     1       5.341   4.980  15.684  0.00  0.00    +0.000 A 
ATOM     14  C   UNL     1       4.683   4.192  14.730  0.00  0.00    +0.000 A 
ATOM     15  C   UNL     1       5.320   3.794  13.551  0.00  0.00    +0.000 A 
ATOM     16  C   UNL     1       6.632   4.191  13.294  0.00  0.00    +0.000 A 
ATOM     17  C   UNL     1       7.272   3.885  11.974  0.00  0.00    +0.000 C 
ATOM     18  C   UNL     1       7.311   4.934  14.265  0.00  0.00    +0.000 A 
ATOM     19  C   UNL     1       6.673   5.341  15.447  0.00  0.00    +0.000 A 
ENDBRANCH   8  13
BRANCH   1  20
ATOM     20  C   UNL     1       1.124   8.778  20.293  0.00  0.00    +0.000 C 
BRANCH  20  21
ATOM     21  C   UNL     1       1.281   8.819  21.816  0.00  0.00    +0.000 C 
BRANCH  21  22
ATOM     22  C   UNL     1       0.551  10.004  22.455  0.00  0.00    +0.000 C 
BRANCH  22  24
ATOM     23  N   UNL     1      -1.160  11.132  21.145  0.00  0.00    +0.000 N 
ATOM     24  C   UNL     1       0.185  11.050  21.419  0.00  0.00    +0.000 C 
ATOM     25  O   UNL     1       1.030  11.756  20.879  0.00  0.00    +0.000 OA
ATOM     26  H   UNL     1      -1.819  10.737  21.806  0.00  0.00    +0.000 HD
BRANCH  23  27
ATOM     27  C   UNL     1      -1.673  12.072  20.172  0.00  0.00    +0.000 C 
BRANCH  27  31
ATOM     28  C   UNL     1      -2.855  10.103  16.495  0.00  0.00    +0.000 A 
ATOM     29  C   UNL     1      -1.625   9.829  17.094  0.00  0.00    +0.000 A 
ATOM     30  C   UNL     1      -1.254  10.468  18.280  0.00  0.00    +0.000 A 
ATOM     31  C   UNL     1      -2.095  11.419  18.877  0.00  0.00    +0.000 A 
ATOM     32  C   UNL     1      -3.341  11.669  18.281  0.00  0.00    +0.000 A 
ATOM     33  C   UNL     1      -3.712  11.027  17.093  0.00  0.00    +0.000 A 
BRANCH  28  35
ATOM     34  C   UNL     1      -3.487  10.252  14.224  0.00  0.00    +0.000 C 
ATOM     35  O   UNL     1      -3.101   9.437  15.326  0.00  0.00    +0.000 OA
ENDBRANCH  28  35
ENDBRANCH  27  31
ENDBRANCH  23  27
ENDBRANCH  22  24
ENDBRANCH  21  22
ENDBRANCH  20  21
ENDBRANCH   1  20
TORSDOF 8
ENDMDL
MODEL 9
REMARK VINA RESULT:      -7.9      2.952      9.115
REMARK  Name = 
REMARK  12 active torsions:
REMARK  status: ('A' for Active; 'I' for Inactive)
REMARK    1  A    between atoms: C_1  and  O_2
REMARK    2  A    between atoms: O_2  and  C_3
REMARK    3  A    between atoms: C_6  and  C_7
REMARK    4  A    between atoms: C_7  and  N_8
REMARK    5  A    between atoms: C_9  and  C_11
REMARK    6  A    between atoms: C_11  and  C_12
REMARK    7  A    between atoms: C_12  and  C_13
REMARK    8  A    between atoms: C_13  and  N_14
REMARK    9  A    between atoms: C_16  and  C_17
REMARK   10  A    between atoms: C_19  and  C_20
REMARK   11  A    between atoms: N_21  and  C_22
REMARK   12  A    between atoms: C_25  and  C_26
REMARK                            x       y       z     vdW  Elec       q    Type
REMARK                         _______ _______ _______ _____ _____    ______ ____
ROOT
ATOM      1  N   UNL     1       1.371   7.242  20.555  0.00  0.00    +0.000 N 
ATOM      2  N   UNL     1       1.514   5.974  21.113  0.00  0.00    +0.000 NA
ATOM      3  C   UNL     1       2.303   5.086  20.588  0.00  0.00    +0.000 A 
ATOM      4  C   UNL     1       2.396   3.747  21.252  0.00  0.00    +0.000 C 
ATOM      5  C   UNL     1       3.055   5.406  19.402  0.00  0.00    +0.000 A 
ATOM      6  C   UNL     1       3.950   4.692  18.626  0.00  0.00    +0.000 A 
ATOM      7  C   UNL     1       4.526   3.331  18.821  0.00  0.00    +0.000 C 
ATOM      8  N   UNL     1       4.305   5.545  17.579  0.00  0.00    +0.000 N 
ATOM      9  N   UNL     1       3.791   6.801  17.773  0.00  0.00    +0.000 NA
ATOM     10  C   UNL     1       2.970   6.683  18.830  0.00  0.00    +0.000 A 
ATOM     11  C   UNL     1       2.083   7.707  19.415  0.00  0.00    +0.000 A 
ATOM     12  O   UNL     1       1.960   8.841  18.967  0.00  0.00    +0.000 OA
ENDROOT
BRANCH   8  13
ATOM     13  C   UNL     1       5.045   5.242  16.384  0.00  0.00    +0.000 A 
ATOM     14  C   UNL     1       6.371   5.663  16.214  0.00  0.00    +0.000 A 
ATOM     15  C   UNL     1       7.118   5.283  15.094  0.00  0.00    +0.000 A 
ATOM     16  C   UNL     1       6.553   4.457  14.123  0.00  0.00    +0.000 A 
ATOM     17  C   UNL     1       7.388   3.935  12.994  0.00  0.00    +0.000 C 
ATOM     18  C   UNL     1       5.214   4.076  14.260  0.00  0.00    +0.000 A 
ATOM     19  C   UNL     1       4.464   4.450  15.386  0.00  0.00    +0.000 A 
ENDBRANCH   8  13
BRANCH   1  20
ATOM     20  C   UNL     1       0.403   8.095  21.259  0.00  0.00    +0.000 C 
BRANCH  20  21
ATOM     21  C   UNL     1       1.068   8.987  22.310  0.00  0.00    +0.000 C 
BRANCH  21  22
ATOM     22  C   UNL     1       0.064   9.597  23.291  0.00  0.00    +0.000 C 
BRANCH  22  24
ATOM     23  N   UNL     1      -0.364  11.001  21.351  0.00  0.00    +0.000 N 
ATOM     24  C   UNL     1      -0.758  10.689  22.631  0.00  0.00    +0.000 C 
ATOM     25  O   UNL     1      -1.692  11.240  23.205  0.00  0.00    +0.000 OA
ATOM     26  H   UNL     1       0.210  10.339  20.840  0.00  0.00    +0.000 HD
BRANCH  23  27
ATOM     27  C   UNL     1      -1.038  12.028  20.587  0.00  0.00    +0.000 C 
BRANCH  27  31
ATOM     28  C   UNL     1      -3.031  10.608  17.010  0.00  0.00    +0.000 A 
ATOM     29  C   UNL     1      -3.664  11.495  17.880  0.00  0.00    +0.000 A 
ATOM     30  C   UNL     1      -3.011  11.948  19.030  0.00  0.00    +0.000 A 
ATOM     31  C   UNL     1      -1.722  11.498  19.348  0.00  0.00    +0.000 A 
ATOM     32  C   UNL     1      -1.083  10.626  18.453  0.00  0.00    +0.000 A 
ATOM     33  C   UNL     1      -1.738  10.174  17.301  0.00  0.00    +0.000 A 
BRANCH  28  35
ATOM     34  C   UNL     1      -3.100  10.243  14.677  0.00  0.00    +0.000 C 
ATOM     35  O   UNL     1      -3.773  10.213  15.930  0.00  0.00    +0.000 OA
ENDBRANCH  28  35
ENDBRANCH  27  31
ENDBRANCH  23  27
ENDBRANCH  22  24
ENDBRANCH  21  22
ENDBRANCH  20  21
ENDBRANCH   1  20
TORSDOF 8
ENDMDL
