MODEL 1
REMARK VINA RESULT:      -7.7      0.000      0.000
REMARK  Name = 
REMARK  4 active torsions:
REMARK  status: ('A' for Active; 'I' for Inactive)
REMARK    1  A    between atoms: C_1  and  N_2
REMARK    2  A    between atoms: C_3  and  C_4
REMARK    3  A    between atoms: C_5  and  C_6
REMARK    4  A    between atoms: C_9  and  O_10
REMARK                            x       y       z     vdW  Elec       q    Type
REMARK                         _______ _______ _______ _____ _____    ______ ____
ROOT
ATOM      1  C   UNL     1       7.762  12.484  17.186  0.00  0.00    +0.000 C 
ATOM      2  N   UNL     1       8.910  12.216  18.079  0.00  0.00    +0.000 N 
ATOM      3  C   UNL     1       9.161  10.940  18.580  0.00  0.00    +0.000 A 
ATOM      4  C   UNL     1      10.232  10.752  19.479  0.00  0.00    +0.000 A 
ATOM      5  C   UNL     1      11.036  11.808  19.858  0.00  0.00    +0.000 A 
ATOM      6  C   UNL     1      10.802  13.075  19.349  0.00  0.00    +0.000 A 
ATOM      7  C   UNL     1      11.631  14.141  19.733  0.00  0.00    +0.000 A 
ATOM      8  C   UNL     1      11.410  15.420  19.230  0.00  0.00    +0.000 A 
ATOM      9  C   UNL     1      10.363  15.645  18.341  0.00  0.00    +0.000 A 
ATOM     10  C   UNL     1       9.526  14.596  17.952  0.00  0.00    +0.000 A 
ATOM     11  C   UNL     1       9.724  13.280  18.448  0.00  0.00    +0.000 A 
ENDROOT
BRANCH   3  12
ATOM     12  C   UNL     1       8.373   9.729  18.152  0.00  0.00    +0.000 C 
ATOM     13  C   UNL     1       8.567   8.493  18.658  0.00  0.00    +0.000 C 
BRANCH  13  14
ATOM     14  C   UNL     1       7.859   7.259  18.214  0.00  0.00    +0.000 A 
ATOM     15  C   UNL     1       7.989   6.008  18.854  0.00  0.00    +0.000 A 
ATOM     16  C   UNL     1       7.261   4.902  18.401  0.00  0.00    +0.000 A 
ATOM     17  C   UNL     1       6.401   5.022  17.300  0.00  0.00    +0.000 A 
ATOM     18  C   UNL     1       6.274   6.256  16.656  0.00  0.00    +0.000 A 
ATOM     19  F   UNL     1       5.444   6.386  15.591  0.00  0.00    +0.000 F 
ATOM     20  C   UNL     1       6.992   7.363  17.110  0.00  0.00    +0.000 A 
BRANCH  17  21
ATOM     21  O   UNL     1       5.689   3.965  16.862  0.00  0.00    +0.000 OA
ATOM     22  H   UNL     1       5.181   3.992  16.039  0.00  0.00    +0.000 HD
ENDBRANCH  17  21
ENDBRANCH  13  14
ENDBRANCH   3  12
TORSDOF 3
ENDMDL
MODEL 2
REMARK VINA RESULT:      -7.7      1.203      1.735
REMARK  Name = 
REMARK  4 active torsions:
REMARK  status: ('A' for Active; 'I' for Inactive)
REMARK    1  A    between atoms: C_1  and  N_2
REMARK    2  A    between atoms: C_3  and  C_4
REMARK    3  A    between atoms: C_5  and  C_6
REMARK    4  A    between atoms: C_9  and  O_10
REMARK                            x       y       z     vdW  Elec       q    Type
REMARK                         _______ _______ _______ _____ _____    ______ ____
ROOT
ATOM      1  C   UNL     1       9.080  11.313  21.410  0.00  0.00    +0.000 C 
ATOM      2  N   UNL     1       9.612  11.744  20.099  0.00  0.00    +0.000 N 
ATOM      3  C   UNL     1       9.631  10.884  19.002  0.00  0.00    +0.000 A 
ATOM      4  C   UNL     1      10.209  11.324  17.792  0.00  0.00    +0.000 A 
ATOM      5  C   UNL     1      10.744  12.592  17.679  0.00  0.00    +0.000 A 
ATOM      6  C   UNL     1      10.713  13.457  18.762  0.00  0.00    +0.000 A 
ATOM      7  C   UNL     1      11.250  14.747  18.634  0.00  0.00    +0.000 A 
ATOM      8  C   UNL     1      11.225  15.628  19.712  0.00  0.00    +0.000 A 
ATOM      9  C   UNL     1      10.665  15.230  20.922  0.00  0.00    +0.000 A 
ATOM     10  C   UNL     1      10.129  13.948  21.066  0.00  0.00    +0.000 A 
ATOM     11  C   UNL     1      10.139  13.025  19.986  0.00  0.00    +0.000 A 
ENDROOT
BRANCH   3  12
ATOM     12  C   UNL     1       8.998   9.517  19.030  0.00  0.00    +0.000 C 
ATOM     13  C   UNL     1       8.407   8.945  17.961  0.00  0.00    +0.000 C 
BRANCH  13  14
ATOM     14  C   UNL     1       7.710   7.627  17.963  0.00  0.00    +0.000 A 
ATOM     15  C   UNL     1       8.112   6.530  18.755  0.00  0.00    +0.000 A 
ATOM     16  C   UNL     1       7.384   5.335  18.730  0.00  0.00    +0.000 A 
ATOM     17  C   UNL     1       6.251   5.212  17.913  0.00  0.00    +0.000 A 
ATOM     18  C   UNL     1       5.853   6.291  17.120  0.00  0.00    +0.000 A 
ATOM     19  F   UNL     1       4.758   6.185  16.325  0.00  0.00    +0.000 F 
ATOM     20  C   UNL     1       6.571   7.487  17.147  0.00  0.00    +0.000 A 
BRANCH  17  21
ATOM     21  O   UNL     1       5.538   4.068  17.889  0.00  0.00    +0.000 OA
ATOM     22  H   UNL     1       5.289   3.634  17.062  0.00  0.00    +0.000 HD
ENDBRANCH  17  21
ENDBRANCH  13  14
ENDBRANCH   3  12
TORSDOF 3
ENDMDL
MODEL 3
REMARK VINA RESULT:      -7.5      7.327      8.579
REMARK  Name = 
REMARK  4 active torsions:
REMARK  status: ('A' for Active; 'I' for Inactive)
REMARK    1  A    between atoms: C_1  and  N_2
REMARK    2  A    between atoms: C_3  and  C_4
REMARK    3  A    between atoms: C_5  and  C_6
REMARK    4  A    between atoms: C_9  and  O_10
REMARK                            x       y       z     vdW  Elec       q    Type
REMARK                         _______ _______ _______ _____ _____    ______ ____
ROOT
ATOM      1  C   UNL     1       0.208  10.106  18.444  0.00  0.00    +0.000 C 
ATOM      2  N   UNL     1       0.302   9.844  19.896  0.00  0.00    +0.000 N 
ATOM      3  C   UNL     1       1.108   8.827  20.402  0.00  0.00    +0.000 A 
ATOM      4  C   UNL     1       1.111   8.577  21.791  0.00  0.00    +0.000 A 
ATOM      5  C   UNL     1       0.338   9.332  22.651  0.00  0.00    +0.000 A 
ATOM      6  C   UNL     1      -0.453  10.356  22.155  0.00  0.00    +0.000 A 
ATOM      7  C   UNL     1      -1.228  11.124  23.038  0.00  0.00    +0.000 A 
ATOM      8  C   UNL     1      -2.026  12.157  22.556  0.00  0.00    +0.000 A 
ATOM      9  C   UNL     1      -2.057  12.432  21.192  0.00  0.00    +0.000 A 
ATOM     10  C   UNL     1      -1.294  11.675  20.299  0.00  0.00    +0.000 A 
ATOM     11  C   UNL     1      -0.470  10.614  20.759  0.00  0.00    +0.000 A 
ENDROOT
BRANCH   3  12
ATOM     12  C   UNL     1       2.034   8.015  19.534  0.00  0.00    +0.000 C 
ATOM     13  C   UNL     1       2.387   6.741  19.803  0.00  0.00    +0.000 C 
BRANCH  13  14
ATOM     14  C   UNL     1       3.352   5.927  19.010  0.00  0.00    +0.000 A 
ATOM     15  C   UNL     1       3.897   4.705  19.455  0.00  0.00    +0.000 A 
ATOM     16  C   UNL     1       4.769   3.979  18.636  0.00  0.00    +0.000 A 
ATOM     17  C   UNL     1       5.117   4.462  17.367  0.00  0.00    +0.000 A 
ATOM     18  C   UNL     1       4.587   5.677  16.923  0.00  0.00    +0.000 A 
ATOM     19  F   UNL     1       4.914   6.155  15.696  0.00  0.00    +0.000 F 
ATOM     20  C   UNL     1       3.711   6.400  17.733  0.00  0.00    +0.000 A 
BRANCH  17  21
ATOM     21  O   UNL     1       5.949   3.766  16.567  0.00  0.00    +0.000 OA
ATOM     22  H   UNL     1       6.116   4.023  15.649  0.00  0.00    +0.000 HD
ENDBRANCH  17  21
ENDBRANCH  13  14
ENDBRANCH   3  12
TORSDOF 3
ENDMDL
MODEL 4
REMARK VINA RESULT:      -7.5      7.467      8.148
REMARK  Name = 
REMARK  4 active torsions:
REMARK  status: ('A' for Active; 'I' for Inactive)
REMARK    1  A    between atoms: C_1  and  N_2
REMARK    2  A    between atoms: C_3  and  C_4
REMARK    3  A    between atoms: C_5  and  C_6
REMARK    4  A    between atoms: C_9  and  O_10
REMARK                            x       y       z     vdW  Elec       q    Type
REMARK                         _______ _______ _______ _____ _____    ______ ____
ROOT
ATOM      1  C   UNL     1       1.032   8.247  21.620  0.00  0.00    +0.000 C 
ATOM      2  N   UNL     1       1.258   8.900  20.312  0.00  0.00    +0.000 N 
ATOM      3  C   UNL     1       1.910   8.242  19.272  0.00  0.00    +0.000 A 
ATOM      4  C   UNL     1       2.157   8.933  18.067  0.00  0.00    +0.000 A 
ATOM      5  C   UNL     1       1.753  10.243  17.903  0.00  0.00    +0.000 A 
ATOM      6  C   UNL     1       1.088  10.897  18.928  0.00  0.00    +0.000 A 
ATOM      7  C   UNL     1       0.672  12.226  18.748  0.00  0.00    +0.000 A 
ATOM      8  C   UNL     1       0.003  12.896  19.768  0.00  0.00    +0.000 A 
ATOM      9  C   UNL     1      -0.257  12.248  20.971  0.00  0.00    +0.000 A 
ATOM     10  C   UNL     1       0.153  10.928  21.167  0.00  0.00    +0.000 A 
ATOM     11  C   UNL     1       0.839  10.215  20.148  0.00  0.00    +0.000 A 
ENDROOT
BRANCH   3  12
ATOM     12  C   UNL     1       2.311   6.791  19.352  0.00  0.00    +0.000 C 
ATOM     13  C   UNL     1       2.482   6.002  18.272  0.00  0.00    +0.000 C 
BRANCH  13  14
ATOM     14  C   UNL     1       2.810   4.548  18.309  0.00  0.00    +0.000 A 
ATOM     15  C   UNL     1       2.293   3.605  17.396  0.00  0.00    +0.000 A 
ATOM     16  C   UNL     1       2.679   2.262  17.473  0.00  0.00    +0.000 A 
ATOM     17  C   UNL     1       3.576   1.837  18.463  0.00  0.00    +0.000 A 
ATOM     18  C   UNL     1       4.086   2.765  19.375  0.00  0.00    +0.000 A 
ATOM     19  F   UNL     1       4.956   2.367  20.337  0.00  0.00    +0.000 F 
ATOM     20  C   UNL     1       3.710   4.106  19.298  0.00  0.00    +0.000 A 
BRANCH  17  21
ATOM     21  O   UNL     1       3.961   0.547  18.539  0.00  0.00    +0.000 OA
ATOM     22  H   UNL     1       3.563  -0.073  19.167  0.00  0.00    +0.000 HD
ENDBRANCH  17  21
ENDBRANCH  13  14
ENDBRANCH   3  12
TORSDOF 3
ENDMDL
MODEL 5
REMARK VINA RESULT:      -7.5      0.882      2.002
REMARK  Name = 
REMARK  4 active torsions:
REMARK  status: ('A' for Active; 'I' for Inactive)
REMARK    1  A    between atoms: C_1  and  N_2
REMARK    2  A    between atoms: C_3  and  C_4
REMARK    3  A    between atoms: C_5  and  C_6
REMARK    4  A    between atoms: C_9  and  O_10
REMARK                            x       y       z     vdW  Elec       q    Type
REMARK                         _______ _______ _______ _____ _____    ______ ____
ROOT
ATOM      1  C   UNL     1      11.323  11.305  19.727  0.00  0.00    +0.000 C 
ATOM      2  N   UNL     1      10.304  12.082  18.988  0.00  0.00    +0.000 N 
ATOM      3  C   UNL     1       9.199  11.467  18.406  0.00  0.00    +0.000 A 
ATOM      4  C   UNL     1       8.291  12.246  17.657  0.00  0.00    +0.000 A 
ATOM      5  C   UNL     1       8.479  13.605  17.505  0.00  0.00    +0.000 A 
ATOM      6  C   UNL     1       9.568  14.226  18.096  0.00  0.00    +0.000 A 
ATOM      7  C   UNL     1       9.745  15.610  17.944  0.00  0.00    +0.000 A 
ATOM      8  C   UNL     1      10.833  16.248  18.532  0.00  0.00    +0.000 A 
ATOM      9  C   UNL     1      11.751  15.512  19.276  0.00  0.00    +0.000 A 
ATOM     10  C   UNL     1      11.590  14.134  19.435  0.00  0.00    +0.000 A 
ATOM     11  C   UNL     1      10.492  13.452  18.847  0.00  0.00    +0.000 A 
ENDROOT
BRANCH   3  12
ATOM     12  C   UNL     1       8.889  10.004  18.595  0.00  0.00    +0.000 C 
ATOM     13  C   UNL     1       8.128   9.285  17.744  0.00  0.00    +0.000 C 
BRANCH  13  14
ATOM     14  C   UNL     1       7.742   7.857  17.929  0.00  0.00    +0.000 A 
ATOM     15  C   UNL     1       8.326   7.006  18.891  0.00  0.00    +0.000 A 
ATOM     16  C   UNL     1       7.883   5.686  19.030  0.00  0.00    +0.000 A 
ATOM     17  C   UNL     1       6.859   5.191  18.208  0.00  0.00    +0.000 A 
ATOM     18  C   UNL     1       6.282   6.026  17.248  0.00  0.00    +0.000 A 
ATOM     19  F   UNL     1       5.291   5.561  16.448  0.00  0.00    +0.000 F 
ATOM     20  C   UNL     1       6.715   7.345  17.111  0.00  0.00    +0.000 A 
BRANCH  17  21
ATOM     21  O   UNL     1       6.420   3.924  18.340  0.00  0.00    +0.000 OA
ATOM     22  H   UNL     1       5.788   3.666  19.026  0.00  0.00    +0.000 HD
ENDBRANCH  17  21
ENDBRANCH  13  14
ENDBRANCH   3  12
TORSDOF 3
ENDMDL
MODEL 6
REMARK VINA RESULT:      -7.4      7.059      8.388
REMARK  Name = 
REMARK  4 active torsions:
REMARK  status: ('A' for Active; 'I' for Inactive)
REMARK    1  A    between atoms: C_1  and  N_2
REMARK    2  A    between atoms: C_3  and  C_4
REMARK    3  A    between atoms: C_5  and  C_6
REMARK    4  A    between atoms: C_9  and  O_10
REMARK                            x       y       z     vdW  Elec       q    Type
REMARK                         _______ _______ _______ _____ _____    ______ ____
ROOT
ATOM      1  C   UNL     1       0.901  10.444  18.370  0.00  0.00    +0.000 C 
ATOM      2  N   UNL     1       0.805   9.843  19.718  0.00  0.00    +0.000 N 
ATOM      3  C   UNL     1       1.382   8.609  20.008  0.00  0.00    +0.000 A 
ATOM      4  C   UNL     1       1.206   8.051  21.292  0.00  0.00    +0.000 A 
ATOM      5  C   UNL     1       0.482   8.715  22.262  0.00  0.00    +0.000 A 
ATOM      6  C   UNL     1      -0.080   9.951  21.984  0.00  0.00    +0.000 A 
ATOM      7  C   UNL     1      -0.807  10.622  22.980  0.00  0.00    +0.000 A 
ATOM      8  C   UNL     1      -1.376  11.865  22.717  0.00  0.00    +0.000 A 
ATOM      9  C   UNL     1      -1.226  12.446  21.462  0.00  0.00    +0.000 A 
ATOM     10  C   UNL     1      -0.508  11.790  20.459  0.00  0.00    +0.000 A 
ATOM     11  C   UNL     1       0.085  10.520  20.695  0.00  0.00    +0.000 A 
ENDROOT
BRANCH   3  12
ATOM     12  C   UNL     1       2.249   7.865  19.025  0.00  0.00    +0.000 C 
ATOM     13  C   UNL     1       2.542   6.553  19.130  0.00  0.00    +0.000 C 
BRANCH  13  14
ATOM     14  C   UNL     1       3.449   5.796  18.220  0.00  0.00    +0.000 A 
ATOM     15  C   UNL     1       4.404   6.407  17.381  0.00  0.00    +0.000 A 
ATOM     16  C   UNL     1       5.246   5.625  16.581  0.00  0.00    +0.000 A 
ATOM     17  C   UNL     1       5.143   4.227  16.599  0.00  0.00    +0.000 A 
ATOM     18  C   UNL     1       4.193   3.615  17.422  0.00  0.00    +0.000 A 
ATOM     19  F   UNL     1       4.085   2.264  17.449  0.00  0.00    +0.000 F 
ATOM     20  C   UNL     1       3.358   4.391  18.227  0.00  0.00    +0.000 A 
BRANCH  17  21
ATOM     21  O   UNL     1       5.955   3.465  15.839  0.00  0.00    +0.000 OA
ATOM     22  H   UNL     1       6.777   3.807  15.460  0.00  0.00    +0.000 HD
ENDBRANCH  17  21
ENDBRANCH  13  14
ENDBRANCH   3  12
TORSDOF 3
ENDMDL
MODEL 7
REMARK VINA RESULT:      -7.4      7.780      8.702
REMARK  Name = 
REMARK  4 active torsions:
REMARK  status: ('A' for Active; 'I' for Inactive)
REMARK    1  A    between atoms: C_1  and  N_2
REMARK    2  A    between atoms: C_3  and  C_4
REMARK    3  A    between atoms: C_5  and  C_6
REMARK    4  A    between atoms: C_9  and  O_10
REMARK                            x       y       z     vdW  Elec       q    Type
REMARK                         _______ _______ _______ _____ _____    ______ ____
ROOT
ATOM      1  C   UNL     1       1.099   9.474  18.317  0.00  0.00    +0.000 C 
ATOM      2  N   UNL     1       0.703   9.630  19.733  0.00  0.00    +0.000 N 
ATOM      3  C   UNL     1       1.033   8.675  20.692  0.00  0.00    +0.000 A 
ATOM      4  C   UNL     1       0.574   8.842  22.016  0.00  0.00    +0.000 A 
ATOM      5  C   UNL     1      -0.183   9.939  22.374  0.00  0.00    +0.000 A 
ATOM      6  C   UNL     1      -0.500  10.901  21.428  0.00  0.00    +0.000 A 
ATOM      7  C   UNL     1      -1.263  12.017  21.803  0.00  0.00    +0.000 A 
ATOM      8  C   UNL     1      -1.589  12.993  20.865  0.00  0.00    +0.000 A 
ATOM      9  C   UNL     1      -1.156  12.863  19.549  0.00  0.00    +0.000 A 
ATOM     10  C   UNL     1      -0.399  11.756  19.159  0.00  0.00    +0.000 A 
ATOM     11  C   UNL     1      -0.050  10.743  20.091  0.00  0.00    +0.000 A 
ENDROOT
BRANCH   3  12
ATOM     12  C   UNL     1       1.920   7.494  20.391  0.00  0.00    +0.000 C 
ATOM     13  C   UNL     1       1.582   6.217  20.665  0.00  0.00    +0.000 C 
BRANCH  13  14
ATOM     14  C   UNL     1       2.455   5.028  20.448  0.00  0.00    +0.000 A 
ATOM     15  C   UNL     1       2.207   3.760  21.013  0.00  0.00    +0.000 A 
ATOM     16  C   UNL     1       3.054   2.682  20.731  0.00  0.00    +0.000 A 
ATOM     17  C   UNL     1       4.163   2.852  19.891  0.00  0.00    +0.000 A 
ATOM     18  C   UNL     1       4.420   4.108  19.334  0.00  0.00    +0.000 A 
ATOM     19  F   UNL     1       5.489   4.287  18.519  0.00  0.00    +0.000 F 
ATOM     20  C   UNL     1       3.574   5.184  19.606  0.00  0.00    +0.000 A 
BRANCH  17  21
ATOM     21  O   UNL     1       4.979   1.818  19.606  0.00  0.00    +0.000 OA
ATOM     22  H   UNL     1       4.721   0.899  19.763  0.00  0.00    +0.000 HD
ENDBRANCH  17  21
ENDBRANCH  13  14
ENDBRANCH   3  12
TORSDOF 3
ENDMDL
MODEL 8
REMARK VINA RESULT:      -7.4      6.900      8.061
REMARK  Name = 
REMARK  4 active torsions:
REMARK  status: ('A' for Active; 'I' for Inactive)
REMARK    1  A    between atoms: C_1  and  N_2
REMARK    2  A    between atoms: C_3  and  C_4
REMARK    3  A    between atoms: C_5  and  C_6
REMARK    4  A    between atoms: C_9  and  O_10
REMARK                            x       y       z     vdW  Elec       q    Type
REMARK                         _______ _______ _______ _____ _____    ______ ____
ROOT
ATOM      1  C   UNL     1       1.436   7.452  20.956  0.00  0.00    +0.000 C 
ATOM      2  N   UNL     1       1.243   8.672  20.144  0.00  0.00    +0.000 N 
ATOM      3  C   UNL     1       1.708   8.756  18.833  0.00  0.00    +0.000 A 
ATOM      4  C   UNL     1       1.555   9.966  18.124  0.00  0.00    +0.000 A 
ATOM      5  C   UNL     1       0.945  11.059  18.706  0.00  0.00    +0.000 A 
ATOM      6  C   UNL     1       0.465  10.976  20.004  0.00  0.00    +0.000 A 
ATOM      7  C   UNL     1      -0.163  12.089  20.583  0.00  0.00    +0.000 A 
ATOM      8  C   UNL     1      -0.651  12.022  21.885  0.00  0.00    +0.000 A 
ATOM      9  C   UNL     1      -0.517  10.845  22.617  0.00  0.00    +0.000 A 
ATOM     10  C   UNL     1       0.108   9.730  22.055  0.00  0.00    +0.000 A 
ATOM     11  C   UNL     1       0.618   9.766  20.730  0.00  0.00    +0.000 A 
ENDROOT
BRANCH   3  12
ATOM     12  C   UNL     1       2.314   7.581  18.109  0.00  0.00    +0.000 C 
ATOM     13  C   UNL     1       3.641   7.422  17.921  0.00  0.00    +0.000 C 
BRANCH  13  14
ATOM     14  C   UNL     1       4.277   6.314  17.153  0.00  0.00    +0.000 A 
ATOM     15  C   UNL     1       5.176   6.516  16.085  0.00  0.00    +0.000 A 
ATOM     16  C   UNL     1       5.761   5.423  15.436  0.00  0.00    +0.000 A 
ATOM     17  C   UNL     1       5.454   4.114  15.835  0.00  0.00    +0.000 A 
ATOM     18  C   UNL     1       4.557   3.906  16.887  0.00  0.00    +0.000 A 
ATOM     19  F   UNL     1       4.253   2.645  17.284  0.00  0.00    +0.000 F 
ATOM     20  C   UNL     1       3.978   4.994  17.542  0.00  0.00    +0.000 A 
BRANCH  17  21
ATOM     21  O   UNL     1       6.019   3.055  15.223  0.00  0.00    +0.000 OA
ATOM     22  H   UNL     1       6.844   3.129  14.723  0.00  0.00    +0.000 HD
ENDBRANCH  17  21
ENDBRANCH  13  14
ENDBRANCH   3  12
TORSDOF 3
ENDMDL
MODEL 9
REMARK VINA RESULT:      -7.3      7.255      8.596
REMARK  Name = 
REMARK  4 active torsions:
REMARK  status: ('A' for Active; 'I' for Inactive)
REMARK    1  A    between atoms: C_1  and  N_2
REMARK    2  A    between atoms: C_3  and  C_4
REMARK    3  A    between atoms: C_5  and  C_6
REMARK    4  A    between atoms: C_9  and  O_10
REMARK                            x       y       z     vdW  Elec       q    Type
REMARK                         _______ _______ _______ _____ _____    ______ ____
ROOT
ATOM      1  C   UNL     1       0.288  10.005  18.389  0.00  0.00    +0.000 C 
ATOM      2  N   UNL     1       0.395   9.738  19.839  0.00  0.00    +0.000 N 
ATOM      3  C   UNL     1       1.168   8.689  20.332  0.00  0.00    +0.000 A 
ATOM      4  C   UNL     1       1.184   8.438  21.721  0.00  0.00    +0.000 A 
ATOM      5  C   UNL     1       0.456   9.222  22.593  0.00  0.00    +0.000 A 
ATOM      6  C   UNL     1      -0.300  10.278  22.110  0.00  0.00    +0.000 A 
ATOM      7  C   UNL     1      -1.029  11.076  23.006  0.00  0.00    +0.000 A 
ATOM      8  C   UNL     1      -1.793  12.141  22.537  0.00  0.00    +0.000 A 
ATOM      9  C   UNL     1      -1.835  12.418  21.174  0.00  0.00    +0.000 A 
ATOM     10  C   UNL     1      -1.118  11.632  20.269  0.00  0.00    +0.000 A 
ATOM     11  C   UNL     1      -0.330  10.537  20.715  0.00  0.00    +0.000 A 
ENDROOT
BRANCH   3  12
ATOM     12  C   UNL     1       2.046   7.841  19.448  0.00  0.00    +0.000 C 
ATOM     13  C   UNL     1       2.336   6.547  19.701  0.00  0.00    +0.000 C 
BRANCH  13  14
ATOM     14  C   UNL     1       3.253   5.695  18.892  0.00  0.00    +0.000 A 
ATOM     15  C   UNL     1       2.832   4.915  17.794  0.00  0.00    +0.000 A 
ATOM     16  C   UNL     1       3.760   4.169  17.059  0.00  0.00    +0.000 A 
ATOM     17  C   UNL     1       5.118   4.181  17.411  0.00  0.00    +0.000 A 
ATOM     18  C   UNL     1       5.540   4.945  18.503  0.00  0.00    +0.000 A 
ATOM     19  F   UNL     1       6.850   4.967  18.853  0.00  0.00    +0.000 F 
ATOM     20  C   UNL     1       4.619   5.697  19.233  0.00  0.00    +0.000 A 
BRANCH  17  21
ATOM     21  O   UNL     1       6.021   3.474  16.704  0.00  0.00    +0.000 OA
ATOM     22  H   UNL     1       6.664   3.897  16.118  0.00  0.00    +0.000 HD
ENDBRANCH  17  21
ENDBRANCH  13  14
ENDBRANCH   3  12
TORSDOF 3
ENDMDL
