MODEL 1
REMARK VINA RESULT:      -8.0      0.000      0.000
REMARK  Name = 
REMARK  13 active torsions:
REMARK  status: ('A' for Active; 'I' for Inactive)
REMARK    1  A    between atoms: C_1  and  C_2
REMARK    2  A    between atoms: C_4  and  C_5
REMARK    3  A    between atoms: C_12  and  C_13
REMARK    4  A    between atoms: C_13  and  C_14
REMARK    5  A    between atoms: C_14  and  O_15
REMARK    6  A    between atoms: O_15  and  C_16
REMARK    7  A    between atoms: C_19  and  C_20
REMARK    8  A    between atoms: C_20  and  C_21
REMARK    9  A    between atoms: C_21  and  C_22
REMARK   10  A    between atoms: C_21  and  C_25
REMARK   11  A    between atoms: C_22  and  O_24
REMARK   12  A    between atoms: C_25  and  C_26
REMARK   13  A    between atoms: C_25  and  C_27
REMARK                            x       y       z     vdW  Elec       q    Type
REMARK                         _______ _______ _______ _____ _____    ______ ____
ROOT
ATOM      1  O   UNL     1       3.194   4.735  19.786  0.00  0.00    +0.000 OA
ENDROOT
BRANCH   1   2
ATOM      2  C   UNL     1       2.823   6.013  19.396  0.00  0.00    +0.000 A 
ATOM      3  C   UNL     1       3.100   6.416  18.103  0.00  0.00    +0.000 A 
ATOM      4  C   UNL     1       2.696   7.695  17.714  0.00  0.00    +0.000 A 
ATOM      5  C   UNL     1       1.978   8.496  18.607  0.00  0.00    +0.000 A 
ATOM      6  C   UNL     1       1.766   7.998  19.884  0.00  0.00    +0.000 A 
ATOM      7  N   UNL     1       2.186   6.796  20.299  0.00  0.00    +0.000 NA
BRANCH   5   8
ATOM      8  C   UNL     1       1.331   9.779  18.172  0.00  0.00    +0.000 C 
BRANCH   8   9
ATOM      9  C   UNL     1       0.330  10.395  19.167  0.00  0.00    +0.000 C 
BRANCH   9  10
ATOM     10  C   UNL     1      -0.878  11.027  18.410  0.00  0.00    +0.000 C 
ATOM     11  C   UNL     1      -1.650  10.036  17.526  0.00  0.00    +0.000 C 
ATOM     12  C   UNL     1      -1.874  11.667  19.382  0.00  0.00    +0.000 C 
ENDBRANCH   9  10
BRANCH   9  13
ATOM     13  C   UNL     1       1.056  11.486  19.955  0.00  0.00    +0.000 C 
ATOM     14  O   UNL     1       1.596  12.453  19.422  0.00  0.00    +0.000 OA
BRANCH  13  15
ATOM     15  O   UNL     1       1.045  11.342  21.292  0.00  0.00    +0.000 OA
ATOM     16  H   UNL     1       0.372  10.752  21.679  0.00  0.00    +0.000 HD
ENDBRANCH  13  15
ENDBRANCH   9  13
ENDBRANCH   8   9
ENDBRANCH   5   8
ENDBRANCH   1   2
BRANCH   1  17
ATOM     17  C   UNL     1       4.038   4.135  18.793  0.00  0.00    +0.000 C 
BRANCH  17  18
ATOM     18  C   UNL     1       5.502   4.477  19.032  0.00  0.00    +0.000 C 
BRANCH  18  24
ATOM     19  C   UNL     1       7.755   6.906  18.332  0.00  0.00    +0.000 C 
ATOM     20  C   UNL     1       7.110   5.858  17.522  0.00  0.00    +0.000 A 
ATOM     21  O   UNL     1       7.438   5.813  16.196  0.00  0.00    +0.000 OA
ATOM     22  C   UNL     1       6.679   4.792  15.687  0.00  0.00    +0.000 A 
ATOM     23  N   UNL     1       5.917   4.195  16.586  0.00  0.00    +0.000 NA
ATOM     24  C   UNL     1       6.189   4.859  17.765  0.00  0.00    +0.000 A 
BRANCH  22  25
ATOM     25  C   UNL     1       6.791   4.544  14.251  0.00  0.00    +0.000 A 
ATOM     26  C   UNL     1       7.696   5.254  13.447  0.00  0.00    +0.000 A 
ATOM     27  C   UNL     1       7.751   5.039  12.068  0.00  0.00    +0.000 A 
ATOM     28  C   UNL     1       6.918   4.093  11.477  0.00  0.00    +0.000 A 
ATOM     29  C   UNL     1       6.027   3.363  12.263  0.00  0.00    +0.000 A 
ATOM     30  C   UNL     1       5.962   3.591  13.639  0.00  0.00    +0.000 A 
ENDBRANCH  22  25
ENDBRANCH  18  24
ENDBRANCH  17  18
ENDBRANCH   1  17
TORSDOF 10
ENDMDL
MODEL 2
REMARK VINA RESULT:      -7.9      1.397      2.156
REMARK  Name = 
REMARK  13 active torsions:
REMARK  status: ('A' for Active; 'I' for Inactive)
REMARK    1  A    between atoms: C_1  and  C_2
REMARK    2  A    between atoms: C_4  and  C_5
REMARK    3  A    between atoms: C_12  and  C_13
REMARK    4  A    between atoms: C_13  and  C_14
REMARK    5  A    between atoms: C_14  and  O_15
REMARK    6  A    between atoms: O_15  and  C_16
REMARK    7  A    between atoms: C_19  and  C_20
REMARK    8  A    between atoms: C_20  and  C_21
REMARK    9  A    between atoms: C_21  and  C_22
REMARK   10  A    between atoms: C_21  and  C_25
REMARK   11  A    between atoms: C_22  and  O_24
REMARK   12  A    between atoms: C_25  and  C_26
REMARK   13  A    between atoms: C_25  and  C_27
REMARK                            x       y       z     vdW  Elec       q    Type
REMARK                         _______ _______ _______ _____ _____    ______ ____
ROOT
ATOM      1  O   UNL     1       3.712   6.149  18.315  0.00  0.00    +0.000 OA
ENDROOT
BRANCH   1   2
ATOM      2  C   UNL     1       2.881   7.216  18.625  0.00  0.00    +0.000 A 
ATOM      3  C   UNL     1       2.600   8.143  17.639  0.00  0.00    +0.000 A 
ATOM      4  C   UNL     1       1.739   9.196  17.954  0.00  0.00    +0.000 A 
ATOM      5  C   UNL     1       1.144   9.248  19.219  0.00  0.00    +0.000 A 
ATOM      6  C   UNL     1       1.507   8.275  20.136  0.00  0.00    +0.000 A 
ATOM      7  N   UNL     1       2.368   7.282  19.876  0.00  0.00    +0.000 NA
BRANCH   5   8
ATOM      8  C   UNL     1       0.049  10.225  19.535  0.00  0.00    +0.000 C 
BRANCH   8   9
ATOM      9  C   UNL     1       0.118  11.573  18.793  0.00  0.00    +0.000 C 
BRANCH   9  10
ATOM     10  C   UNL     1       0.647  12.694  19.740  0.00  0.00    +0.000 C 
ATOM     11  C   UNL     1       0.143  14.101  19.386  0.00  0.00    +0.000 C 
ATOM     12  C   UNL     1       0.277  12.413  21.200  0.00  0.00    +0.000 C 
ENDBRANCH   9  10
BRANCH   9  13
ATOM     13  C   UNL     1      -1.294  11.931  18.330  0.00  0.00    +0.000 C 
ATOM     14  O   UNL     1      -2.292  11.773  19.031  0.00  0.00    +0.000 OA
BRANCH  13  15
ATOM     15  O   UNL     1      -1.384  12.469  17.101  0.00  0.00    +0.000 OA
ATOM     16  H   UNL     1      -0.950  11.997  16.367  0.00  0.00    +0.000 HD
ENDBRANCH  13  15
ENDBRANCH   9  13
ENDBRANCH   8   9
ENDBRANCH   5   8
ENDBRANCH   1   2
BRANCH   1  17
ATOM     17  C   UNL     1       4.440   5.730  19.479  0.00  0.00    +0.000 C 
BRANCH  17  18
ATOM     18  C   UNL     1       5.497   4.693  19.126  0.00  0.00    +0.000 C 
BRANCH  18  24
ATOM     19  C   UNL     1       7.851   6.992  18.329  0.00  0.00    +0.000 C 
ATOM     20  C   UNL     1       7.136   5.962  17.554  0.00  0.00    +0.000 A 
ATOM     21  O   UNL     1       7.431   5.875  16.223  0.00  0.00    +0.000 OA
ATOM     22  C   UNL     1       6.611   4.885  15.752  0.00  0.00    +0.000 A 
ATOM     23  N   UNL     1       5.841   4.344  16.678  0.00  0.00    +0.000 NA
ATOM     24  C   UNL     1       6.172   5.016  17.837  0.00  0.00    +0.000 A 
BRANCH  22  25
ATOM     25  C   UNL     1       6.678   4.604  14.319  0.00  0.00    +0.000 A 
ATOM     26  C   UNL     1       5.814   3.682  13.705  0.00  0.00    +0.000 A 
ATOM     27  C   UNL     1       5.929   3.390  12.344  0.00  0.00    +0.000 A 
ATOM     28  C   UNL     1       6.893   4.033  11.572  0.00  0.00    +0.000 A 
ATOM     29  C   UNL     1       7.746   4.967  12.160  0.00  0.00    +0.000 A 
ATOM     30  C   UNL     1       7.640   5.246  13.525  0.00  0.00    +0.000 A 
ENDBRANCH  22  25
ENDBRANCH  18  24
ENDBRANCH  17  18
ENDBRANCH   1  17
TORSDOF 10
ENDMDL
MODEL 3
REMARK VINA RESULT:      -7.9      1.460      2.216
REMARK  Name = 
REMARK  13 active torsions:
REMARK  status: ('A' for Active; 'I' for Inactive)
REMARK    1  A    between atoms: C_1  and  C_2
REMARK    2  A    between atoms: C_4  and  C_5
REMARK    3  A    between atoms: C_12  and  C_13
REMARK    4  A    between atoms: C_13  and  C_14
REMARK    5  A    between atoms: C_14  and  O_15
REMARK    6  A    between atoms: O_15  and  C_16
REMARK    7  A    between atoms: C_19  and  C_20
REMARK    8  A    between atoms: C_20  and  C_21
REMARK    9  A    between atoms: C_21  and  C_22
REMARK   10  A    between atoms: C_21  and  C_25
REMARK   11  A    between atoms: C_22  and  O_24
REMARK   12  A    between atoms: C_25  and  C_26
REMARK   13  A    between atoms: C_25  and  C_27
REMARK                            x       y       z     vdW  Elec       q    Type
REMARK                         _______ _______ _______ _____ _____    ______ ____
ROOT
ATOM      1  O   UNL     1       2.756   4.469  18.732  0.00  0.00    +0.000 OA
ENDROOT
BRANCH   1   2
ATOM      2  C   UNL     1       2.306   5.631  19.344  0.00  0.00    +0.000 A 
ATOM      3  C   UNL     1       1.752   5.541  20.606  0.00  0.00    +0.000 A 
ATOM      4  C   UNL     1       1.330   6.720  21.223  0.00  0.00    +0.000 A 
ATOM      5  C   UNL     1       1.534   7.947  20.584  0.00  0.00    +0.000 A 
ATOM      6  C   UNL     1       2.088   7.921  19.313  0.00  0.00    +0.000 A 
ATOM      7  N   UNL     1       2.455   6.800  18.678  0.00  0.00    +0.000 NA
BRANCH   5   8
ATOM      8  C   UNL     1       1.305   9.252  21.289  0.00  0.00    +0.000 C 
BRANCH   8   9
ATOM      9  C   UNL     1      -0.161   9.711  21.389  0.00  0.00    +0.000 C 
BRANCH   9  10
ATOM     10  C   UNL     1      -0.450  10.853  20.367  0.00  0.00    +0.000 C 
ATOM     11  C   UNL     1       0.773  11.726  20.043  0.00  0.00    +0.000 C 
ATOM     12  C   UNL     1      -0.996  10.298  19.048  0.00  0.00    +0.000 C 
ENDBRANCH   9  10
BRANCH   9  13
ATOM     13  C   UNL     1      -0.398  10.233  22.807  0.00  0.00    +0.000 C 
ATOM     14  O   UNL     1      -1.330  10.980  23.101  0.00  0.00    +0.000 OA
BRANCH  13  15
ATOM     15  O   UNL     1       0.467   9.797  23.739  0.00  0.00    +0.000 OA
ATOM     16  H   UNL     1       0.138   9.698  24.651  0.00  0.00    +0.000 HD
ENDBRANCH  13  15
ENDBRANCH   9  13
ENDBRANCH   8   9
ENDBRANCH   5   8
ENDBRANCH   1   2
BRANCH   1  17
ATOM     17  C   UNL     1       4.132   4.232  19.062  0.00  0.00    +0.000 C 
BRANCH  17  18
ATOM     18  C   UNL     1       4.946   5.517  18.992  0.00  0.00    +0.000 C 
BRANCH  18  24
ATOM     19  C   UNL     1       7.976   6.933  18.468  0.00  0.00    +0.000 C 
ATOM     20  C   UNL     1       7.078   6.121  17.628  0.00  0.00    +0.000 A 
ATOM     21  O   UNL     1       7.492   5.861  16.352  0.00  0.00    +0.000 OA
ATOM     22  C   UNL     1       6.469   5.138  15.798  0.00  0.00    +0.000 A 
ATOM     23  N   UNL     1       5.462   4.920  16.624  0.00  0.00    +0.000 NA
ATOM     24  C   UNL     1       5.841   5.534  17.800  0.00  0.00    +0.000 A 
BRANCH  22  25
ATOM     25  C   UNL     1       6.620   4.757  14.395  0.00  0.00    +0.000 A 
ATOM     26  C   UNL     1       5.804   3.780  13.803  0.00  0.00    +0.000 A 
ATOM     27  C   UNL     1       6.000   3.393  12.474  0.00  0.00    +0.000 A 
ATOM     28  C   UNL     1       6.998   3.996  11.713  0.00  0.00    +0.000 A 
ATOM     29  C   UNL     1       7.804   4.983  12.278  0.00  0.00    +0.000 A 
ATOM     30  C   UNL     1       7.618   5.357  13.611  0.00  0.00    +0.000 A 
ENDBRANCH  22  25
ENDBRANCH  18  24
ENDBRANCH  17  18
ENDBRANCH   1  17
TORSDOF 10
ENDMDL
MODEL 4
REMARK VINA RESULT:      -7.9      1.033      1.464
REMARK  Name = 
REMARK  13 active torsions:
REMARK  status: ('A' for Active; 'I' for Inactive)
REMARK    1  A    between atoms: C_1  and  C_2
REMARK    2  A    between atoms: C_4  and  C_5
REMARK    3  A    between atoms: C_12  and  C_13
REMARK    4  A    between atoms: C_13  and  C_14
REMARK    5  A    between atoms: C_14  and  O_15
REMARK    6  A    between atoms: O_15  and  C_16
REMARK    7  A    between atoms: C_19  and  C_20
REMARK    8  A    between atoms: C_20  and  C_21
REMARK    9  A    between atoms: C_21  and  C_22
REMARK   10  A    between atoms: C_21  and  C_25
REMARK   11  A    between atoms: C_22  and  O_24
REMARK   12  A    between atoms: C_25  and  C_26
REMARK   13  A    between atoms: C_25  and  C_27
REMARK                            x       y       z     vdW  Elec       q    Type
REMARK                         _______ _______ _______ _____ _____    ______ ____
ROOT
ATOM      1  O   UNL     1       2.975   5.353  19.883  0.00  0.00    +0.000 OA
ENDROOT
BRANCH   1   2
ATOM      2  C   UNL     1       2.526   6.622  19.546  0.00  0.00    +0.000 A 
ATOM      3  C   UNL     1       2.672   7.050  18.241  0.00  0.00    +0.000 A 
ATOM      4  C   UNL     1       2.190   8.318  17.908  0.00  0.00    +0.000 A 
ATOM      5  C   UNL     1       1.527   9.081  18.874  0.00  0.00    +0.000 A 
ATOM      6  C   UNL     1       1.448   8.561  20.156  0.00  0.00    +0.000 A 
ATOM      7  N   UNL     1       1.945   7.370  20.514  0.00  0.00    +0.000 NA
BRANCH   5   8
ATOM      8  C   UNL     1       0.799  10.345  18.518  0.00  0.00    +0.000 C 
BRANCH   8   9
ATOM      9  C   UNL     1       1.023  11.537  19.468  0.00  0.00    +0.000 C 
BRANCH   9  10
ATOM     10  C   UNL     1      -0.281  12.382  19.604  0.00  0.00    +0.000 C 
ATOM     11  C   UNL     1      -0.973  12.684  18.266  0.00  0.00    +0.000 C 
ATOM     12  C   UNL     1      -1.300  11.693  20.517  0.00  0.00    +0.000 C 
ENDBRANCH   9  10
BRANCH   9  13
ATOM     13  C   UNL     1       2.129  12.412  18.878  0.00  0.00    +0.000 C 
ATOM     14  O   UNL     1       2.674  12.171  17.802  0.00  0.00    +0.000 OA
BRANCH  13  15
ATOM     15  O   UNL     1       2.459  13.498  19.599  0.00  0.00    +0.000 OA
ATOM     16  H   UNL     1       2.632  13.375  20.550  0.00  0.00    +0.000 HD
ENDBRANCH  13  15
ENDBRANCH   9  13
ENDBRANCH   8   9
ENDBRANCH   5   8
ENDBRANCH   1   2
BRANCH   1  17
ATOM     17  C   UNL     1       3.862   4.853  18.872  0.00  0.00    +0.000 C 
BRANCH  17  18
ATOM     18  C   UNL     1       5.299   5.282  19.136  0.00  0.00    +0.000 C 
BRANCH  18  24
ATOM     19  C   UNL     1       7.951   7.225  18.327  0.00  0.00    +0.000 C 
ATOM     20  C   UNL     1       7.151   6.239  17.579  0.00  0.00    +0.000 A 
ATOM     21  O   UNL     1       7.492   6.030  16.273  0.00  0.00    +0.000 OA
ATOM     22  C   UNL     1       6.579   5.116  15.819  0.00  0.00    +0.000 A 
ATOM     23  N   UNL     1       5.707   4.733  16.735  0.00  0.00    +0.000 NA
ATOM     24  C   UNL     1       6.066   5.436  17.867  0.00  0.00    +0.000 A 
BRANCH  22  25
ATOM     25  C   UNL     1       6.675   4.735  14.411  0.00  0.00    +0.000 A 
ATOM     26  C   UNL     1       5.840   3.755  13.852  0.00  0.00    +0.000 A 
ATOM     27  C   UNL     1       5.984   3.369  12.517  0.00  0.00    +0.000 A 
ATOM     28  C   UNL     1       6.948   3.975  11.716  0.00  0.00    +0.000 A 
ATOM     29  C   UNL     1       7.772   4.965  12.248  0.00  0.00    +0.000 A 
ATOM     30  C   UNL     1       7.638   5.339  13.588  0.00  0.00    +0.000 A 
ENDBRANCH  22  25
ENDBRANCH  18  24
ENDBRANCH  17  18
ENDBRANCH   1  17
TORSDOF 10
ENDMDL
MODEL 5
REMARK VINA RESULT:      -7.8      2.375      9.143
REMARK  Name = 
REMARK  13 active torsions:
REMARK  status: ('A' for Active; 'I' for Inactive)
REMARK    1  A    between atoms: C_1  and  C_2
REMARK    2  A    between atoms: C_4  and  C_5
REMARK    3  A    between atoms: C_12  and  C_13
REMARK    4  A    between atoms: C_13  and  C_14
REMARK    5  A    between atoms: C_14  and  O_15
REMARK    6  A    between atoms: O_15  and  C_16
REMARK    7  A    between atoms: C_19  and  C_20
REMARK    8  A    between atoms: C_20  and  C_21
REMARK    9  A    between atoms: C_21  and  C_22
REMARK   10  A    between atoms: C_21  and  C_25
REMARK   11  A    between atoms: C_22  and  O_24
REMARK   12  A    between atoms: C_25  and  C_26
REMARK   13  A    between atoms: C_25  and  C_27
REMARK                            x       y       z     vdW  Elec       q    Type
REMARK                         _______ _______ _______ _____ _____    ______ ____
ROOT
ATOM      1  O   UNL     1       1.338   7.235  20.804  0.00  0.00    +0.000 OA
ENDROOT
BRANCH   1   2
ATOM      2  C   UNL     1       2.215   6.998  19.756  0.00  0.00    +0.000 A 
ATOM      3  C   UNL     1       2.300   7.931  18.740  0.00  0.00    +0.000 A 
ATOM      4  C   UNL     1       3.207   7.694  17.705  0.00  0.00    +0.000 A 
ATOM      5  C   UNL     1       4.037   6.570  17.756  0.00  0.00    +0.000 A 
ATOM      6  C   UNL     1       3.860   5.692  18.814  0.00  0.00    +0.000 A 
ATOM      7  N   UNL     1       2.963   5.869  19.793  0.00  0.00    +0.000 NA
BRANCH   5   8
ATOM      8  C   UNL     1       5.175   6.385  16.795  0.00  0.00    +0.000 C 
BRANCH   8   9
ATOM      9  C   UNL     1       6.248   5.363  17.215  0.00  0.00    +0.000 C 
BRANCH   9  10
ATOM     10  C   UNL     1       7.527   6.091  17.730  0.00  0.00    +0.000 C 
ATOM     11  C   UNL     1       7.509   7.612  17.518  0.00  0.00    +0.000 C 
ATOM     12  C   UNL     1       7.761   5.825  19.220  0.00  0.00    +0.000 C 
ENDBRANCH   9  10
BRANCH   9  13
ATOM     13  C   UNL     1       6.606   4.522  15.990  0.00  0.00    +0.000 C 
ATOM     14  O   UNL     1       5.950   3.547  15.629  0.00  0.00    +0.000 OA
BRANCH  13  15
ATOM     15  O   UNL     1       7.682   4.934  15.296  0.00  0.00    +0.000 OA
ATOM     16  H   UNL     1       8.378   4.278  15.108  0.00  0.00    +0.000 HD
ENDBRANCH  13  15
ENDBRANCH   9  13
ENDBRANCH   8   9
ENDBRANCH   5   8
ENDBRANCH   1   2
BRANCH   1  17
ATOM     17  C   UNL     1       1.299   8.636  21.113  0.00  0.00    +0.000 C 
BRANCH  17  18
ATOM     18  C   UNL     1      -0.088   9.217  20.872  0.00  0.00    +0.000 C 
BRANCH  18  24
ATOM     19  C   UNL     1      -1.956  10.141  18.204  0.00  0.00    +0.000 C 
ATOM     20  C   UNL     1      -0.820  10.760  18.909  0.00  0.00    +0.000 A 
ATOM     21  O   UNL     1      -0.369  11.955  18.424  0.00  0.00    +0.000 OA
ATOM     22  C   UNL     1       0.694  12.275  19.227  0.00  0.00    +0.000 A 
ATOM     23  N   UNL     1       0.933  11.385  20.173  0.00  0.00    +0.000 NA
ATOM     24  C   UNL     1      -0.032  10.416  19.989  0.00  0.00    +0.000 A 
BRANCH  22  25
ATOM     25  C   UNL     1       1.415  13.504  18.902  0.00  0.00    +0.000 A 
ATOM     26  C   UNL     1       0.833  14.770  19.078  0.00  0.00    +0.000 A 
ATOM     27  C   UNL     1       1.520  15.930  18.712  0.00  0.00    +0.000 A 
ATOM     28  C   UNL     1       2.808  15.842  18.189  0.00  0.00    +0.000 A 
ATOM     29  C   UNL     1       3.409  14.595  18.027  0.00  0.00    +0.000 A 
ATOM     30  C   UNL     1       2.715  13.434  18.378  0.00  0.00    +0.000 A 
ENDBRANCH  22  25
ENDBRANCH  18  24
ENDBRANCH  17  18
ENDBRANCH   1  17
TORSDOF 10
ENDMDL
MODEL 6
REMARK VINA RESULT:      -7.8      0.943      1.259
REMARK  Name = 
REMARK  13 active torsions:
REMARK  status: ('A' for Active; 'I' for Inactive)
REMARK    1  A    between atoms: C_1  and  C_2
REMARK    2  A    between atoms: C_4  and  C_5
REMARK    3  A    between atoms: C_12  and  C_13
REMARK    4  A    between atoms: C_13  and  C_14
REMARK    5  A    between atoms: C_14  and  O_15
REMARK    6  A    between atoms: O_15  and  C_16
REMARK    7  A    between atoms: C_19  and  C_20
REMARK    8  A    between atoms: C_20  and  C_21
REMARK    9  A    between atoms: C_21  and  C_22
REMARK   10  A    between atoms: C_21  and  C_25
REMARK   11  A    between atoms: C_22  and  O_24
REMARK   12  A    between atoms: C_25  and  C_26
REMARK   13  A    between atoms: C_25  and  C_27
REMARK                            x       y       z     vdW  Elec       q    Type
REMARK                         _______ _______ _______ _____ _____    ______ ____
ROOT
ATOM      1  O   UNL     1       3.986   5.308  18.198  0.00  0.00    +0.000 OA
ENDROOT
BRANCH   1   2
ATOM      2  C   UNL     1       3.356   6.526  18.409  0.00  0.00    +0.000 A 
ATOM      3  C   UNL     1       3.464   7.504  17.438  0.00  0.00    +0.000 A 
ATOM      4  C   UNL     1       2.802   8.715  17.649  0.00  0.00    +0.000 A 
ATOM      5  C   UNL     1       2.007   8.880  18.788  0.00  0.00    +0.000 A 
ATOM      6  C   UNL     1       1.979   7.839  19.704  0.00  0.00    +0.000 A 
ATOM      7  N   UNL     1       2.645   6.687  19.550  0.00  0.00    +0.000 NA
BRANCH   5   8
ATOM      8  C   UNL     1       1.103  10.066  18.955  0.00  0.00    +0.000 C 
BRANCH   8   9
ATOM      9  C   UNL     1      -0.143   9.841  19.831  0.00  0.00    +0.000 C 
BRANCH   9  10
ATOM     10  C   UNL     1      -1.381  10.570  19.224  0.00  0.00    +0.000 C 
ATOM     11  C   UNL     1      -1.266  12.102  19.224  0.00  0.00    +0.000 C 
ATOM     12  C   UNL     1      -1.646  10.117  17.785  0.00  0.00    +0.000 C 
ENDBRANCH   9  10
BRANCH   9  13
ATOM     13  C   UNL     1       0.145  10.412  21.220  0.00  0.00    +0.000 C 
ATOM     14  O   UNL     1       1.063  11.199  21.445  0.00  0.00    +0.000 OA
BRANCH  13  15
ATOM     15  O   UNL     1      -0.695  10.023  22.195  0.00  0.00    +0.000 OA
ATOM     16  H   UNL     1      -1.591   9.739  21.935  0.00  0.00    +0.000 HD
ENDBRANCH  13  15
ENDBRANCH   9  13
ENDBRANCH   8   9
ENDBRANCH   5   8
ENDBRANCH   1   2
BRANCH   1  17
ATOM     17  C   UNL     1       4.686   4.898  19.381  0.00  0.00    +0.000 C 
BRANCH  17  18
ATOM     18  C   UNL     1       6.156   5.291  19.318  0.00  0.00    +0.000 C 
BRANCH  18  24
ATOM     19  C   UNL     1       7.838   7.864  17.899  0.00  0.00    +0.000 C 
ATOM     20  C   UNL     1       7.290   6.600  17.376  0.00  0.00    +0.000 A 
ATOM     21  O   UNL     1       7.450   6.363  16.040  0.00  0.00    +0.000 OA
ATOM     22  C   UNL     1       6.824   5.164  15.825  0.00  0.00    +0.000 A 
ATOM     23  N   UNL     1       6.299   4.633  16.914  0.00  0.00    +0.000 NA
ATOM     24  C   UNL     1       6.597   5.535  17.915  0.00  0.00    +0.000 A 
BRANCH  22  25
ATOM     25  C   UNL     1       6.794   4.677  14.446  0.00  0.00    +0.000 A 
ATOM     26  C   UNL     1       7.694   5.149  13.477  0.00  0.00    +0.000 A 
ATOM     27  C   UNL     1       7.615   4.709  12.153  0.00  0.00    +0.000 A 
ATOM     28  C   UNL     1       6.652   3.774  11.786  0.00  0.00    +0.000 A 
ATOM     29  C   UNL     1       5.763   3.279  12.739  0.00  0.00    +0.000 A 
ATOM     30  C   UNL     1       5.833   3.731  14.059  0.00  0.00    +0.000 A 
ENDBRANCH  22  25
ENDBRANCH  18  24
ENDBRANCH  17  18
ENDBRANCH   1  17
TORSDOF 10
ENDMDL
MODEL 7
REMARK VINA RESULT:      -7.8      2.878     10.448
REMARK  Name = 
REMARK  13 active torsions:
REMARK  status: ('A' for Active; 'I' for Inactive)
REMARK    1  A    between atoms: C_1  and  C_2
REMARK    2  A    between atoms: C_4  and  C_5
REMARK    3  A    between atoms: C_12  and  C_13
REMARK    4  A    between atoms: C_13  and  C_14
REMARK    5  A    between atoms: C_14  and  O_15
REMARK    6  A    between atoms: O_15  and  C_16
REMARK    7  A    between atoms: C_19  and  C_20
REMARK    8  A    between atoms: C_20  and  C_21
REMARK    9  A    between atoms: C_21  and  C_22
REMARK   10  A    between atoms: C_21  and  C_25
REMARK   11  A    between atoms: C_22  and  O_24
REMARK   12  A    between atoms: C_25  and  C_26
REMARK   13  A    between atoms: C_25  and  C_27
REMARK                            x       y       z     vdW  Elec       q    Type
REMARK                         _______ _______ _______ _____ _____    ______ ____
ROOT
ATOM      1  O   UNL     1       1.401   6.959  20.791  0.00  0.00    +0.000 OA
ENDROOT
BRANCH   1   2
ATOM      2  C   UNL     1       2.279   6.828  19.725  0.00  0.00    +0.000 A 
ATOM      3  C   UNL     1       2.287   7.808  18.751  0.00  0.00    +0.000 A 
ATOM      4  C   UNL     1       3.196   7.680  17.699  0.00  0.00    +0.000 A 
ATOM      5  C   UNL     1       4.102   6.615  17.693  0.00  0.00    +0.000 A 
ATOM      6  C   UNL     1       3.999   5.682  18.713  0.00  0.00    +0.000 A 
ATOM      7  N   UNL     1       3.103   5.754  19.707  0.00  0.00    +0.000 NA
BRANCH   5   8
ATOM      8  C   UNL     1       5.238   6.551  16.713  0.00  0.00    +0.000 C 
BRANCH   8   9
ATOM      9  C   UNL     1       6.337   5.518  17.029  0.00  0.00    +0.000 C 
BRANCH   9  10
ATOM     10  C   UNL     1       7.594   6.220  17.629  0.00  0.00    +0.000 C 
ATOM     11  C   UNL     1       7.565   7.752  17.522  0.00  0.00    +0.000 C 
ATOM     12  C   UNL     1       7.788   5.853  19.103  0.00  0.00    +0.000 C 
ENDBRANCH   9  10
BRANCH   9  13
ATOM     13  C   UNL     1       6.723   4.825  15.722  0.00  0.00    +0.000 C 
ATOM     14  O   UNL     1       6.208   3.777  15.339  0.00  0.00    +0.000 OA
BRANCH  13  15
ATOM     15  O   UNL     1       7.655   5.454  14.983  0.00  0.00    +0.000 OA
ATOM     16  H   UNL     1       7.354   5.942  14.195  0.00  0.00    +0.000 HD
ENDBRANCH  13  15
ENDBRANCH   9  13
ENDBRANCH   8   9
ENDBRANCH   5   8
ENDBRANCH   1   2
BRANCH   1  17
ATOM     17  C   UNL     1       1.351   8.324  21.232  0.00  0.00    +0.000 C 
BRANCH  17  18
ATOM     18  C   UNL     1      -0.064   8.726  21.625  0.00  0.00    +0.000 C 
BRANCH  18  24
ATOM     19  C   UNL     1      -0.729  10.493  18.814  0.00  0.00    +0.000 C 
ATOM     20  C   UNL     1      -0.577  10.863  20.232  0.00  0.00    +0.000 A 
ATOM     21  O   UNL     1      -0.706  12.188  20.541  0.00  0.00    +0.000 OA
ATOM     22  C   UNL     1      -0.481  12.251  21.891  0.00  0.00    +0.000 A 
ATOM     23  N   UNL     1      -0.234  11.078  22.445  0.00  0.00    +0.000 NA
ATOM     24  C   UNL     1      -0.301  10.181  21.399  0.00  0.00    +0.000 A 
BRANCH  22  25
ATOM     25  C   UNL     1      -0.509  13.580  22.500  0.00  0.00    +0.000 A 
ATOM     26  C   UNL     1      -1.356  13.881  23.578  0.00  0.00    +0.000 A 
ATOM     27  C   UNL     1      -1.404  15.172  24.111  0.00  0.00    +0.000 A 
ATOM     28  C   UNL     1      -0.589  16.172  23.589  0.00  0.00    +0.000 A 
ATOM     29  C   UNL     1       0.274  15.886  22.532  0.00  0.00    +0.000 A 
ATOM     30  C   UNL     1       0.310  14.599  21.989  0.00  0.00    +0.000 A 
ENDBRANCH  22  25
ENDBRANCH  18  24
ENDBRANCH  17  18
ENDBRANCH   1  17
TORSDOF 10
ENDMDL
MODEL 8
REMARK VINA RESULT:      -7.8      1.505      2.283
REMARK  Name = 
REMARK  13 active torsions:
REMARK  status: ('A' for Active; 'I' for Inactive)
REMARK    1  A    between atoms: C_1  and  C_2
REMARK    2  A    between atoms: C_4  and  C_5
REMARK    3  A    between atoms: C_12  and  C_13
REMARK    4  A    between atoms: C_13  and  C_14
REMARK    5  A    between atoms: C_14  and  O_15
REMARK    6  A    between atoms: O_15  and  C_16
REMARK    7  A    between atoms: C_19  and  C_20
REMARK    8  A    between atoms: C_20  and  C_21
REMARK    9  A    between atoms: C_21  and  C_22
REMARK   10  A    between atoms: C_21  and  C_25
REMARK   11  A    between atoms: C_22  and  O_24
REMARK   12  A    between atoms: C_25  and  C_26
REMARK   13  A    between atoms: C_25  and  C_27
REMARK                            x       y       z     vdW  Elec       q    Type
REMARK                         _______ _______ _______ _____ _____    ______ ____
ROOT
ATOM      1  O   UNL     1       3.563   6.841  18.222  0.00  0.00    +0.000 OA
ENDROOT
BRANCH   1   2
ATOM      2  C   UNL     1       2.605   7.764  18.616  0.00  0.00    +0.000 A 
ATOM      3  C   UNL     1       2.148   8.680  17.688  0.00  0.00    +0.000 A 
ATOM      4  C   UNL     1       1.162   9.584  18.089  0.00  0.00    +0.000 A 
ATOM      5  C   UNL     1       0.628   9.499  19.379  0.00  0.00    +0.000 A 
ATOM      6  C   UNL     1       1.169   8.551  20.233  0.00  0.00    +0.000 A 
ATOM      7  N   UNL     1       2.149   7.704  19.890  0.00  0.00    +0.000 NA
BRANCH   5   8
ATOM      8  C   UNL     1      -0.578  10.294  19.787  0.00  0.00    +0.000 C 
BRANCH   8   9
ATOM      9  C   UNL     1      -0.439  11.824  19.681  0.00  0.00    +0.000 C 
BRANCH   9  10
ATOM     10  C   UNL     1      -1.042  12.519  20.940  0.00  0.00    +0.000 C 
ATOM     11  C   UNL     1      -2.570  12.669  20.900  0.00  0.00    +0.000 C 
ATOM     12  C   UNL     1      -0.675  11.767  22.223  0.00  0.00    +0.000 C 
ENDBRANCH   9  10
BRANCH   9  13
ATOM     13  C   UNL     1      -1.204  12.283  18.439  0.00  0.00    +0.000 C 
ATOM     14  O   UNL     1      -2.061  11.597  17.886  0.00  0.00    +0.000 OA
BRANCH  13  15
ATOM     15  O   UNL     1      -0.904  13.516  17.994  0.00  0.00    +0.000 OA
ATOM     16  H   UNL     1      -0.454  13.590  17.133  0.00  0.00    +0.000 HD
ENDBRANCH  13  15
ENDBRANCH   9  13
ENDBRANCH   8   9
ENDBRANCH   5   8
ENDBRANCH   1   2
BRANCH   1  17
ATOM     17  C   UNL     1       3.320   5.572  18.846  0.00  0.00    +0.000 C 
BRANCH  17  18
ATOM     18  C   UNL     1       4.624   4.876  19.209  0.00  0.00    +0.000 C 
BRANCH  18  24
ATOM     19  C   UNL     1       7.857   5.875  19.092  0.00  0.00    +0.000 C 
ATOM     20  C   UNL     1       6.923   5.343  18.084  0.00  0.00    +0.000 A 
ATOM     21  O   UNL     1       7.398   5.216  16.809  0.00  0.00    +0.000 OA
ATOM     22  C   UNL     1       6.331   4.748  16.089  0.00  0.00    +0.000 A 
ATOM     23  N   UNL     1       5.240   4.565  16.810  0.00  0.00    +0.000 NA
ATOM     24  C   UNL     1       5.606   4.933  18.089  0.00  0.00    +0.000 A 
BRANCH  22  25
ATOM     25  C   UNL     1       6.539   4.560  14.654  0.00  0.00    +0.000 A 
ATOM     26  C   UNL     1       5.787   3.636  13.913  0.00  0.00    +0.000 A 
ATOM     27  C   UNL     1       6.037   3.435  12.553  0.00  0.00    +0.000 A 
ATOM     28  C   UNL     1       7.028   4.173  11.911  0.00  0.00    +0.000 A 
ATOM     29  C   UNL     1       7.771   5.110  12.626  0.00  0.00    +0.000 A 
ATOM     30  C   UNL     1       7.531   5.299  13.989  0.00  0.00    +0.000 A 
ENDBRANCH  22  25
ENDBRANCH  18  24
ENDBRANCH  17  18
ENDBRANCH   1  17
TORSDOF 10
ENDMDL
MODEL 9
REMARK VINA RESULT:      -7.8      0.873      1.399
REMARK  Name = 
REMARK  13 active torsions:
REMARK  status: ('A' for Active; 'I' for Inactive)
REMARK    1  A    between atoms: C_1  and  C_2
REMARK    2  A    between atoms: C_4  and  C_5
REMARK    3  A    between atoms: C_12  and  C_13
REMARK    4  A    between atoms: C_13  and  C_14
REMARK    5  A    between atoms: C_14  and  O_15
REMARK    6  A    between atoms: O_15  and  C_16
REMARK    7  A    between atoms: C_19  and  C_20
REMARK    8  A    between atoms: C_20  and  C_21
REMARK    9  A    between atoms: C_21  and  C_22
REMARK   10  A    between atoms: C_21  and  C_25
REMARK   11  A    between atoms: C_22  and  O_24
REMARK   12  A    between atoms: C_25  and  C_26
REMARK   13  A    between atoms: C_25  and  C_27
REMARK                            x       y       z     vdW  Elec       q    Type
REMARK                         _______ _______ _______ _____ _____    ______ ____
ROOT
ATOM      1  O   UNL     1       2.823   5.483  19.213  0.00  0.00    +0.000 OA
ENDROOT
BRANCH   1   2
ATOM      2  C   UNL     1       2.483   6.818  19.046  0.00  0.00    +0.000 A 
ATOM      3  C   UNL     1       2.756   7.424  17.835  0.00  0.00    +0.000 A 
ATOM      4  C   UNL     1       2.383   8.759  17.669  0.00  0.00    +0.000 A 
ATOM      5  C   UNL     1       1.697   9.418  18.694  0.00  0.00    +0.000 A 
ATOM      6  C   UNL     1       1.486   8.720  19.873  0.00  0.00    +0.000 A 
ATOM      7  N   UNL     1       1.877   7.455  20.076  0.00  0.00    +0.000 NA
BRANCH   5   8
ATOM      8  C   UNL     1       1.081  10.771  18.488  0.00  0.00    +0.000 C 
BRANCH   8   9
ATOM      9  C   UNL     1       0.279  11.330  19.679  0.00  0.00    +0.000 C 
BRANCH   9  10
ATOM     10  C   UNL     1      -1.151  11.755  19.226  0.00  0.00    +0.000 C 
ATOM     11  C   UNL     1      -1.902  10.676  18.432  0.00  0.00    +0.000 C 
ATOM     12  C   UNL     1      -2.021  12.151  20.423  0.00  0.00    +0.000 C 
ENDBRANCH   9  10
BRANCH   9  13
ATOM     13  C   UNL     1       1.022  12.554  20.216  0.00  0.00    +0.000 C 
ATOM     14  O   UNL     1       1.616  12.561  21.292  0.00  0.00    +0.000 OA
BRANCH  13  15
ATOM     15  O   UNL     1       1.015  13.635  19.416  0.00  0.00    +0.000 OA
ATOM     16  H   UNL     1       1.305  14.484  19.799  0.00  0.00    +0.000 HD
ENDBRANCH  13  15
ENDBRANCH   9  13
ENDBRANCH   8   9
ENDBRANCH   5   8
ENDBRANCH   1   2
BRANCH   1  17
ATOM     17  C   UNL     1       4.183   5.367  19.655  0.00  0.00    +0.000 C 
BRANCH  17  18
ATOM     18  C   UNL     1       4.841   4.114  19.095  0.00  0.00    +0.000 C 
BRANCH  18  24
ATOM     19  C   UNL     1       7.795   5.764  18.993  0.00  0.00    +0.000 C 
ATOM     20  C   UNL     1       6.964   5.110  17.967  0.00  0.00    +0.000 A 
ATOM     21  O   UNL     1       7.420   5.157  16.680  0.00  0.00    +0.000 OA
ATOM     22  C   UNL     1       6.452   4.521  15.948  0.00  0.00    +0.000 A 
ATOM     23  N   UNL     1       5.442   4.076  16.672  0.00  0.00    +0.000 NA
ATOM     24  C   UNL     1       5.759   4.437  17.966  0.00  0.00    +0.000 A 
BRANCH  22  25
ATOM     25  C   UNL     1       6.656   4.464  14.501  0.00  0.00    +0.000 A 
ATOM     26  C   UNL     1       5.951   3.560  13.691  0.00  0.00    +0.000 A 
ATOM     27  C   UNL     1       6.198   3.485  12.318  0.00  0.00    +0.000 A 
ATOM     28  C   UNL     1       7.137   4.330  11.732  0.00  0.00    +0.000 A 
ATOM     29  C   UNL     1       7.832   5.249  12.518  0.00  0.00    +0.000 A 
ATOM     30  C   UNL     1       7.595   5.311  13.893  0.00  0.00    +0.000 A 
ENDBRANCH  22  25
ENDBRANCH  18  24
ENDBRANCH  17  18
ENDBRANCH   1  17
TORSDOF 10
ENDMDL
