MODEL 1
REMARK VINA RESULT:      -7.9      0.000      0.000
REMARK  Name = 
REMARK  7 active torsions:
REMARK  status: ('A' for Active; 'I' for Inactive)
REMARK    1  A    between atoms: C_1  and  N_2
REMARK    2  A    between atoms: N_4  and  C_5
REMARK    3  A    between atoms: C_5  and  C_6
REMARK    4  A    between atoms: C_10  and  C_11
REMARK    5  A    between atoms: C_14  and  N_15
REMARK    6  A    between atoms: N_21  and  S_22
REMARK    7  A    between atoms: S_22  and  C_23
REMARK                            x       y       z     vdW  Elec       q    Type
REMARK                         _______ _______ _______ _____ _____    ______ ____
ROOT
ATOM      1  C   UNL     1       2.505   7.133  19.415  0.00  0.00    +0.000 A 
ATOM      2  C   UNL     1       2.716   7.523  18.096  0.00  0.00    +0.000 A 
ATOM      3  C   UNL     1       2.158   8.712  17.648  0.00  0.00    +0.000 A 
ATOM      4  C   UNL     1       1.401   9.476  18.527  0.00  0.00    +0.000 A 
ATOM      5  C   UNL     1       1.214   9.025  19.830  0.00  0.00    +0.000 A 
ATOM      6  N   UNL     1       1.753   7.863  20.285  0.00  0.00    +0.000 NA
ENDROOT
BRANCH   5   7
ATOM      7  C   UNL     1       0.413   9.815  20.763  0.00  0.00    +0.000 A 
ATOM      8  C   UNL     1       0.059   9.396  22.028  0.00  0.00    +0.000 A 
ATOM      9  S   UNL     1      -0.859  10.614  22.812  0.00  0.00    +0.000 S 
ATOM     10  C   UNL     1      -0.746  11.619  21.407  0.00  0.00    +0.000 A 
ATOM     11  N   UNL     1      -0.057  11.078  20.418  0.00  0.00    +0.000 NA
BRANCH  10  12
ATOM     12  N   UNL     1      -1.377  12.823  21.425  0.00  0.00    +0.000 NA
ATOM     13  C   UNL     1      -2.137  13.138  20.432  0.00  0.00    +0.000 C 
ATOM     14  N   UNL     1      -2.401  12.469  19.281  0.00  0.00    +0.000 N 
ATOM     15  N   UNL     1      -2.823  14.306  20.426  0.00  0.00    +0.000 N 
ATOM     16  H   UNL     1      -2.022  11.520  19.322  0.00  0.00    +0.000 HD
ATOM     17  H   UNL     1      -3.391  12.443  19.069  0.00  0.00    +0.000 HD
ATOM     18  H   UNL     1      -2.481  14.939  21.140  0.00  0.00    +0.000 HD
ATOM     19  H   UNL     1      -2.839  14.745  19.513  0.00  0.00    +0.000 HD
ENDBRANCH  10  12
ENDBRANCH   5   7
BRANCH   1  20
ATOM     20  C   UNL     1       3.060   5.813  19.913  0.00  0.00    +0.000 C 
BRANCH  20  24
ATOM     21  C   UNL     1       4.115   1.770  18.886  0.00  0.00    +0.000 C 
ATOM     22  N   UNL     1       3.718   3.144  19.138  0.00  0.00    +0.000 NA
ATOM     23  C   UNL     1       4.544   4.108  18.955  0.00  0.00    +0.000 C 
ATOM     24  N   UNL     1       4.207   5.412  19.114  0.00  0.00    +0.000 N 
ATOM     25  N   UNL     1       5.863   3.889  18.572  0.00  0.00    +0.000 N 
ATOM     26  H   UNL     1       4.998   6.043  19.261  0.00  0.00    +0.000 HD
ATOM     27  H   UNL     1       6.227   2.942  18.578  0.00  0.00    +0.000 HD
BRANCH  25  28
ATOM     28  S   UNL     1       6.946   4.956  17.906  0.00  0.00    +0.000 S 
ATOM     29  C   UNL     1       7.595   5.747  19.362  0.00  0.00    +0.000 C 
ATOM     30  O   UNL     1       8.004   4.199  17.270  0.00  0.00    +0.000 OA
ATOM     31  O   UNL     1       6.159   5.925  17.179  0.00  0.00    +0.000 OA
ENDBRANCH  25  28
ENDBRANCH  20  24
ENDBRANCH   1  20
TORSDOF 5
ENDMDL
MODEL 2
REMARK VINA RESULT:      -7.8      0.786      1.102
REMARK  Name = 
REMARK  7 active torsions:
REMARK  status: ('A' for Active; 'I' for Inactive)
REMARK    1  A    between atoms: C_1  and  N_2
REMARK    2  A    between atoms: N_4  and  C_5
REMARK    3  A    between atoms: C_5  and  C_6
REMARK    4  A    between atoms: C_10  and  C_11
REMARK    5  A    between atoms: C_14  and  N_15
REMARK    6  A    between atoms: N_21  and  S_22
REMARK    7  A    between atoms: S_22  and  C_23
REMARK                            x       y       z     vdW  Elec       q    Type
REMARK                         _______ _______ _______ _____ _____    ______ ____
ROOT
ATOM      1  C   UNL     1       2.538   7.059  19.418  0.00  0.00    +0.000 A 
ATOM      2  C   UNL     1       2.769   7.412  18.092  0.00  0.00    +0.000 A 
ATOM      3  C   UNL     1       2.250   8.606  17.613  0.00  0.00    +0.000 A 
ATOM      4  C   UNL     1       1.509   9.412  18.468  0.00  0.00    +0.000 A 
ATOM      5  C   UNL     1       1.300   8.995  19.779  0.00  0.00    +0.000 A 
ATOM      6  N   UNL     1       1.801   7.829  20.265  0.00  0.00    +0.000 NA
ENDROOT
BRANCH   5   7
ATOM      7  C   UNL     1       0.516   9.830  20.688  0.00  0.00    +0.000 A 
ATOM      8  C   UNL     1       0.082   9.425  21.933  0.00  0.00    +0.000 A 
ATOM      9  S   UNL     1      -0.784  10.694  22.693  0.00  0.00    +0.000 S 
ATOM     10  C   UNL     1      -0.547  11.701  21.305  0.00  0.00    +0.000 A 
ATOM     11  N   UNL     1       0.145  11.124  20.339  0.00  0.00    +0.000 NA
BRANCH  10  12
ATOM     12  N   UNL     1      -1.095  12.945  21.311  0.00  0.00    +0.000 NA
ATOM     13  C   UNL     1      -1.934  13.255  20.382  0.00  0.00    +0.000 C 
ATOM     14  N   UNL     1      -2.359  12.543  19.308  0.00  0.00    +0.000 N 
ATOM     15  N   UNL     1      -2.544  14.466  20.372  0.00  0.00    +0.000 N 
ATOM     16  H   UNL     1      -2.037  11.574  19.370  0.00  0.00    +0.000 HD
ATOM     17  H   UNL     1      -3.365  12.573  19.199  0.00  0.00    +0.000 HD
ATOM     18  H   UNL     1      -2.090  15.112  21.007  0.00  0.00    +0.000 HD
ATOM     19  H   UNL     1      -2.628  14.853  19.440  0.00  0.00    +0.000 HD
ENDBRANCH  10  12
ENDBRANCH   5   7
BRANCH   1  20
ATOM     20  C   UNL     1       3.051   5.735  19.949  0.00  0.00    +0.000 C 
BRANCH  20  24
ATOM     21  C   UNL     1       4.544   1.700  19.858  0.00  0.00    +0.000 C 
ATOM     22  N   UNL     1       3.990   3.041  19.800  0.00  0.00    +0.000 NA
ATOM     23  C   UNL     1       4.655   4.003  19.273  0.00  0.00    +0.000 C 
ATOM     24  N   UNL     1       4.160   5.258  19.137  0.00  0.00    +0.000 N 
ATOM     25  N   UNL     1       5.948   3.830  18.792  0.00  0.00    +0.000 N 
ATOM     26  H   UNL     1       4.868   5.985  19.016  0.00  0.00    +0.000 HD
ATOM     27  H   UNL     1       6.437   2.963  18.992  0.00  0.00    +0.000 HD
BRANCH  25  28
ATOM     28  S   UNL     1       6.807   4.787  17.743  0.00  0.00    +0.000 S 
ATOM     29  C   UNL     1       5.966   4.464  16.208  0.00  0.00    +0.000 C 
ATOM     30  O   UNL     1       6.600   6.173  18.111  0.00  0.00    +0.000 OA
ATOM     31  O   UNL     1       8.129   4.209  17.663  0.00  0.00    +0.000 OA
ENDBRANCH  25  28
ENDBRANCH  20  24
ENDBRANCH   1  20
TORSDOF 5
ENDMDL
MODEL 3
REMARK VINA RESULT:      -7.5      3.275      8.693
REMARK  Name = 
REMARK  7 active torsions:
REMARK  status: ('A' for Active; 'I' for Inactive)
REMARK    1  A    between atoms: C_1  and  N_2
REMARK    2  A    between atoms: N_4  and  C_5
REMARK    3  A    between atoms: C_5  and  C_6
REMARK    4  A    between atoms: C_10  and  C_11
REMARK    5  A    between atoms: C_14  and  N_15
REMARK    6  A    between atoms: N_21  and  S_22
REMARK    7  A    between atoms: S_22  and  C_23
REMARK                            x       y       z     vdW  Elec       q    Type
REMARK                         _______ _______ _______ _____ _____    ______ ____
ROOT
ATOM      1  C   UNL     1       2.062   5.163  19.819  0.00  0.00    +0.000 A 
ATOM      2  C   UNL     1       1.231   4.150  19.350  0.00  0.00    +0.000 A 
ATOM      3  C   UNL     1       1.714   3.275  18.388  0.00  0.00    +0.000 A 
ATOM      4  C   UNL     1       3.010   3.438  17.914  0.00  0.00    +0.000 A 
ATOM      5  C   UNL     1       3.786   4.481  18.412  0.00  0.00    +0.000 A 
ATOM      6  N   UNL     1       3.329   5.347  19.355  0.00  0.00    +0.000 NA
ENDROOT
BRANCH   5   7
ATOM      7  C   UNL     1       5.149   4.669  17.918  0.00  0.00    +0.000 A 
ATOM      8  C   UNL     1       6.282   4.491  18.683  0.00  0.00    +0.000 A 
ATOM      9  S   UNL     1       7.680   4.787  17.737  0.00  0.00    +0.000 S 
ATOM     10  C   UNL     1       6.687   5.157  16.367  0.00  0.00    +0.000 A 
ATOM     11  N   UNL     1       5.392   5.056  16.605  0.00  0.00    +0.000 NA
BRANCH  10  12
ATOM     12  N   UNL     1       7.298   5.535  15.213  0.00  0.00    +0.000 NA
ATOM     13  C   UNL     1       7.089   4.841  14.147  0.00  0.00    +0.000 C 
ATOM     14  N   UNL     1       6.365   3.708  13.964  0.00  0.00    +0.000 N 
ATOM     15  N   UNL     1       7.638   5.205  12.962  0.00  0.00    +0.000 N 
ATOM     16  H   UNL     1       5.816   3.494  14.800  0.00  0.00    +0.000 HD
ATOM     17  H   UNL     1       5.762   3.762  13.152  0.00  0.00    +0.000 HD
ATOM     18  H   UNL     1       8.367   5.896  13.091  0.00  0.00    +0.000 HD
ATOM     19  H   UNL     1       7.964   4.411  12.423  0.00  0.00    +0.000 HD
ENDBRANCH  10  12
ENDBRANCH   5   7
BRANCH   1  20
ATOM     20  C   UNL     1       1.540   6.162  20.832  0.00  0.00    +0.000 C 
BRANCH  20  24
ATOM     21  C   UNL     1       0.305   9.745  22.870  0.00  0.00    +0.000 C 
ATOM     22  N   UNL     1       0.820   8.565  22.200  0.00  0.00    +0.000 NA
ATOM     23  C   UNL     1       0.976   8.550  20.927  0.00  0.00    +0.000 C 
ATOM     24  N   UNL     1       1.511   7.498  20.258  0.00  0.00    +0.000 N 
ATOM     25  N   UNL     1       0.607   9.625  20.125  0.00  0.00    +0.000 N 
ATOM     26  H   UNL     1       1.286   7.468  19.261  0.00  0.00    +0.000 HD
ATOM     27  H   UNL     1       0.068  10.382  20.532  0.00  0.00    +0.000 HD
BRANCH  25  28
ATOM     28  S   UNL     1       1.076   9.976  18.572  0.00  0.00    +0.000 S 
ATOM     29  C   UNL     1       1.474  11.705  18.710  0.00  0.00    +0.000 C 
ATOM     30  O   UNL     1       2.286   9.236  18.279  0.00  0.00    +0.000 OA
ATOM     31  O   UNL     1      -0.111   9.851  17.757  0.00  0.00    +0.000 OA
ENDBRANCH  25  28
ENDBRANCH  20  24
ENDBRANCH   1  20
TORSDOF 5
ENDMDL
MODEL 4
REMARK VINA RESULT:      -7.5      4.051      9.208
REMARK  Name = 
REMARK  7 active torsions:
REMARK  status: ('A' for Active; 'I' for Inactive)
REMARK    1  A    between atoms: C_1  and  N_2
REMARK    2  A    between atoms: N_4  and  C_5
REMARK    3  A    between atoms: C_5  and  C_6
REMARK    4  A    between atoms: C_10  and  C_11
REMARK    5  A    between atoms: C_14  and  N_15
REMARK    6  A    between atoms: N_21  and  S_22
REMARK    7  A    between atoms: S_22  and  C_23
REMARK                            x       y       z     vdW  Elec       q    Type
REMARK                         _______ _______ _______ _____ _____    ______ ____
ROOT
ATOM      1  C   UNL     1       1.276   9.097  19.186  0.00  0.00    +0.000 A 
ATOM      2  C   UNL     1       1.998   9.484  18.061  0.00  0.00    +0.000 A 
ATOM      3  C   UNL     1       2.878   8.582  17.483  0.00  0.00    +0.000 A 
ATOM      4  C   UNL     1       3.019   7.319  18.045  0.00  0.00    +0.000 A 
ATOM      5  C   UNL     1       2.279   6.997  19.179  0.00  0.00    +0.000 A 
ATOM      6  N   UNL     1       1.412   7.869  19.758  0.00  0.00    +0.000 NA
ENDROOT
BRANCH   5   7
ATOM      7  C   UNL     1       2.421   5.674  19.786  0.00  0.00    +0.000 A 
ATOM      8  C   UNL     1       1.779   5.278  20.939  0.00  0.00    +0.000 A 
ATOM      9  S   UNL     1       2.190   3.655  21.310  0.00  0.00    +0.000 S 
ATOM     10  C   UNL     1       3.218   3.587  19.919  0.00  0.00    +0.000 A 
ATOM     11  N   UNL     1       3.243   4.707  19.219  0.00  0.00    +0.000 NA
BRANCH  10  12
ATOM     12  N   UNL     1       3.911   2.441  19.687  0.00  0.00    +0.000 NA
ATOM     13  C   UNL     1       3.552   1.690  18.702  0.00  0.00    +0.000 C 
ATOM     14  N   UNL     1       2.519   1.818  17.831  0.00  0.00    +0.000 N 
ATOM     15  N   UNL     1       4.240   0.561  18.401  0.00  0.00    +0.000 N 
ATOM     16  H   UNL     1       2.075   2.733  17.933  0.00  0.00    +0.000 HD
ATOM     17  H   UNL     1       2.804   1.670  16.870  0.00  0.00    +0.000 HD
ATOM     18  H   UNL     1       4.865   0.300  19.154  0.00  0.00    +0.000 HD
ATOM     19  H   UNL     1       3.634  -0.205  18.133  0.00  0.00    +0.000 HD
ENDBRANCH  10  12
ENDBRANCH   5   7
BRANCH   1  20
ATOM     20  C   UNL     1       0.347  10.083  19.866  0.00  0.00    +0.000 C 
BRANCH  20  24
ATOM     21  C   UNL     1      -0.374  14.129  18.588  0.00  0.00    +0.000 C 
ATOM     22  N   UNL     1      -0.082  12.748  18.929  0.00  0.00    +0.000 NA
ATOM     23  C   UNL     1      -0.943  11.822  18.709  0.00  0.00    +0.000 C 
ATOM     24  N   UNL     1      -0.698  10.510  18.949  0.00  0.00    +0.000 N 
ATOM     25  N   UNL     1      -2.207  12.096  18.197  0.00  0.00    +0.000 N 
ATOM     26  H   UNL     1      -1.535   9.931  19.047  0.00  0.00    +0.000 HD
ATOM     27  H   UNL     1      -2.514  13.061  18.133  0.00  0.00    +0.000 HD
BRANCH  25  28
ATOM     28  S   UNL     1      -3.286  11.062  17.477  0.00  0.00    +0.000 S 
ATOM     29  C   UNL     1      -2.615  10.947  15.833  0.00  0.00    +0.000 C 
ATOM     30  O   UNL     1      -3.182   9.769  18.120  0.00  0.00    +0.000 OA
ATOM     31  O   UNL     1      -4.539  11.778  17.403  0.00  0.00    +0.000 OA
ENDBRANCH  25  28
ENDBRANCH  20  24
ENDBRANCH   1  20
TORSDOF 5
ENDMDL
MODEL 5
REMARK VINA RESULT:      -7.5      3.445      9.039
REMARK  Name = 
REMARK  7 active torsions:
REMARK  status: ('A' for Active; 'I' for Inactive)
REMARK    1  A    between atoms: C_1  and  N_2
REMARK    2  A    between atoms: N_4  and  C_5
REMARK    3  A    between atoms: C_5  and  C_6
REMARK    4  A    between atoms: C_10  and  C_11
REMARK    5  A    between atoms: C_14  and  N_15
REMARK    6  A    between atoms: N_21  and  S_22
REMARK    7  A    between atoms: S_22  and  C_23
REMARK                            x       y       z     vdW  Elec       q    Type
REMARK                         _______ _______ _______ _____ _____    ______ ____
ROOT
ATOM      1  C   UNL     1       1.106   8.960  20.212  0.00  0.00    +0.000 A 
ATOM      2  C   UNL     1       1.070   9.722  19.048  0.00  0.00    +0.000 A 
ATOM      3  C   UNL     1       1.716   9.250  17.915  0.00  0.00    +0.000 A 
ATOM      4  C   UNL     1       2.385   8.034  17.975  0.00  0.00    +0.000 A 
ATOM      5  C   UNL     1       2.397   7.326  19.173  0.00  0.00    +0.000 A 
ATOM      6  N   UNL     1       1.769   7.774  20.293  0.00  0.00    +0.000 NA
ENDROOT
BRANCH   5   7
ATOM      7  C   UNL     1       3.103   6.048  19.253  0.00  0.00    +0.000 A 
ATOM      8  C   UNL     1       2.514   4.859  19.628  0.00  0.00    +0.000 A 
ATOM      9  S   UNL     1       3.668   3.592  19.576  0.00  0.00    +0.000 S 
ATOM     10  C   UNL     1       4.890   4.712  19.077  0.00  0.00    +0.000 A 
ATOM     11  N   UNL     1       4.457   5.953  18.950  0.00  0.00    +0.000 NA
BRANCH  10  12
ATOM     12  N   UNL     1       6.153   4.245  18.893  0.00  0.00    +0.000 NA
ATOM     13  C   UNL     1       6.812   4.636  17.855  0.00  0.00    +0.000 C 
ATOM     14  N   UNL     1       6.437   5.439  16.828  0.00  0.00    +0.000 N 
ATOM     15  N   UNL     1       8.091   4.236  17.652  0.00  0.00    +0.000 N 
ATOM     16  H   UNL     1       5.535   5.879  17.027  0.00  0.00    +0.000 HD
ATOM     17  H   UNL     1       7.132   6.143  16.615  0.00  0.00    +0.000 HD
ATOM     18  H   UNL     1       8.334   3.459  18.256  0.00  0.00    +0.000 HD
ATOM     19  H   UNL     1       8.285   4.030  16.680  0.00  0.00    +0.000 HD
ENDBRANCH  10  12
ENDBRANCH   5   7
BRANCH   1  20
ATOM     20  C   UNL     1       0.452   9.479  21.477  0.00  0.00    +0.000 C 
BRANCH  20  24
ATOM     21  C   UNL     1      -2.436  12.141  23.236  0.00  0.00    +0.000 C 
ATOM     22  N   UNL     1      -1.406  11.251  22.730  0.00  0.00    +0.000 NA
ATOM     23  C   UNL     1      -0.455  11.701  21.996  0.00  0.00    +0.000 C 
ATOM     24  N   UNL     1       0.566  10.927  21.549  0.00  0.00    +0.000 N 
ATOM     25  N   UNL     1      -0.394  13.033  21.600  0.00  0.00    +0.000 N 
ATOM     26  H   UNL     1       1.059  11.300  20.735  0.00  0.00    +0.000 HD
ATOM     27  H   UNL     1      -1.193  13.635  21.769  0.00  0.00    +0.000 HD
BRANCH  25  28
ATOM     28  S   UNL     1       0.904  13.889  21.021  0.00  0.00    +0.000 S 
ATOM     29  C   UNL     1       0.096  15.297  20.291  0.00  0.00    +0.000 C 
ATOM     30  O   UNL     1       1.700  14.334  22.146  0.00  0.00    +0.000 OA
ATOM     31  O   UNL     1       1.468  13.091  19.956  0.00  0.00    +0.000 OA
ENDBRANCH  25  28
ENDBRANCH  20  24
ENDBRANCH   1  20
TORSDOF 5
ENDMDL
MODEL 6
REMARK VINA RESULT:      -7.5      1.243      1.507
REMARK  Name = 
REMARK  7 active torsions:
REMARK  status: ('A' for Active; 'I' for Inactive)
REMARK    1  A    between atoms: C_1  and  N_2
REMARK    2  A    between atoms: N_4  and  C_5
REMARK    3  A    between atoms: C_5  and  C_6
REMARK    4  A    between atoms: C_10  and  C_11
REMARK    5  A    between atoms: C_14  and  N_15
REMARK    6  A    between atoms: N_21  and  S_22
REMARK    7  A    between atoms: S_22  and  C_23
REMARK                            x       y       z     vdW  Elec       q    Type
REMARK                         _______ _______ _______ _____ _____    ______ ____
ROOT
ATOM      1  C   UNL     1       2.621   7.130  19.180  0.00  0.00    +0.000 A 
ATOM      2  C   UNL     1       2.683   7.639  17.886  0.00  0.00    +0.000 A 
ATOM      3  C   UNL     1       2.038   8.834  17.602  0.00  0.00    +0.000 A 
ATOM      4  C   UNL     1       1.344   9.485  18.614  0.00  0.00    +0.000 A 
ATOM      5  C   UNL     1       1.307   8.917  19.884  0.00  0.00    +0.000 A 
ATOM      6  N   UNL     1       1.934   7.747  20.180  0.00  0.00    +0.000 NA
ENDROOT
BRANCH   5   7
ATOM      7  C   UNL     1       0.576   9.588  20.957  0.00  0.00    +0.000 A 
ATOM      8  C   UNL     1       0.068   8.947  22.067  0.00  0.00    +0.000 A 
ATOM      9  S   UNL     1      -0.701  10.081  23.098  0.00  0.00    +0.000 S 
ATOM     10  C   UNL     1      -0.329  11.357  21.988  0.00  0.00    +0.000 A 
ATOM     11  N   UNL     1       0.336  10.957  20.919  0.00  0.00    +0.000 NA
BRANCH  10  12
ATOM     12  N   UNL     1      -0.761  12.611  22.282  0.00  0.00    +0.000 NA
ATOM     13  C   UNL     1      -1.749  13.099  21.611  0.00  0.00    +0.000 C 
ATOM     14  N   UNL     1      -2.447  12.576  20.571  0.00  0.00    +0.000 N 
ATOM     15  N   UNL     1      -2.247  14.326  21.898  0.00  0.00    +0.000 N 
ATOM     16  H   UNL     1      -2.199  11.594  20.430  0.00  0.00    +0.000 HD
ATOM     17  H   UNL     1      -3.448  12.672  20.691  0.00  0.00    +0.000 HD
ATOM     18  H   UNL     1      -1.618  14.847  22.499  0.00  0.00    +0.000 HD
ATOM     19  H   UNL     1      -2.493  14.851  21.069  0.00  0.00    +0.000 HD
ENDBRANCH  10  12
ENDBRANCH   5   7
BRANCH   1  20
ATOM     20  C   UNL     1       3.274   5.800  19.502  0.00  0.00    +0.000 C 
BRANCH  20  24
ATOM     21  C   UNL     1       3.527   1.749  18.072  0.00  0.00    +0.000 C 
ATOM     22  N   UNL     1       3.375   3.135  18.477  0.00  0.00    +0.000 NA
ATOM     23  C   UNL     1       4.208   4.028  18.083  0.00  0.00    +0.000 C 
ATOM     24  N   UNL     1       4.078   5.345  18.379  0.00  0.00    +0.000 N 
ATOM     25  N   UNL     1       5.320   3.710  17.310  0.00  0.00    +0.000 N 
ATOM     26  H   UNL     1       4.941   5.888  18.299  0.00  0.00    +0.000 HD
ATOM     27  H   UNL     1       5.564   2.735  17.174  0.00  0.00    +0.000 HD
BRANCH  25  28
ATOM     28  S   UNL     1       6.264   4.711  16.381  0.00  0.00    +0.000 S 
ATOM     29  C   UNL     1       6.254   3.852  14.823  0.00  0.00    +0.000 C 
ATOM     30  O   UNL     1       5.577   5.976  16.226  0.00  0.00    +0.000 OA
ATOM     31  O   UNL     1       7.597   4.630  16.932  0.00  0.00    +0.000 OA
ENDBRANCH  25  28
ENDBRANCH  20  24
ENDBRANCH   1  20
TORSDOF 5
ENDMDL
MODEL 7
REMARK VINA RESULT:      -7.4      1.031      1.189
REMARK  Name = 
REMARK  7 active torsions:
REMARK  status: ('A' for Active; 'I' for Inactive)
REMARK    1  A    between atoms: C_1  and  N_2
REMARK    2  A    between atoms: N_4  and  C_5
REMARK    3  A    between atoms: C_5  and  C_6
REMARK    4  A    between atoms: C_10  and  C_11
REMARK    5  A    between atoms: C_14  and  N_15
REMARK    6  A    between atoms: N_21  and  S_22
REMARK    7  A    between atoms: S_22  and  C_23
REMARK                            x       y       z     vdW  Elec       q    Type
REMARK                         _______ _______ _______ _____ _____    ______ ____
ROOT
ATOM      1  C   UNL     1       2.099   7.479  19.525  0.00  0.00    +0.000 A 
ATOM      2  C   UNL     1       2.358   7.882  18.218  0.00  0.00    +0.000 A 
ATOM      3  C   UNL     1       1.907   9.123  17.795  0.00  0.00    +0.000 A 
ATOM      4  C   UNL     1       1.203   9.926  18.684  0.00  0.00    +0.000 A 
ATOM      5  C   UNL     1       0.963   9.460  19.973  0.00  0.00    +0.000 A 
ATOM      6  N   UNL     1       1.399   8.247  20.404  0.00  0.00    +0.000 NA
ENDROOT
BRANCH   5   7
ATOM      7  C   UNL     1       0.219  10.291  20.918  0.00  0.00    +0.000 A 
ATOM      8  C   UNL     1      -0.373   9.816  22.069  0.00  0.00    +0.000 A 
ATOM      9  S   UNL     1      -1.128  11.103  22.913  0.00  0.00    +0.000 S 
ATOM     10  C   UNL     1      -0.639  12.214  21.678  0.00  0.00    +0.000 A 
ATOM     11  N   UNL     1       0.054  11.655  20.702  0.00  0.00    +0.000 NA
BRANCH  10  12
ATOM     12  N   UNL     1      -1.018  13.514  21.795  0.00  0.00    +0.000 NA
ATOM     13  C   UNL     1      -1.785  14.019  20.890  0.00  0.00    +0.000 C 
ATOM     14  N   UNL     1      -2.274  13.472  19.748  0.00  0.00    +0.000 N 
ATOM     15  N   UNL     1      -2.228  15.296  20.987  0.00  0.00    +0.000 N 
ATOM     16  H   UNL     1      -2.085  12.467  19.722  0.00  0.00    +0.000 HD
ATOM     17  H   UNL     1      -3.264  13.646  19.630  0.00  0.00    +0.000 HD
ATOM     18  H   UNL     1      -1.708  15.814  21.686  0.00  0.00    +0.000 HD
ATOM     19  H   UNL     1      -2.237  15.775  20.095  0.00  0.00    +0.000 HD
ENDBRANCH  10  12
ENDBRANCH   5   7
BRANCH   1  20
ATOM     20  C   UNL     1       2.537   6.106  19.995  0.00  0.00    +0.000 C 
BRANCH  20  24
ATOM     21  C   UNL     1       3.715   2.178  18.688  0.00  0.00    +0.000 C 
ATOM     22  N   UNL     1       3.298   3.527  19.030  0.00  0.00    +0.000 NA
ATOM     23  C   UNL     1       4.161   4.468  19.154  0.00  0.00    +0.000 C 
ATOM     24  N   UNL     1       3.822   5.756  19.409  0.00  0.00    +0.000 N 
ATOM     25  N   UNL     1       5.527   4.237  19.032  0.00  0.00    +0.000 N 
ATOM     26  H   UNL     1       4.574   6.326  19.801  0.00  0.00    +0.000 HD
ATOM     27  H   UNL     1       5.864   3.281  18.989  0.00  0.00    +0.000 HD
BRANCH  25  28
ATOM     28  S   UNL     1       6.747   5.328  18.756  0.00  0.00    +0.000 S 
ATOM     29  C   UNL     1       7.759   4.434  17.596  0.00  0.00    +0.000 C 
ATOM     30  O   UNL     1       6.186   6.488  18.095  0.00  0.00    +0.000 OA
ATOM     31  O   UNL     1       7.477   5.437  19.999  0.00  0.00    +0.000 OA
ENDBRANCH  25  28
ENDBRANCH  20  24
ENDBRANCH   1  20
TORSDOF 5
ENDMDL
MODEL 8
REMARK VINA RESULT:      -7.4      1.278      1.596
REMARK  Name = 
REMARK  7 active torsions:
REMARK  status: ('A' for Active; 'I' for Inactive)
REMARK    1  A    between atoms: C_1  and  N_2
REMARK    2  A    between atoms: N_4  and  C_5
REMARK    3  A    between atoms: C_5  and  C_6
REMARK    4  A    between atoms: C_10  and  C_11
REMARK    5  A    between atoms: C_14  and  N_15
REMARK    6  A    between atoms: N_21  and  S_22
REMARK    7  A    between atoms: S_22  and  C_23
REMARK                            x       y       z     vdW  Elec       q    Type
REMARK                         _______ _______ _______ _____ _____    ______ ____
ROOT
ATOM      1  C   UNL     1       2.453   7.230  19.268  0.00  0.00    +0.000 A 
ATOM      2  C   UNL     1       2.630   7.757  17.992  0.00  0.00    +0.000 A 
ATOM      3  C   UNL     1       2.072   8.991  17.690  0.00  0.00    +0.000 A 
ATOM      4  C   UNL     1       1.349   9.663  18.667  0.00  0.00    +0.000 A 
ATOM      5  C   UNL     1       1.195   9.076  19.920  0.00  0.00    +0.000 A 
ATOM      6  N   UNL     1       1.735   7.868  20.232  0.00  0.00    +0.000 NA
ENDROOT
BRANCH   5   7
ATOM      7  C   UNL     1       0.431   9.769  20.956  0.00  0.00    +0.000 A 
ATOM      8  C   UNL     1       0.048   9.196  22.150  0.00  0.00    +0.000 A 
ATOM      9  S   UNL     1      -0.811  10.337  23.098  0.00  0.00    +0.000 S 
ATOM     10  C   UNL     1      -0.639  11.521  21.847  0.00  0.00    +0.000 A 
ATOM     11  N   UNL     1       0.028  11.089  20.792  0.00  0.00    +0.000 NA
BRANCH  10  12
ATOM     12  N   UNL     1      -1.207  12.742  22.035  0.00  0.00    +0.000 NA
ATOM     13  C   UNL     1      -0.468  13.792  21.918  0.00  0.00    +0.000 C 
ATOM     14  N   UNL     1       0.862  13.908  21.672  0.00  0.00    +0.000 N 
ATOM     15  N   UNL     1      -0.998  15.033  22.049  0.00  0.00    +0.000 N 
ATOM     16  H   UNL     1       1.260  13.001  21.417  0.00  0.00    +0.000 HD
ATOM     17  H   UNL     1       1.064  14.595  20.956  0.00  0.00    +0.000 HD
ATOM     18  H   UNL     1      -1.923  14.997  22.461  0.00  0.00    +0.000 HD
ATOM     19  H   UNL     1      -0.388  15.666  22.551  0.00  0.00    +0.000 HD
ENDBRANCH  10  12
ENDBRANCH   5   7
BRANCH   1  20
ATOM     20  C   UNL     1       3.009   5.861  19.604  0.00  0.00    +0.000 C 
BRANCH  20  24
ATOM     21  C   UNL     1       3.778   1.911  18.080  0.00  0.00    +0.000 C 
ATOM     22  N   UNL     1       3.471   3.265  18.505  0.00  0.00    +0.000 NA
ATOM     23  C   UNL     1       4.327   4.208  18.355  0.00  0.00    +0.000 C 
ATOM     24  N   UNL     1       4.068   5.501  18.676  0.00  0.00    +0.000 N 
ATOM     25  N   UNL     1       5.599   3.977  17.843  0.00  0.00    +0.000 N 
ATOM     26  H   UNL     1       4.899   6.079  18.821  0.00  0.00    +0.000 HD
ATOM     27  H   UNL     1       5.915   3.021  17.721  0.00  0.00    +0.000 HD
BRANCH  25  28
ATOM     28  S   UNL     1       6.679   5.064  17.204  0.00  0.00    +0.000 S 
ATOM     29  C   UNL     1       5.902   5.454  15.651  0.00  0.00    +0.000 C 
ATOM     30  O   UNL     1       6.687   6.248  18.038  0.00  0.00    +0.000 OA
ATOM     31  O   UNL     1       7.885   4.316  16.930  0.00  0.00    +0.000 OA
ENDBRANCH  25  28
ENDBRANCH  20  24
ENDBRANCH   1  20
TORSDOF 5
ENDMDL
MODEL 9
REMARK VINA RESULT:      -7.4      3.800      9.268
REMARK  Name = 
REMARK  7 active torsions:
REMARK  status: ('A' for Active; 'I' for Inactive)
REMARK    1  A    between atoms: C_1  and  N_2
REMARK    2  A    between atoms: N_4  and  C_5
REMARK    3  A    between atoms: C_5  and  C_6
REMARK    4  A    between atoms: C_10  and  C_11
REMARK    5  A    between atoms: C_14  and  N_15
REMARK    6  A    between atoms: N_21  and  S_22
REMARK    7  A    between atoms: S_22  and  C_23
REMARK                            x       y       z     vdW  Elec       q    Type
REMARK                         _______ _______ _______ _____ _____    ______ ____
ROOT
ATOM      1  C   UNL     1       1.525   9.315  19.225  0.00  0.00    +0.000 A 
ATOM      2  C   UNL     1       0.884   9.310  20.460  0.00  0.00    +0.000 A 
ATOM      3  C   UNL     1       0.917   8.157  21.231  0.00  0.00    +0.000 A 
ATOM      4  C   UNL     1       1.583   7.039  20.746  0.00  0.00    +0.000 A 
ATOM      5  C   UNL     1       2.191   7.102  19.495  0.00  0.00    +0.000 A 
ATOM      6  N   UNL     1       2.168   8.224  18.728  0.00  0.00    +0.000 NA
ENDROOT
BRANCH   5   7
ATOM      7  C   UNL     1       2.889   5.930  18.969  0.00  0.00    +0.000 A 
ATOM      8  C   UNL     1       2.275   4.907  18.279  0.00  0.00    +0.000 A 
ATOM      9  S   UNL     1       3.436   3.735  17.814  0.00  0.00    +0.000 S 
ATOM     10  C   UNL     1       4.687   4.654  18.582  0.00  0.00    +0.000 A 
ATOM     11  N   UNL     1       4.260   5.771  19.142  0.00  0.00    +0.000 NA
BRANCH  10  12
ATOM     12  N   UNL     1       5.951   4.154  18.570  0.00  0.00    +0.000 NA
ATOM     13  C   UNL     1       6.820   4.690  17.782  0.00  0.00    +0.000 C 
ATOM     14  N   UNL     1       6.685   5.691  16.875  0.00  0.00    +0.000 N 
ATOM     15  N   UNL     1       8.105   4.259  17.769  0.00  0.00    +0.000 N 
ATOM     16  H   UNL     1       5.770   6.139  16.969  0.00  0.00    +0.000 HD
ATOM     17  H   UNL     1       7.423   6.379  16.947  0.00  0.00    +0.000 HD
ATOM     18  H   UNL     1       8.200   3.371  18.248  0.00  0.00    +0.000 HD
ATOM     19  H   UNL     1       8.495   4.225  16.835  0.00  0.00    +0.000 HD
ENDBRANCH  10  12
ENDBRANCH   5   7
BRANCH   1  20
ATOM     20  C   UNL     1       1.458  10.546  18.343  0.00  0.00    +0.000 C 
BRANCH  20  24
ATOM     21  C   UNL     1      -0.337  14.438  18.733  0.00  0.00    +0.000 C 
ATOM     22  N   UNL     1       0.278  13.143  18.500  0.00  0.00    +0.000 NA
ATOM     23  C   UNL     1      -0.444  12.098  18.321  0.00  0.00    +0.000 C 
ATOM     24  N   UNL     1       0.075  10.877  18.038  0.00  0.00    +0.000 N 
ATOM     25  N   UNL     1      -1.832  12.136  18.403  0.00  0.00    +0.000 N 
ATOM     26  H   UNL     1      -0.546  10.091  18.240  0.00  0.00    +0.000 HD
ATOM     27  H   UNL     1      -2.282  12.974  18.756  0.00  0.00    +0.000 HD
BRANCH  25  28
ATOM     28  S   UNL     1      -2.941  11.043  17.827  0.00  0.00    +0.000 S 
ATOM     29  C   UNL     1      -2.789  11.286  16.071  0.00  0.00    +0.000 C 
ATOM     30  O   UNL     1      -2.487   9.709  18.160  0.00  0.00    +0.000 OA
ATOM     31  O   UNL     1      -4.237  11.532  18.239  0.00  0.00    +0.000 OA
ENDBRANCH  25  28
ENDBRANCH  20  24
ENDBRANCH   1  20
TORSDOF 5
ENDMDL
