MODEL 1
REMARK VINA RESULT:      -7.7      0.000      0.000
REMARK  Name = 
REMARK  4 active torsions:
REMARK  status: ('A' for Active; 'I' for Inactive)
REMARK    1  A    between atoms: C_1  and  C_2
REMARK    2  A    between atoms: C_4  and  C_5
REMARK    3  A    between atoms: C_7  and  N_8
REMARK    4  A    between atoms: N_9  and  N_10
REMARK                            x       y       z     vdW  Elec       q    Type
REMARK                         _______ _______ _______ _____ _____    ______ ____
ROOT
ATOM      1  C   UNL     1       7.277   4.717  13.491  0.00  0.00    +0.000 C 
ATOM      2  C   UNL     1       6.736   4.613  14.891  0.00  0.00    +0.000 A 
ATOM      3  C   UNL     1       5.358   4.310  15.087  0.00  0.00    +0.000 A 
ATOM      4  C   UNL     1       4.764   4.222  16.365  0.00  0.00    +0.000 A 
ATOM      5  C   UNL     1       3.326   3.880  16.556  0.00  0.00    +0.000 C 
ATOM      6  C   UNL     1       5.736   4.469  17.341  0.00  0.00    +0.000 A 
ATOM      7  C   UNL     1       5.569   4.496  18.710  0.00  0.00    +0.000 A 
ATOM      8  N   UNL     1       6.838   4.749  19.190  0.00  0.00    +0.000 N 
ATOM      9  N   UNL     1       7.787   4.927  18.259  0.00  0.00    +0.000 NA
ATOM     10  C   UNL     1       7.125   4.759  17.117  0.00  0.00    +0.000 A 
ATOM     11  N   UNL     1       7.655   4.837  15.874  0.00  0.00    +0.000 NA
ATOM     12  H   UNL     1       7.092   4.819  20.167  0.00  0.00    +0.000 HD
ENDROOT
BRANCH   7  13
ATOM     13  N   UNL     1       4.533   4.300  19.570  0.00  0.00    +0.000 NA
ATOM     14  N   UNL     1       4.247   3.095  19.729  0.00  0.00    +0.000 NA
BRANCH  14  15
ATOM     15  N   UNL     1       3.053   2.853  20.329  0.00  0.00    +0.000 N 
ATOM     16  C   UNL     1       2.020   1.980  19.778  0.00  0.00    +0.000 C 
ATOM     17  C   UNL     1       0.864   2.812  19.208  0.00  0.00    +0.000 C 
ATOM     18  O   UNL     1       0.368   3.759  20.173  0.00  0.00    +0.000 OA
ATOM     19  C   UNL     1       1.411   4.658  20.587  0.00  0.00    +0.000 C 
ATOM     20  C   UNL     1       2.563   3.888  21.233  0.00  0.00    +0.000 C 
ENDBRANCH  14  15
ENDBRANCH   7  13
TORSDOF 2
ENDMDL
MODEL 2
REMARK VINA RESULT:      -6.6      1.887      2.889
REMARK  Name = 
REMARK  4 active torsions:
REMARK  status: ('A' for Active; 'I' for Inactive)
REMARK    1  A    between atoms: C_1  and  C_2
REMARK    2  A    between atoms: C_4  and  C_5
REMARK    3  A    between atoms: C_7  and  N_8
REMARK    4  A    between atoms: N_9  and  N_10
REMARK                            x       y       z     vdW  Elec       q    Type
REMARK                         _______ _______ _______ _____ _____    ______ ____
ROOT
ATOM      1  C   UNL     1       8.104   8.376  17.478  0.00  0.00    +0.000 C 
ATOM      2  C   UNL     1       7.257   7.136  17.372  0.00  0.00    +0.000 A 
ATOM      3  C   UNL     1       6.328   6.834  18.408  0.00  0.00    +0.000 A 
ATOM      4  C   UNL     1       5.516   5.679  18.401  0.00  0.00    +0.000 A 
ATOM      5  C   UNL     1       4.530   5.388  19.480  0.00  0.00    +0.000 C 
ATOM      6  C   UNL     1       5.783   4.938  17.244  0.00  0.00    +0.000 A 
ATOM      7  C   UNL     1       5.219   3.737  16.863  0.00  0.00    +0.000 A 
ATOM      8  N   UNL     1       5.808   3.473  15.643  0.00  0.00    +0.000 N 
ATOM      9  N   UNL     1       6.720   4.366  15.231  0.00  0.00    +0.000 NA
ATOM     10  C   UNL     1       6.716   5.272  16.206  0.00  0.00    +0.000 A 
ATOM     11  N   UNL     1       7.479   6.390  16.252  0.00  0.00    +0.000 NA
ATOM     12  H   UNL     1       5.613   2.669  15.061  0.00  0.00    +0.000 HD
ENDROOT
BRANCH   7  13
ATOM     13  N   UNL     1       4.280   2.895  17.374  0.00  0.00    +0.000 NA
ATOM     14  N   UNL     1       3.127   3.373  17.350  0.00  0.00    +0.000 NA
BRANCH  14  15
ATOM     15  N   UNL     1       2.208   2.717  18.105  0.00  0.00    +0.000 N 
ATOM     16  C   UNL     1       0.884   3.241  18.425  0.00  0.00    +0.000 C 
ATOM     17  C   UNL     1       0.833   3.714  19.884  0.00  0.00    +0.000 C 
ATOM     18  O   UNL     1       1.284   2.688  20.788  0.00  0.00    +0.000 OA
ATOM     19  C   UNL     1       2.635   2.300  20.486  0.00  0.00    +0.000 C 
ATOM     20  C   UNL     1       2.733   1.749  19.063  0.00  0.00    +0.000 C 
ENDBRANCH  14  15
ENDBRANCH   7  13
TORSDOF 2
ENDMDL
MODEL 3
REMARK VINA RESULT:      -6.6      2.469      3.301
REMARK  Name = 
REMARK  4 active torsions:
REMARK  status: ('A' for Active; 'I' for Inactive)
REMARK    1  A    between atoms: C_1  and  C_2
REMARK    2  A    between atoms: C_4  and  C_5
REMARK    3  A    between atoms: C_7  and  N_8
REMARK    4  A    between atoms: N_9  and  N_10
REMARK                            x       y       z     vdW  Elec       q    Type
REMARK                         _______ _______ _______ _____ _____    ______ ____
ROOT
ATOM      1  C   UNL     1       8.745   9.654  18.167  0.00  0.00    +0.000 C 
ATOM      2  C   UNL     1       7.972   8.369  18.033  0.00  0.00    +0.000 A 
ATOM      3  C   UNL     1       6.832   8.327  17.180  0.00  0.00    +0.000 A 
ATOM      4  C   UNL     1       6.035   7.173  17.018  0.00  0.00    +0.000 A 
ATOM      5  C   UNL     1       4.859   7.134  16.103  0.00  0.00    +0.000 C 
ATOM      6  C   UNL     1       6.556   6.141  17.807  0.00  0.00    +0.000 A 
ATOM      7  C   UNL     1       6.067   4.859  17.951  0.00  0.00    +0.000 A 
ATOM      8  N   UNL     1       6.967   4.258  18.807  0.00  0.00    +0.000 N 
ATOM      9  N   UNL     1       7.957   5.045  19.255  0.00  0.00    +0.000 NA
ATOM     10  C   UNL     1       7.717   6.206  18.650  0.00  0.00    +0.000 A 
ATOM     11  N   UNL     1       8.454   7.334  18.779  0.00  0.00    +0.000 NA
ATOM     12  H   UNL     1       6.927   3.297  19.121  0.00  0.00    +0.000 HD
ENDROOT
BRANCH   7  13
ATOM     13  N   UNL     1       5.024   4.150  17.437  0.00  0.00    +0.000 NA
ATOM     14  N   UNL     1       3.915   4.523  17.873  0.00  0.00    +0.000 NA
BRANCH  14  15
ATOM     15  N   UNL     1       2.881   3.676  17.634  0.00  0.00    +0.000 N 
ATOM     16  C   UNL     1       1.475   4.021  17.828  0.00  0.00    +0.000 C 
ATOM     17  C   UNL     1       0.926   3.347  19.092  0.00  0.00    +0.000 C 
ATOM     18  O   UNL     1       1.179   1.928  19.086  0.00  0.00    +0.000 OA
ATOM     19  C   UNL     1       2.590   1.663  19.008  0.00  0.00    +0.000 C 
ATOM     20  C   UNL     1       3.179   2.250  17.726  0.00  0.00    +0.000 C 
ENDBRANCH  14  15
ENDBRANCH   7  13
TORSDOF 2
ENDMDL
MODEL 4
REMARK VINA RESULT:      -6.5      1.040      1.617
REMARK  Name = 
REMARK  4 active torsions:
REMARK  status: ('A' for Active; 'I' for Inactive)
REMARK    1  A    between atoms: C_1  and  C_2
REMARK    2  A    between atoms: C_4  and  C_5
REMARK    3  A    between atoms: C_7  and  N_8
REMARK    4  A    between atoms: N_9  and  N_10
REMARK                            x       y       z     vdW  Elec       q    Type
REMARK                         _______ _______ _______ _____ _____    ______ ____
ROOT
ATOM      1  C   UNL     1       7.701   5.157  13.565  0.00  0.00    +0.000 C 
ATOM      2  C   UNL     1       6.990   5.007  14.883  0.00  0.00    +0.000 A 
ATOM      3  C   UNL     1       5.793   4.238  14.947  0.00  0.00    +0.000 A 
ATOM      4  C   UNL     1       5.050   4.070  16.136  0.00  0.00    +0.000 A 
ATOM      5  C   UNL     1       3.812   3.242  16.194  0.00  0.00    +0.000 C 
ATOM      6  C   UNL     1       5.684   4.759  17.176  0.00  0.00    +0.000 A 
ATOM      7  C   UNL     1       5.278   4.864  18.490  0.00  0.00    +0.000 A 
ATOM      8  N   UNL     1       6.272   5.617  19.081  0.00  0.00    +0.000 N 
ATOM      9  N   UNL     1       7.249   6.036  18.262  0.00  0.00    +0.000 NA
ATOM     10  C   UNL     1       6.901   5.517  17.088  0.00  0.00    +0.000 A 
ATOM     11  N   UNL     1       7.583   5.656  15.926  0.00  0.00    +0.000 NA
ATOM     12  H   UNL     1       6.307   5.878  20.058  0.00  0.00    +0.000 HD
ENDROOT
BRANCH   7  13
ATOM     13  N   UNL     1       4.239   4.389  19.230  0.00  0.00    +0.000 NA
ATOM     14  N   UNL     1       3.148   4.927  18.949  0.00  0.00    +0.000 NA
BRANCH  14  15
ATOM     15  N   UNL     1       2.147   4.717  19.842  0.00  0.00    +0.000 N 
ATOM     16  C   UNL     1       2.321   4.743  21.292  0.00  0.00    +0.000 C 
ATOM     17  C   UNL     1       2.292   3.319  21.861  0.00  0.00    +0.000 C 
ATOM     18  O   UNL     1       1.119   2.602  21.431  0.00  0.00    +0.000 OA
ATOM     19  C   UNL     1       1.072   2.516  19.997  0.00  0.00    +0.000 C 
ATOM     20  C   UNL     1       1.023   3.911  19.374  0.00  0.00    +0.000 C 
ENDBRANCH  14  15
ENDBRANCH   7  13
TORSDOF 2
ENDMDL
MODEL 5
REMARK VINA RESULT:      -6.5      3.806      6.167
REMARK  Name = 
REMARK  4 active torsions:
REMARK  status: ('A' for Active; 'I' for Inactive)
REMARK    1  A    between atoms: C_1  and  C_2
REMARK    2  A    between atoms: C_4  and  C_5
REMARK    3  A    between atoms: C_7  and  N_8
REMARK    4  A    between atoms: N_9  and  N_10
REMARK                            x       y       z     vdW  Elec       q    Type
REMARK                         _______ _______ _______ _____ _____    ______ ____
ROOT
ATOM      1  C   UNL     1      -0.177  10.198  21.789  0.00  0.00    +0.000 C 
ATOM      2  C   UNL     1       0.613   9.315  20.861  0.00  0.00    +0.000 A 
ATOM      3  C   UNL     1       0.961   7.998  21.277  0.00  0.00    +0.000 A 
ATOM      4  C   UNL     1       1.723   7.115  20.481  0.00  0.00    +0.000 A 
ATOM      5  C   UNL     1       2.059   5.731  20.920  0.00  0.00    +0.000 C 
ATOM      6  C   UNL     1       2.044   7.747  19.274  0.00  0.00    +0.000 A 
ATOM      7  C   UNL     1       2.789   7.241  18.229  0.00  0.00    +0.000 A 
ATOM      8  N   UNL     1       2.768   8.253  17.291  0.00  0.00    +0.000 N 
ATOM      9  N   UNL     1       2.118   9.369  17.655  0.00  0.00    +0.000 NA
ATOM     10  C   UNL     1       1.669   9.073  18.872  0.00  0.00    +0.000 A 
ATOM     11  N   UNL     1       0.938   9.890  19.667  0.00  0.00    +0.000 NA
ATOM     12  H   UNL     1       3.206   8.217  16.380  0.00  0.00    +0.000 HD
ENDROOT
BRANCH   7  13
ATOM     13  N   UNL     1       3.421   6.065  17.962  0.00  0.00    +0.000 NA
ATOM     14  N   UNL     1       2.644   5.164  17.586  0.00  0.00    +0.000 NA
BRANCH  14  15
ATOM     15  N   UNL     1       3.160   3.908  17.593  0.00  0.00    +0.000 N 
ATOM     16  C   UNL     1       2.359   2.691  17.678  0.00  0.00    +0.000 C 
ATOM     17  C   UNL     1       2.466   2.075  19.080  0.00  0.00    +0.000 C 
ATOM     18  O   UNL     1       3.840   1.893  19.473  0.00  0.00    +0.000 OA
ATOM     19  C   UNL     1       4.540   3.149  19.476  0.00  0.00    +0.000 C 
ATOM     20  C   UNL     1       4.530   3.776  18.081  0.00  0.00    +0.000 C 
ENDBRANCH  14  15
ENDBRANCH   7  13
TORSDOF 2
ENDMDL
MODEL 6
REMARK VINA RESULT:      -6.4      3.892      6.760
REMARK  Name = 
REMARK  4 active torsions:
REMARK  status: ('A' for Active; 'I' for Inactive)
REMARK    1  A    between atoms: C_1  and  C_2
REMARK    2  A    between atoms: C_4  and  C_5
REMARK    3  A    between atoms: C_7  and  N_8
REMARK    4  A    between atoms: N_9  and  N_10
REMARK                            x       y       z     vdW  Elec       q    Type
REMARK                         _______ _______ _______ _____ _____    ______ ____
ROOT
ATOM      1  C   UNL     1      -0.074   9.980  21.833  0.00  0.00    +0.000 C 
ATOM      2  C   UNL     1       0.686   9.097  20.880  0.00  0.00    +0.000 A 
ATOM      3  C   UNL     1       0.969   7.751  21.250  0.00  0.00    +0.000 A 
ATOM      4  C   UNL     1       1.699   6.865  20.429  0.00  0.00    +0.000 A 
ATOM      5  C   UNL     1       1.967   5.451  20.818  0.00  0.00    +0.000 C 
ATOM      6  C   UNL     1       2.063   7.526  19.250  0.00  0.00    +0.000 A 
ATOM      7  C   UNL     1       2.796   7.025  18.194  0.00  0.00    +0.000 A 
ATOM      8  N   UNL     1       2.832   8.071  17.295  0.00  0.00    +0.000 N 
ATOM      9  N   UNL     1       2.229   9.201  17.694  0.00  0.00    +0.000 NA
ATOM     10  C   UNL     1       1.753   8.882  18.894  0.00  0.00    +0.000 A 
ATOM     11  N   UNL     1       1.051   9.701  19.712  0.00  0.00    +0.000 NA
ATOM     12  H   UNL     1       3.279   8.050  16.388  0.00  0.00    +0.000 HD
ENDROOT
BRANCH   7  13
ATOM     13  N   UNL     1       3.377   5.832  17.889  0.00  0.00    +0.000 NA
ATOM     14  N   UNL     1       4.545   5.731  18.317  0.00  0.00    +0.000 NA
BRANCH  14  15
ATOM     15  N   UNL     1       5.270   4.707  17.797  0.00  0.00    +0.000 N 
ATOM     16  C   UNL     1       6.726   4.617  17.860  0.00  0.00    +0.000 C 
ATOM     17  C   UNL     1       7.342   4.929  16.490  0.00  0.00    +0.000 C 
ATOM     18  O   UNL     1       6.755   4.122  15.450  0.00  0.00    +0.000 OA
ATOM     19  C   UNL     1       5.337   4.347  15.370  0.00  0.00    +0.000 C 
ATOM     20  C   UNL     1       4.657   3.979  16.690  0.00  0.00    +0.000 C 
ENDBRANCH  14  15
ENDBRANCH   7  13
TORSDOF 2
ENDMDL
MODEL 7
REMARK VINA RESULT:      -6.4      3.235      6.364
REMARK  Name = 
REMARK  4 active torsions:
REMARK  status: ('A' for Active; 'I' for Inactive)
REMARK    1  A    between atoms: C_1  and  C_2
REMARK    2  A    between atoms: C_4  and  C_5
REMARK    3  A    between atoms: C_7  and  N_8
REMARK    4  A    between atoms: N_9  and  N_10
REMARK                            x       y       z     vdW  Elec       q    Type
REMARK                         _______ _______ _______ _____ _____    ______ ____
ROOT
ATOM      1  C   UNL     1       0.334   9.217  21.253  0.00  0.00    +0.000 C 
ATOM      2  C   UNL     1       1.127   8.106  20.619  0.00  0.00    +0.000 A 
ATOM      3  C   UNL     1       1.865   8.366  19.429  0.00  0.00    +0.000 A 
ATOM      4  C   UNL     1       2.612   7.375  18.755  0.00  0.00    +0.000 A 
ATOM      5  C   UNL     1       3.400   7.667  17.525  0.00  0.00    +0.000 C 
ATOM      6  C   UNL     1       2.497   6.164  19.447  0.00  0.00    +0.000 A 
ATOM      7  C   UNL     1       3.055   4.947  19.116  0.00  0.00    +0.000 A 
ATOM      8  N   UNL     1       2.655   4.113  20.140  0.00  0.00    +0.000 N 
ATOM      9  N   UNL     1       1.863   4.671  21.068  0.00  0.00    +0.000 NA
ATOM     10  C   UNL     1       1.756   5.931  20.655  0.00  0.00    +0.000 A 
ATOM     11  N   UNL     1       1.049   6.909  21.269  0.00  0.00    +0.000 NA
ATOM     12  H   UNL     1       2.901   3.136  20.231  0.00  0.00    +0.000 HD
ENDROOT
BRANCH   7  13
ATOM     13  N   UNL     1       3.861   4.482  18.122  0.00  0.00    +0.000 NA
ATOM     14  N   UNL     1       5.054   4.364  18.471  0.00  0.00    +0.000 NA
BRANCH  14  15
ATOM     15  N   UNL     1       5.944   4.194  17.460  0.00  0.00    +0.000 N 
ATOM     16  C   UNL     1       7.291   4.757  17.449  0.00  0.00    +0.000 C 
ATOM     17  C   UNL     1       7.365   5.950  16.487  0.00  0.00    +0.000 C 
ATOM     18  O   UNL     1       6.871   5.606  15.178  0.00  0.00    +0.000 OA
ATOM     19  C   UNL     1       5.503   5.167  15.250  0.00  0.00    +0.000 C 
ATOM     20  C   UNL     1       5.379   3.931  16.140  0.00  0.00    +0.000 C 
ENDBRANCH  14  15
ENDBRANCH   7  13
TORSDOF 2
ENDMDL
MODEL 8
REMARK VINA RESULT:      -6.3      5.239      7.398
REMARK  Name = 
REMARK  4 active torsions:
REMARK  status: ('A' for Active; 'I' for Inactive)
REMARK    1  A    between atoms: C_1  and  C_2
REMARK    2  A    between atoms: C_4  and  C_5
REMARK    3  A    between atoms: C_7  and  N_8
REMARK    4  A    between atoms: N_9  and  N_10
REMARK                            x       y       z     vdW  Elec       q    Type
REMARK                         _______ _______ _______ _____ _____    ______ ____
ROOT
ATOM      1  C   UNL     1      -1.194  13.105  20.169  0.00  0.00    +0.000 C 
ATOM      2  C   UNL     1      -0.421  11.814  20.217  0.00  0.00    +0.000 A 
ATOM      3  C   UNL     1      -0.102  11.145  19.000  0.00  0.00    +0.000 A 
ATOM      4  C   UNL     1       0.594   9.918  18.957  0.00  0.00    +0.000 A 
ATOM      5  C   UNL     1       0.942   9.241  17.675  0.00  0.00    +0.000 C 
ATOM      6  C   UNL     1       0.897   9.516  20.263  0.00  0.00    +0.000 A 
ATOM      7  C   UNL     1       1.553   8.369  20.661  0.00  0.00    +0.000 A 
ATOM      8  N   UNL     1       1.612   8.487  22.035  0.00  0.00    +0.000 N 
ATOM      9  N   UNL     1       1.021   9.575  22.552  0.00  0.00    +0.000 NA
ATOM     10  C   UNL     1       0.576  10.217  21.474  0.00  0.00    +0.000 A 
ATOM     11  N   UNL     1      -0.096  11.392  21.473  0.00  0.00    +0.000 NA
ATOM     12  H   UNL     1       2.046   7.822  22.662  0.00  0.00    +0.000 HD
ENDROOT
BRANCH   7  13
ATOM     13  N   UNL     1       2.121   7.303  20.035  0.00  0.00    +0.000 NA
ATOM     14  N   UNL     1       1.806   6.208  20.545  0.00  0.00    +0.000 NA
BRANCH  14  15
ATOM     15  N   UNL     1       2.562   5.147  20.162  0.00  0.00    +0.000 N 
ATOM     16  C   UNL     1       3.810   5.256  19.412  0.00  0.00    +0.000 C 
ATOM     17  C   UNL     1       3.596   4.842  17.950  0.00  0.00    +0.000 C 
ATOM     18  O   UNL     1       2.974   3.546  17.854  0.00  0.00    +0.000 OA
ATOM     19  C   UNL     1       1.698   3.544  18.516  0.00  0.00    +0.000 C 
ATOM     20  C   UNL     1       1.858   3.878  19.999  0.00  0.00    +0.000 C 
ENDBRANCH  14  15
ENDBRANCH   7  13
TORSDOF 2
ENDMDL
MODEL 9
REMARK VINA RESULT:      -6.2      4.117      5.819
REMARK  Name = 
REMARK  4 active torsions:
REMARK  status: ('A' for Active; 'I' for Inactive)
REMARK    1  A    between atoms: C_1  and  C_2
REMARK    2  A    between atoms: C_4  and  C_5
REMARK    3  A    between atoms: C_7  and  N_8
REMARK    4  A    between atoms: N_9  and  N_10
REMARK                            x       y       z     vdW  Elec       q    Type
REMARK                         _______ _______ _______ _____ _____    ______ ____
ROOT
ATOM      1  C   UNL     1       4.032   1.174  18.351  0.00  0.00    +0.000 C 
ATOM      2  C   UNL     1       3.599   2.583  18.656  0.00  0.00    +0.000 A 
ATOM      3  C   UNL     1       4.035   3.645  17.812  0.00  0.00    +0.000 A 
ATOM      4  C   UNL     1       3.698   4.997  18.041  0.00  0.00    +0.000 A 
ATOM      5  C   UNL     1       4.141   6.095  17.136  0.00  0.00    +0.000 C 
ATOM      6  C   UNL     1       2.897   5.083  19.185  0.00  0.00    +0.000 A 
ATOM      7  C   UNL     1       2.370   6.220  19.763  0.00  0.00    +0.000 A 
ATOM      8  N   UNL     1       1.644   5.737  20.833  0.00  0.00    +0.000 N 
ATOM      9  N   UNL     1       1.692   4.410  21.016  0.00  0.00    +0.000 NA
ATOM     10  C   UNL     1       2.459   3.994  20.012  0.00  0.00    +0.000 A 
ATOM     11  N   UNL     1       2.807   2.710  19.759  0.00  0.00    +0.000 NA
ATOM     12  H   UNL     1       1.104   6.301  21.476  0.00  0.00    +0.000 HD
ENDROOT
BRANCH   7  13
ATOM     13  N   UNL     1       2.389   7.553  19.486  0.00  0.00    +0.000 NA
ATOM     14  N   UNL     1       1.624   8.217  20.216  0.00  0.00    +0.000 NA
BRANCH  14  15
ATOM     15  N   UNL     1       1.377   9.486  19.799  0.00  0.00    +0.000 N 
ATOM     16  C   UNL     1       0.715  10.502  20.612  0.00  0.00    +0.000 C 
ATOM     17  C   UNL     1      -0.724  10.723  20.127  0.00  0.00    +0.000 C 
ATOM     18  O   UNL     1      -0.770  10.992  18.712  0.00  0.00    +0.000 OA
ATOM     19  C   UNL     1      -0.204   9.899  17.968  0.00  0.00    +0.000 C 
ATOM     20  C   UNL     1       1.258   9.680  18.357  0.00  0.00    +0.000 C 
ENDBRANCH  14  15
ENDBRANCH   7  13
TORSDOF 2
ENDMDL
