MODEL 1
REMARK VINA RESULT:      -6.5      0.000      0.000
REMARK  Name = 
REMARK  5 active torsions:
REMARK  status: ('A' for Active; 'I' for Inactive)
REMARK    1  A    between atoms: C_1  and  C_2
REMARK    2  A    between atoms: C_2  and  C_3
REMARK    3  A    between atoms: C_3  and  C_4
REMARK    4  A    between atoms: C_4  and  C_5
REMARK    5  A    between atoms: C_8  and  N_9
REMARK                            x       y       z     vdW  Elec       q    Type
REMARK                         _______ _______ _______ _____ _____    ______ ____
ROOT
ATOM      1  N   UNL     1      -0.739  10.958  19.544  0.00  0.00    +0.000 N 
ATOM      2  C   UNL     1      -1.921  10.964  18.784  0.00  0.00    +0.000 A 
ATOM      3  S   UNL     1      -2.736   9.701  18.028  0.00  0.00    +0.000 S 
ATOM      4  O   UNL     1      -2.570  12.190  18.694  0.00  0.00    +0.000 OA
ATOM      5  C   UNL     1      -2.926  12.559  19.983  0.00  0.00    +0.000 A 
ATOM      6  C   UNL     1      -4.214  13.028  20.202  0.00  0.00    +0.000 A 
ATOM      7  C   UNL     1      -4.677  13.101  21.514  0.00  0.00    +0.000 A 
ATOM      8  C   UNL     1      -3.841  12.718  22.570  0.00  0.00    +0.000 A 
ATOM      9 CL   UNL     1      -4.491  12.617  24.160  0.00  0.00    +0.000 Cl
ATOM     10  C   UNL     1      -2.510  12.357  22.345  0.00  0.00    +0.000 A 
ATOM     11  C   UNL     1      -2.046  12.310  21.032  0.00  0.00    +0.000 A 
ATOM     12  C   UNL     1      -0.690  11.865  20.620  0.00  0.00    +0.000 A 
ATOM     13  S   UNL     1       0.668  12.552  21.350  0.00  0.00    +0.000 S 
ENDROOT
BRANCH   1  17
ATOM     14  C   UNL     1       2.223   7.995  18.596  0.00  0.00    +0.000 A 
ATOM     15  C   UNL     1       1.808   8.927  17.645  0.00  0.00    +0.000 A 
ATOM     16  C   UNL     1       0.893   9.928  17.987  0.00  0.00    +0.000 A 
ATOM     17  C   UNL     1       0.310  10.000  19.262  0.00  0.00    +0.000 A 
ATOM     18  C   UNL     1       0.760   9.074  20.216  0.00  0.00    +0.000 A 
ATOM     19  C   UNL     1       1.708   8.095  19.890  0.00  0.00    +0.000 A 
BRANCH  14  20
ATOM     20  C   UNL     1       3.171   6.880  18.229  0.00  0.00    +0.000 C 
BRANCH  20  21
ATOM     21  C   UNL     1       2.787   5.504  18.781  0.00  0.00    +0.000 C 
BRANCH  21  23
ATOM     22  C   UNL     1       1.322   3.479  18.491  0.00  0.00    +0.000 C 
ATOM     23  C   UNL     1       1.933   4.690  17.807  0.00  0.00    +0.000 C 
ENDBRANCH  21  23
ENDBRANCH  20  21
ENDBRANCH  14  20
ENDBRANCH   1  17
TORSDOF 4
ENDMDL
MODEL 2
REMARK VINA RESULT:      -6.2      0.420      1.083
REMARK  Name = 
REMARK  5 active torsions:
REMARK  status: ('A' for Active; 'I' for Inactive)
REMARK    1  A    between atoms: C_1  and  C_2
REMARK    2  A    between atoms: C_2  and  C_3
REMARK    3  A    between atoms: C_3  and  C_4
REMARK    4  A    between atoms: C_4  and  C_5
REMARK    5  A    between atoms: C_8  and  N_9
REMARK                            x       y       z     vdW  Elec       q    Type
REMARK                         _______ _______ _______ _____ _____    ______ ____
ROOT
ATOM      1  N   UNL     1      -0.472  10.767  19.488  0.00  0.00    +0.000 N 
ATOM      2  C   UNL     1      -1.661  10.932  18.757  0.00  0.00    +0.000 A 
ATOM      3  S   UNL     1      -2.611   9.798  17.956  0.00  0.00    +0.000 S 
ATOM      4  O   UNL     1      -2.186  12.219  18.745  0.00  0.00    +0.000 OA
ATOM      5  C   UNL     1      -2.480  12.551  20.059  0.00  0.00    +0.000 A 
ATOM      6  C   UNL     1      -3.711  13.133  20.330  0.00  0.00    +0.000 A 
ATOM      7  C   UNL     1      -4.142  13.181  21.655  0.00  0.00    +0.000 A 
ATOM      8  C   UNL     1      -3.330  12.661  22.671  0.00  0.00    +0.000 A 
ATOM      9 CL   UNL     1      -3.959  12.540  24.268  0.00  0.00    +0.000 Cl
ATOM     10  C   UNL     1      -2.046  12.183  22.397  0.00  0.00    +0.000 A 
ATOM     11  C   UNL     1      -1.612  12.161  21.073  0.00  0.00    +0.000 A 
ATOM     12  C   UNL     1      -0.314  11.607  20.608  0.00  0.00    +0.000 A 
ATOM     13  S   UNL     1       1.118  12.115  21.343  0.00  0.00    +0.000 S 
ENDROOT
BRANCH   1  17
ATOM     14  C   UNL     1       2.480   7.791  18.554  0.00  0.00    +0.000 A 
ATOM     15  C   UNL     1       1.863   7.825  19.805  0.00  0.00    +0.000 A 
ATOM     16  C   UNL     1       0.855   8.757  20.072  0.00  0.00    +0.000 A 
ATOM     17  C   UNL     1       0.471   9.727  19.134  0.00  0.00    +0.000 A 
ATOM     18  C   UNL     1       1.079   9.662  17.871  0.00  0.00    +0.000 A 
ATOM     19  C   UNL     1       2.059   8.703  17.584  0.00  0.00    +0.000 A 
BRANCH  14  20
ATOM     20  C   UNL     1       3.602   6.824  18.268  0.00  0.00    +0.000 C 
BRANCH  20  21
ATOM     21  C   UNL     1       3.281   5.360  18.580  0.00  0.00    +0.000 C 
BRANCH  21  23
ATOM     22  C   UNL     1       1.447   3.638  18.501  0.00  0.00    +0.000 C 
ATOM     23  C   UNL     1       2.067   4.840  17.807  0.00  0.00    +0.000 C 
ENDBRANCH  21  23
ENDBRANCH  20  21
ENDBRANCH  14  20
ENDBRANCH   1  17
TORSDOF 4
ENDMDL
MODEL 3
REMARK VINA RESULT:      -6.1      1.198      1.855
REMARK  Name = 
REMARK  5 active torsions:
REMARK  status: ('A' for Active; 'I' for Inactive)
REMARK    1  A    between atoms: C_1  and  C_2
REMARK    2  A    between atoms: C_2  and  C_3
REMARK    3  A    between atoms: C_3  and  C_4
REMARK    4  A    between atoms: C_4  and  C_5
REMARK    5  A    between atoms: C_8  and  N_9
REMARK                            x       y       z     vdW  Elec       q    Type
REMARK                         _______ _______ _______ _____ _____    ______ ____
ROOT
ATOM      1  N   UNL     1      -0.281  10.796  19.485  0.00  0.00    +0.000 N 
ATOM      2  C   UNL     1      -1.453  10.888  18.715  0.00  0.00    +0.000 A 
ATOM      3  S   UNL     1      -2.329   9.692  17.919  0.00  0.00    +0.000 S 
ATOM      4  O   UNL     1      -2.032  12.150  18.651  0.00  0.00    +0.000 OA
ATOM      5  C   UNL     1      -2.379  12.506  19.946  0.00  0.00    +0.000 A 
ATOM      6  C   UNL     1      -3.642  13.040  20.165  0.00  0.00    +0.000 A 
ATOM      7  C   UNL     1      -4.114  13.106  21.475  0.00  0.00    +0.000 A 
ATOM      8  C   UNL     1      -3.311  12.650  22.528  0.00  0.00    +0.000 A 
ATOM      9 CL   UNL     1      -3.982  12.545  24.109  0.00  0.00    +0.000 Cl
ATOM     10  C   UNL     1      -2.001  12.221  22.305  0.00  0.00    +0.000 A 
ATOM     11  C   UNL     1      -1.526  12.182  20.996  0.00  0.00    +0.000 A 
ATOM     12  C   UNL     1      -0.193  11.672  20.584  0.00  0.00    +0.000 A 
ATOM     13  S   UNL     1       1.194  12.262  21.345  0.00  0.00    +0.000 S 
ENDROOT
BRANCH   1  17
ATOM     14  C   UNL     1       2.524   7.703  18.478  0.00  0.00    +0.000 A 
ATOM     15  C   UNL     1       2.210   8.712  17.569  0.00  0.00    +0.000 A 
ATOM     16  C   UNL     1       1.347   9.751  17.934  0.00  0.00    +0.000 A 
ATOM     17  C   UNL     1       0.716   9.789  19.187  0.00  0.00    +0.000 A 
ATOM     18  C   UNL     1       1.065   8.783  20.102  0.00  0.00    +0.000 A 
ATOM     19  C   UNL     1       1.962   7.763  19.755  0.00  0.00    +0.000 A 
BRANCH  14  20
ATOM     20  C   UNL     1       3.414   6.550  18.083  0.00  0.00    +0.000 C 
BRANCH  20  21
ATOM     21  C   UNL     1       4.646   6.945  17.264  0.00  0.00    +0.000 C 
BRANCH  21  23
ATOM     22  C   UNL     1       7.157   7.045  17.401  0.00  0.00    +0.000 C 
ATOM     23  C   UNL     1       5.917   6.226  17.719  0.00  0.00    +0.000 C 
ENDBRANCH  21  23
ENDBRANCH  20  21
ENDBRANCH  14  20
ENDBRANCH   1  17
TORSDOF 4
ENDMDL
MODEL 4
REMARK VINA RESULT:      -5.9      5.616      9.548
REMARK  Name = 
REMARK  5 active torsions:
REMARK  status: ('A' for Active; 'I' for Inactive)
REMARK    1  A    between atoms: C_1  and  C_2
REMARK    2  A    between atoms: C_2  and  C_3
REMARK    3  A    between atoms: C_3  and  C_4
REMARK    4  A    between atoms: C_4  and  C_5
REMARK    5  A    between atoms: C_8  and  N_9
REMARK                            x       y       z     vdW  Elec       q    Type
REMARK                         _______ _______ _______ _____ _____    ______ ____
ROOT
ATOM      1  N   UNL     1       3.725   6.298  17.879  0.00  0.00    +0.000 N 
ATOM      2  C   UNL     1       3.281   4.965  17.912  0.00  0.00    +0.000 A 
ATOM      3  S   UNL     1       1.730   4.331  17.761  0.00  0.00    +0.000 S 
ATOM      4  O   UNL     1       4.279   4.003  18.012  0.00  0.00    +0.000 OA
ATOM      5  C   UNL     1       5.080   4.126  16.886  0.00  0.00    +0.000 A 
ATOM      6  C   UNL     1       5.430   2.973  16.198  0.00  0.00    +0.000 A 
ATOM      7  C   UNL     1       5.958   3.102  14.915  0.00  0.00    +0.000 A 
ATOM      8  C   UNL     1       6.132   4.376  14.360  0.00  0.00    +0.000 A 
ATOM      9 CL   UNL     1       6.587   4.515  12.705  0.00  0.00    +0.000 Cl
ATOM     10  C   UNL     1       5.882   5.531  15.105  0.00  0.00    +0.000 A 
ATOM     11  C   UNL     1       5.379   5.393  16.397  0.00  0.00    +0.000 A 
ATOM     12  C   UNL     1       4.982   6.517  17.284  0.00  0.00    +0.000 A 
ATOM     13  S   UNL     1       6.067   7.781  17.562  0.00  0.00    +0.000 S 
ENDROOT
BRANCH   1  17
ATOM     14  C   UNL     1       1.027   9.333  19.281  0.00  0.00    +0.000 A 
ATOM     15  C   UNL     1       1.425   8.285  20.111  0.00  0.00    +0.000 A 
ATOM     16  C   UNL     1       2.356   7.342  19.664  0.00  0.00    +0.000 A 
ATOM     17  C   UNL     1       2.874   7.368  18.360  0.00  0.00    +0.000 A 
ATOM     18  C   UNL     1       2.488   8.444  17.547  0.00  0.00    +0.000 A 
ATOM     19  C   UNL     1       1.587   9.415  18.005  0.00  0.00    +0.000 A 
BRANCH  14  20
ATOM     20  C   UNL     1      -0.013  10.329  19.732  0.00  0.00    +0.000 C 
BRANCH  20  21
ATOM     21  C   UNL     1      -0.834  10.954  18.601  0.00  0.00    +0.000 C 
BRANCH  21  23
ATOM     22  C   UNL     1      -2.270  10.244  16.660  0.00  0.00    +0.000 C 
ATOM     23  C   UNL     1      -1.989  10.062  18.142  0.00  0.00    +0.000 C 
ENDBRANCH  21  23
ENDBRANCH  20  21
ENDBRANCH  14  20
ENDBRANCH   1  17
TORSDOF 4
ENDMDL
MODEL 5
REMARK VINA RESULT:      -5.9      5.597      9.541
REMARK  Name = 
REMARK  5 active torsions:
REMARK  status: ('A' for Active; 'I' for Inactive)
REMARK    1  A    between atoms: C_1  and  C_2
REMARK    2  A    between atoms: C_2  and  C_3
REMARK    3  A    between atoms: C_3  and  C_4
REMARK    4  A    between atoms: C_4  and  C_5
REMARK    5  A    between atoms: C_8  and  N_9
REMARK                            x       y       z     vdW  Elec       q    Type
REMARK                         _______ _______ _______ _____ _____    ______ ____
ROOT
ATOM      1  N   UNL     1       3.661   6.320  17.941  0.00  0.00    +0.000 N 
ATOM      2  C   UNL     1       3.209   4.989  17.941  0.00  0.00    +0.000 A 
ATOM      3  S   UNL     1       1.656   4.367  17.764  0.00  0.00    +0.000 S 
ATOM      4  O   UNL     1       4.201   4.019  18.029  0.00  0.00    +0.000 OA
ATOM      5  C   UNL     1       5.012   4.161  16.913  0.00  0.00    +0.000 A 
ATOM      6  C   UNL     1       5.361   3.020  16.204  0.00  0.00    +0.000 A 
ATOM      7  C   UNL     1       5.900   3.174  14.928  0.00  0.00    +0.000 A 
ATOM      8  C   UNL     1       6.087   4.458  14.401  0.00  0.00    +0.000 A 
ATOM      9 CL   UNL     1       6.556   4.629  12.754  0.00  0.00    +0.000 Cl
ATOM     10  C   UNL     1       5.837   5.598  15.169  0.00  0.00    +0.000 A 
ATOM     11  C   UNL     1       5.322   5.437  16.453  0.00  0.00    +0.000 A 
ATOM     12  C   UNL     1       4.924   6.544  17.360  0.00  0.00    +0.000 A 
ATOM     13  S   UNL     1       6.014   7.795  17.673  0.00  0.00    +0.000 S 
ENDROOT
BRANCH   1  17
ATOM     14  C   UNL     1       0.971   9.333  19.401  0.00  0.00    +0.000 A 
ATOM     15  C   UNL     1       1.439   8.320  20.238  0.00  0.00    +0.000 A 
ATOM     16  C   UNL     1       2.366   7.385  19.767  0.00  0.00    +0.000 A 
ATOM     17  C   UNL     1       2.812   7.384  18.436  0.00  0.00    +0.000 A 
ATOM     18  C   UNL     1       2.357   8.427  17.615  0.00  0.00    +0.000 A 
ATOM     19  C   UNL     1       1.460   9.391  18.094  0.00  0.00    +0.000 A 
BRANCH  14  20
ATOM     20  C   UNL     1      -0.066  10.319  19.880  0.00  0.00    +0.000 C 
BRANCH  20  21
ATOM     21  C   UNL     1       0.322  11.094  21.142  0.00  0.00    +0.000 C 
BRANCH  21  23
ATOM     22  C   UNL     1      -0.305   9.715  23.152  0.00  0.00    +0.000 C 
ATOM     23  C   UNL     1      -0.678  10.907  22.285  0.00  0.00    +0.000 C 
ENDBRANCH  21  23
ENDBRANCH  20  21
ENDBRANCH  14  20
ENDBRANCH   1  17
TORSDOF 4
ENDMDL
MODEL 6
REMARK VINA RESULT:      -5.9      5.569      9.457
REMARK  Name = 
REMARK  5 active torsions:
REMARK  status: ('A' for Active; 'I' for Inactive)
REMARK    1  A    between atoms: C_1  and  C_2
REMARK    2  A    between atoms: C_2  and  C_3
REMARK    3  A    between atoms: C_3  and  C_4
REMARK    4  A    between atoms: C_4  and  C_5
REMARK    5  A    between atoms: C_8  and  N_9
REMARK                            x       y       z     vdW  Elec       q    Type
REMARK                         _______ _______ _______ _____ _____    ______ ____
ROOT
ATOM      1  N   UNL     1       3.622   6.303  17.915  0.00  0.00    +0.000 N 
ATOM      2  C   UNL     1       3.231   4.954  17.935  0.00  0.00    +0.000 A 
ATOM      3  S   UNL     1       1.711   4.258  17.749  0.00  0.00    +0.000 S 
ATOM      4  O   UNL     1       4.264   4.031  18.055  0.00  0.00    +0.000 OA
ATOM      5  C   UNL     1       5.084   4.190  16.948  0.00  0.00    +0.000 A 
ATOM      6  C   UNL     1       5.495   3.053  16.266  0.00  0.00    +0.000 A 
ATOM      7  C   UNL     1       6.046   3.207  14.994  0.00  0.00    +0.000 A 
ATOM      8  C   UNL     1       6.181   4.489  14.446  0.00  0.00    +0.000 A 
ATOM      9 CL   UNL     1       6.666   4.650  12.802  0.00  0.00    +0.000 Cl
ATOM     10  C   UNL     1       5.869   5.630  15.188  0.00  0.00    +0.000 A 
ATOM     11  C   UNL     1       5.343   5.469  16.468  0.00  0.00    +0.000 A 
ATOM     12  C   UNL     1       4.882   6.574  17.348  0.00  0.00    +0.000 A 
ATOM     13  S   UNL     1       5.909   7.879  17.651  0.00  0.00    +0.000 S 
ENDROOT
BRANCH   1  17
ATOM     14  C   UNL     1       1.118   9.506  19.299  0.00  0.00    +0.000 A 
ATOM     15  C   UNL     1       1.551   9.453  17.974  0.00  0.00    +0.000 A 
ATOM     16  C   UNL     1       2.309   8.369  17.521  0.00  0.00    +0.000 A 
ATOM     17  C   UNL     1       2.719   7.336  18.378  0.00  0.00    +0.000 A 
ATOM     18  C   UNL     1       2.250   7.388  19.700  0.00  0.00    +0.000 A 
ATOM     19  C   UNL     1       1.455   8.451  20.149  0.00  0.00    +0.000 A 
BRANCH  14  20
ATOM     20  C   UNL     1       0.340  10.693  19.815  0.00  0.00    +0.000 C 
BRANCH  20  21
ATOM     21  C   UNL     1      -0.529  11.394  18.767  0.00  0.00    +0.000 C 
BRANCH  21  23
ATOM     22  C   UNL     1      -1.976  10.062  17.197  0.00  0.00    +0.000 C 
ATOM     23  C   UNL     1      -1.884  10.713  18.567  0.00  0.00    +0.000 C 
ENDBRANCH  21  23
ENDBRANCH  20  21
ENDBRANCH  14  20
ENDBRANCH   1  17
TORSDOF 4
ENDMDL
MODEL 7
REMARK VINA RESULT:      -5.8      2.145      2.672
REMARK  Name = 
REMARK  5 active torsions:
REMARK  status: ('A' for Active; 'I' for Inactive)
REMARK    1  A    between atoms: C_1  and  C_2
REMARK    2  A    between atoms: C_2  and  C_3
REMARK    3  A    between atoms: C_3  and  C_4
REMARK    4  A    between atoms: C_4  and  C_5
REMARK    5  A    between atoms: C_8  and  N_9
REMARK                            x       y       z     vdW  Elec       q    Type
REMARK                         _______ _______ _______ _____ _____    ______ ____
ROOT
ATOM      1  N   UNL     1       0.704  10.871  20.817  0.00  0.00    +0.000 N 
ATOM      2  C   UNL     1       1.137  12.161  20.467  0.00  0.00    +0.000 A 
ATOM      3  S   UNL     1       1.525  12.808  18.963  0.00  0.00    +0.000 S 
ATOM      4  O   UNL     1       1.190  13.081  21.508  0.00  0.00    +0.000 OA
ATOM      5  C   UNL     1      -0.100  13.216  21.999  0.00  0.00    +0.000 A 
ATOM      6  C   UNL     1      -0.586  14.495  22.230  0.00  0.00    +0.000 A 
ATOM      7  C   UNL     1      -1.957  14.659  22.417  0.00  0.00    +0.000 A 
ATOM      8  C   UNL     1      -2.802  13.543  22.381  0.00  0.00    +0.000 A 
ATOM      9 CL   UNL     1      -4.507  13.781  22.406  0.00  0.00    +0.000 Cl
ATOM     10  C   UNL     1      -2.288  12.250  22.262  0.00  0.00    +0.000 A 
ATOM     11  C   UNL     1      -0.913  12.092  22.101  0.00  0.00    +0.000 A 
ATOM     12  C   UNL     1      -0.222  10.796  21.876  0.00  0.00    +0.000 A 
ATOM     13  S   UNL     1      -0.509   9.507  22.927  0.00  0.00    +0.000 S 
ENDROOT
BRANCH   1  17
ATOM     14  C   UNL     1       2.202   7.497  18.622  0.00  0.00    +0.000 A 
ATOM     15  C   UNL     1       2.056   7.446  20.009  0.00  0.00    +0.000 A 
ATOM     16  C   UNL     1       1.503   8.527  20.702  0.00  0.00    +0.000 A 
ATOM     17  C   UNL     1       1.139   9.718  20.056  0.00  0.00    +0.000 A 
ATOM     18  C   UNL     1       1.263   9.744  18.659  0.00  0.00    +0.000 A 
ATOM     19  C   UNL     1       1.777   8.647  17.954  0.00  0.00    +0.000 A 
BRANCH  14  20
ATOM     20  C   UNL     1       2.840   6.358  17.866  0.00  0.00    +0.000 C 
BRANCH  20  21
ATOM     21  C   UNL     1       2.678   4.983  18.521  0.00  0.00    +0.000 C 
BRANCH  21  23
ATOM     22  C   UNL     1       1.104   3.022  18.614  0.00  0.00    +0.000 C 
ATOM     23  C   UNL     1       1.782   4.043  17.714  0.00  0.00    +0.000 C 
ENDBRANCH  21  23
ENDBRANCH  20  21
ENDBRANCH  14  20
ENDBRANCH   1  17
TORSDOF 4
ENDMDL
MODEL 8
REMARK VINA RESULT:      -5.8      1.198      2.020
REMARK  Name = 
REMARK  5 active torsions:
REMARK  status: ('A' for Active; 'I' for Inactive)
REMARK    1  A    between atoms: C_1  and  C_2
REMARK    2  A    between atoms: C_2  and  C_3
REMARK    3  A    between atoms: C_3  and  C_4
REMARK    4  A    between atoms: C_4  and  C_5
REMARK    5  A    between atoms: C_8  and  N_9
REMARK                            x       y       z     vdW  Elec       q    Type
REMARK                         _______ _______ _______ _____ _____    ______ ____
ROOT
ATOM      1  N   UNL     1      -0.355  10.684  19.415  0.00  0.00    +0.000 N 
ATOM      2  C   UNL     1      -1.526  10.854  18.659  0.00  0.00    +0.000 A 
ATOM      3  S   UNL     1      -2.470   9.725  17.844  0.00  0.00    +0.000 S 
ATOM      4  O   UNL     1      -2.040  12.146  18.629  0.00  0.00    +0.000 OA
ATOM      5  C   UNL     1      -2.358  12.489  19.935  0.00  0.00    +0.000 A 
ATOM      6  C   UNL     1      -3.589  13.082  20.178  0.00  0.00    +0.000 A 
ATOM      7  C   UNL     1      -4.046  13.142  21.493  0.00  0.00    +0.000 A 
ATOM      8  C   UNL     1      -3.260  12.621  22.528  0.00  0.00    +0.000 A 
ATOM      9 CL   UNL     1      -3.923  12.514  24.113  0.00  0.00    +0.000 Cl
ATOM     10  C   UNL     1      -1.975  12.130  22.283  0.00  0.00    +0.000 A 
ATOM     11  C   UNL     1      -1.514  12.096  20.969  0.00  0.00    +0.000 A 
ATOM     12  C   UNL     1      -0.212  11.528  20.534  0.00  0.00    +0.000 A 
ATOM     13  S   UNL     1       1.210  12.028  21.294  0.00  0.00    +0.000 S 
ENDROOT
BRANCH   1  17
ATOM     14  C   UNL     1       2.587   7.672  18.565  0.00  0.00    +0.000 A 
ATOM     15  C   UNL     1       1.912   7.694  19.785  0.00  0.00    +0.000 A 
ATOM     16  C   UNL     1       0.909   8.639  20.023  0.00  0.00    +0.000 A 
ATOM     17  C   UNL     1       0.586   9.633  19.086  0.00  0.00    +0.000 A 
ATOM     18  C   UNL     1       1.252   9.580  17.852  0.00  0.00    +0.000 A 
ATOM     19  C   UNL     1       2.228   8.608  17.593  0.00  0.00    +0.000 A 
BRANCH  14  20
ATOM     20  C   UNL     1       3.704   6.690  18.312  0.00  0.00    +0.000 C 
BRANCH  20  21
ATOM     21  C   UNL     1       4.446   6.890  16.988  0.00  0.00    +0.000 C 
BRANCH  21  23
ATOM     22  C   UNL     1       6.639   5.657  17.053  0.00  0.00    +0.000 C 
ATOM     23  C   UNL     1       5.960   7.012  17.167  0.00  0.00    +0.000 C 
ENDBRANCH  21  23
ENDBRANCH  20  21
ENDBRANCH  14  20
ENDBRANCH   1  17
TORSDOF 4
ENDMDL
MODEL 9
REMARK VINA RESULT:      -5.8      5.580      9.480
REMARK  Name = 
REMARK  5 active torsions:
REMARK  status: ('A' for Active; 'I' for Inactive)
REMARK    1  A    between atoms: C_1  and  C_2
REMARK    2  A    between atoms: C_2  and  C_3
REMARK    3  A    between atoms: C_3  and  C_4
REMARK    4  A    between atoms: C_4  and  C_5
REMARK    5  A    between atoms: C_8  and  N_9
REMARK                            x       y       z     vdW  Elec       q    Type
REMARK                         _______ _______ _______ _____ _____    ______ ____
ROOT
ATOM      1  N   UNL     1       3.578   6.313  17.943  0.00  0.00    +0.000 N 
ATOM      2  C   UNL     1       3.208   4.958  17.974  0.00  0.00    +0.000 A 
ATOM      3  S   UNL     1       1.697   4.238  17.806  0.00  0.00    +0.000 S 
ATOM      4  O   UNL     1       4.256   4.052  18.088  0.00  0.00    +0.000 OA
ATOM      5  C   UNL     1       5.063   4.218  16.972  0.00  0.00    +0.000 A 
ATOM      6  C   UNL     1       5.485   3.084  16.292  0.00  0.00    +0.000 A 
ATOM      7  C   UNL     1       6.020   3.240  15.014  0.00  0.00    +0.000 A 
ATOM      8  C   UNL     1       6.131   4.520  14.458  0.00  0.00    +0.000 A 
ATOM      9 CL   UNL     1       6.598   4.680  12.809  0.00  0.00    +0.000 Cl
ATOM     10  C   UNL     1       5.808   5.661  15.197  0.00  0.00    +0.000 A 
ATOM     11  C   UNL     1       5.298   5.498  16.483  0.00  0.00    +0.000 A 
ATOM     12  C   UNL     1       4.828   6.600  17.362  0.00  0.00    +0.000 A 
ATOM     13  S   UNL     1       5.838   7.922  17.649  0.00  0.00    +0.000 S 
ENDROOT
BRANCH   1  17
ATOM     14  C   UNL     1       1.038   9.485  19.335  0.00  0.00    +0.000 A 
ATOM     15  C   UNL     1       1.456   9.429  18.005  0.00  0.00    +0.000 A 
ATOM     16  C   UNL     1       2.226   8.354  17.550  0.00  0.00    +0.000 A 
ATOM     17  C   UNL     1       2.664   7.335  18.410  0.00  0.00    +0.000 A 
ATOM     18  C   UNL     1       2.211   7.389  19.737  0.00  0.00    +0.000 A 
ATOM     19  C   UNL     1       1.403   8.442  20.188  0.00  0.00    +0.000 A 
BRANCH  14  20
ATOM     20  C   UNL     1       0.248  10.662  19.852  0.00  0.00    +0.000 C 
BRANCH  20  21
ATOM     21  C   UNL     1       0.691  11.178  21.224  0.00  0.00    +0.000 C 
BRANCH  21  23
ATOM     22  C   UNL     1      -0.606   9.937  22.987  0.00  0.00    +0.000 C 
ATOM     23  C   UNL     1      -0.457  11.247  22.232  0.00  0.00    +0.000 C 
ENDBRANCH  21  23
ENDBRANCH  20  21
ENDBRANCH  14  20
ENDBRANCH   1  17
TORSDOF 4
ENDMDL
