MODEL 1
REMARK VINA RESULT:      -7.6      0.000      0.000
REMARK  Name = 
REMARK  8 active torsions:
REMARK  status: ('A' for Active; 'I' for Inactive)
REMARK    1  A    between atoms: C_1  and  C_2
REMARK    2  A    between atoms: C_5  and  C_6
REMARK    3  A    between atoms: N_7  and  C_8
REMARK    4  A    between atoms: C_10  and  C_11
REMARK    5  A    between atoms: C_19  and  C_20
REMARK    6  A    between atoms: C_20  and  O_22
REMARK    7  A    between atoms: C_28  and  C_29
REMARK    8  A    between atoms: C_29  and  O_31
REMARK                            x       y       z     vdW  Elec       q    Type
REMARK                         _______ _______ _______ _____ _____    ______ ____
ROOT
ATOM      1  C   UNL     1       2.554   6.244  19.316  0.00  0.00    +0.000 A 
ATOM      2  C   UNL     1       2.437   7.575  18.831  0.00  0.00    +0.000 A 
ATOM      3  C   UNL     1       1.692   8.554  19.503  0.00  0.00    +0.000 A 
ATOM      4  C   UNL     1       1.044   8.205  20.693  0.00  0.00    +0.000 A 
ATOM      5  C   UNL     1       1.162   6.911  21.207  0.00  0.00    +0.000 A 
ATOM      6  C   UNL     1       1.916   5.929  20.536  0.00  0.00    +0.000 A 
ENDROOT
BRANCH   3   7
ATOM      7  C   UNL     1       1.325   9.872  18.887  0.00  0.00    +0.000 C 
ATOM      8  O   UNL     1       2.200  10.742  18.902  0.00  0.00    +0.000 OA
ATOM      9  N   UNL     1       0.042  10.146  18.416  0.00  0.00    +0.000 N 
ATOM     10  C   UNL     1      -0.316  11.561  18.274  0.00  0.00    +0.000 C 
ATOM     11  C   UNL     1      -1.827  11.770  18.482  0.00  0.00    +0.000 C 
ATOM     12  C   UNL     1      -2.549  10.991  17.410  0.00  0.00    +0.000 A 
ATOM     13  C   UNL     1      -3.745  11.457  16.872  0.00  0.00    +0.000 A 
ATOM     14  C   UNL     1      -4.143  10.999  15.625  0.00  0.00    +0.000 A 
ATOM     15  C   UNL     1      -3.330  10.106  14.910  0.00  0.00    +0.000 A 
ATOM     16  C   UNL     1      -2.245   9.478  15.559  0.00  0.00    +0.000 A 
ATOM     17  C   UNL     1      -1.892   9.875  16.858  0.00  0.00    +0.000 A 
ATOM     18  C   UNL     1      -0.846   9.190  17.738  0.00  0.00    +0.000 C 
BRANCH  15  19
ATOM     19  C   UNL     1      -3.687   9.924  13.471  0.00  0.00    +0.000 C 
ATOM     20  O   UNL     1      -4.841   9.934  13.072  0.00  0.00    +0.000 OA
BRANCH  19  21
ATOM     21  O   UNL     1      -2.638   9.841  12.628  0.00  0.00    +0.000 OA
ATOM     22  H   UNL     1      -2.439  10.645  12.118  0.00  0.00    +0.000 HD
ENDBRANCH  19  21
ENDBRANCH  15  19
ENDBRANCH   3   7
BRANCH   1  29
ATOM     23  C   UNL     1       5.730   5.894  19.170  0.00  0.00    +0.000 C 
ATOM     24  C   UNL     1       4.686   5.143  18.417  0.00  0.00    +0.000 A 
ATOM     25  C   UNL     1       4.963   4.225  17.422  0.00  0.00    +0.000 A 
ATOM     26  C   UNL     1       3.758   3.802  16.861  0.00  0.00    +0.000 A 
ATOM     27  C   UNL     1       2.738   4.436  17.542  0.00  0.00    +0.000 A 
ATOM     28  C   UNL     1       1.281   4.145  17.338  0.00  0.00    +0.000 C 
ATOM     29  N   UNL     1       3.288   5.301  18.510  0.00  0.00    +0.000 N 
ENDBRANCH   1  29
BRANCH   6  30
ATOM     30  C   UNL     1       1.782   4.565  21.106  0.00  0.00    +0.000 C 
ATOM     31  O   UNL     1       2.596   4.072  21.866  0.00  0.00    +0.000 OA
BRANCH  30  32
ATOM     32  O   UNL     1       0.679   3.919  20.668  0.00  0.00    +0.000 OA
ATOM     33  H   UNL     1       0.830   3.202  20.019  0.00  0.00    +0.000 HD
ENDBRANCH  30  32
ENDBRANCH   6  30
TORSDOF 6
ENDMDL
MODEL 2
REMARK VINA RESULT:      -7.5      4.395      9.516
REMARK  Name = 
REMARK  8 active torsions:
REMARK  status: ('A' for Active; 'I' for Inactive)
REMARK    1  A    between atoms: C_1  and  C_2
REMARK    2  A    between atoms: C_5  and  C_6
REMARK    3  A    between atoms: N_7  and  C_8
REMARK    4  A    between atoms: C_10  and  C_11
REMARK    5  A    between atoms: C_19  and  C_20
REMARK    6  A    between atoms: C_20  and  O_22
REMARK    7  A    between atoms: C_28  and  C_29
REMARK    8  A    between atoms: C_29  and  O_31
REMARK                            x       y       z     vdW  Elec       q    Type
REMARK                         _______ _______ _______ _____ _____    ______ ____
ROOT
ATOM      1  C   UNL     1      -3.623  13.347  21.669  0.00  0.00    +0.000 A 
ATOM      2  C   UNL     1      -2.368  13.096  21.050  0.00  0.00    +0.000 A 
ATOM      3  C   UNL     1      -1.373  12.321  21.662  0.00  0.00    +0.000 A 
ATOM      4  C   UNL     1      -1.630  11.774  22.924  0.00  0.00    +0.000 A 
ATOM      5  C   UNL     1      -2.865  11.982  23.545  0.00  0.00    +0.000 A 
ATOM      6  C   UNL     1      -3.867  12.756  22.927  0.00  0.00    +0.000 A 
ENDROOT
BRANCH   3   7
ATOM      7  C   UNL     1       0.043  12.266  21.170  0.00  0.00    +0.000 C 
ATOM      8  O   UNL     1       0.767  13.215  21.486  0.00  0.00    +0.000 OA
ATOM      9  N   UNL     1       0.500  11.261  20.319  0.00  0.00    +0.000 N 
ATOM     10  C   UNL     1       1.718  11.553  19.555  0.00  0.00    +0.000 C 
ATOM     11  C   UNL     1       1.717  10.802  18.211  0.00  0.00    +0.000 C 
ATOM     12  C   UNL     1       1.692   9.324  18.512  0.00  0.00    +0.000 A 
ATOM     13  C   UNL     1       2.347   8.415  17.685  0.00  0.00    +0.000 A 
ATOM     14  C   UNL     1       2.695   7.174  18.196  0.00  0.00    +0.000 A 
ATOM     15  C   UNL     1       2.417   6.859  19.535  0.00  0.00    +0.000 A 
ATOM     16  C   UNL     1       1.562   7.696  20.286  0.00  0.00    +0.000 A 
ATOM     17  C   UNL     1       1.133   8.915  19.739  0.00  0.00    +0.000 A 
ATOM     18  C   UNL     1       0.096   9.848  20.364  0.00  0.00    +0.000 C 
BRANCH  15  19
ATOM     19  C   UNL     1       3.102   5.642  20.065  0.00  0.00    +0.000 C 
ATOM     20  O   UNL     1       4.132   5.202  19.580  0.00  0.00    +0.000 OA
BRANCH  19  21
ATOM     21  O   UNL     1       2.553   5.117  21.179  0.00  0.00    +0.000 OA
ATOM     22  H   UNL     1       2.612   5.664  21.980  0.00  0.00    +0.000 HD
ENDBRANCH  19  21
ENDBRANCH  15  19
ENDBRANCH   3   7
BRANCH   1  29
ATOM     23  C   UNL     1      -3.699  16.543  21.764  0.00  0.00    +0.000 C 
ATOM     24  C   UNL     1      -4.607  15.623  21.023  0.00  0.00    +0.000 A 
ATOM     25  C   UNL     1      -5.729  16.038  20.331  0.00  0.00    +0.000 A 
ATOM     26  C   UNL     1      -6.400  14.911  19.858  0.00  0.00    +0.000 A 
ATOM     27  C   UNL     1      -5.665  13.803  20.229  0.00  0.00    +0.000 A 
ATOM     28  C   UNL     1      -5.972  12.403  19.790  0.00  0.00    +0.000 C 
ATOM     29  N   UNL     1      -4.546  14.215  20.980  0.00  0.00    +0.000 N 
ENDBRANCH   1  29
BRANCH   6  30
ATOM     30  C   UNL     1      -5.036  13.040  23.796  0.00  0.00    +0.000 C 
ATOM     31  O   UNL     1      -5.961  12.262  23.953  0.00  0.00    +0.000 OA
BRANCH  30  32
ATOM     32  O   UNL     1      -4.982  14.263  24.368  0.00  0.00    +0.000 OA
ATOM     33  H   UNL     1      -4.241  14.414  24.990  0.00  0.00    +0.000 HD
ENDBRANCH  30  32
ENDBRANCH   6  30
TORSDOF 6
ENDMDL
MODEL 3
REMARK VINA RESULT:      -7.4      0.666      1.639
REMARK  Name = 
REMARK  8 active torsions:
REMARK  status: ('A' for Active; 'I' for Inactive)
REMARK    1  A    between atoms: C_1  and  C_2
REMARK    2  A    between atoms: C_5  and  C_6
REMARK    3  A    between atoms: N_7  and  C_8
REMARK    4  A    between atoms: C_10  and  C_11
REMARK    5  A    between atoms: C_19  and  C_20
REMARK    6  A    between atoms: C_20  and  O_22
REMARK    7  A    between atoms: C_28  and  C_29
REMARK    8  A    between atoms: C_29  and  O_31
REMARK                            x       y       z     vdW  Elec       q    Type
REMARK                         _______ _______ _______ _____ _____    ______ ____
ROOT
ATOM      1  C   UNL     1       2.592   6.717  18.878  0.00  0.00    +0.000 A 
ATOM      2  C   UNL     1       2.328   8.030  18.403  0.00  0.00    +0.000 A 
ATOM      3  C   UNL     1       1.637   8.979  19.169  0.00  0.00    +0.000 A 
ATOM      4  C   UNL     1       1.195   8.617  20.447  0.00  0.00    +0.000 A 
ATOM      5  C   UNL     1       1.462   7.341  20.949  0.00  0.00    +0.000 A 
ATOM      6  C   UNL     1       2.163   6.389  20.182  0.00  0.00    +0.000 A 
ENDROOT
BRANCH   3   7
ATOM      7  C   UNL     1       1.107  10.263  18.602  0.00  0.00    +0.000 C 
ATOM      8  O   UNL     1       1.864  11.237  18.661  0.00  0.00    +0.000 OA
ATOM      9  N   UNL     1      -0.198  10.390  18.129  0.00  0.00    +0.000 N 
ATOM     10  C   UNL     1      -0.734  11.752  18.039  0.00  0.00    +0.000 C 
ATOM     11  C   UNL     1      -2.260  11.758  18.239  0.00  0.00    +0.000 C 
ATOM     12  C   UNL     1      -2.870  10.937  17.129  0.00  0.00    +0.000 A 
ATOM     13  C   UNL     1      -4.113  11.268  16.598  0.00  0.00    +0.000 A 
ATOM     14  C   UNL     1      -4.442  10.814  15.329  0.00  0.00    +0.000 A 
ATOM     15  C   UNL     1      -3.517  10.062  14.588  0.00  0.00    +0.000 A 
ATOM     16  C   UNL     1      -2.364   9.552  15.223  0.00  0.00    +0.000 A 
ATOM     17  C   UNL     1      -2.072   9.937  16.540  0.00  0.00    +0.000 A 
ATOM     18  C   UNL     1      -0.952   9.356  17.404  0.00  0.00    +0.000 C 
BRANCH  15  19
ATOM     19  C   UNL     1      -3.839   9.895  13.139  0.00  0.00    +0.000 C 
ATOM     20  O   UNL     1      -4.951  10.112  12.682  0.00  0.00    +0.000 OA
BRANCH  19  21
ATOM     21  O   UNL     1      -2.791   9.576  12.353  0.00  0.00    +0.000 OA
ATOM     22  H   UNL     1      -2.700   8.635  12.128  0.00  0.00    +0.000 HD
ENDBRANCH  19  21
ENDBRANCH  15  19
ENDBRANCH   3   7
BRANCH   1  29
ATOM     23  C   UNL     1       1.384   4.023  17.646  0.00  0.00    +0.000 C 
ATOM     24  C   UNL     1       2.741   4.601  17.440  0.00  0.00    +0.000 A 
ATOM     25  C   UNL     1       3.753   3.966  16.745  0.00  0.00    +0.000 A 
ATOM     26  C   UNL     1       4.911   4.736  16.845  0.00  0.00    +0.000 A 
ATOM     27  C   UNL     1       4.597   5.866  17.572  0.00  0.00    +0.000 A 
ATOM     28  C   UNL     1       5.532   7.018  17.784  0.00  0.00    +0.000 C 
ATOM     29  N   UNL     1       3.249   5.801  17.980  0.00  0.00    +0.000 N 
ENDBRANCH   1  29
BRANCH   6  30
ATOM     30  C   UNL     1       2.194   5.032  20.780  0.00  0.00    +0.000 C 
ATOM     31  O   UNL     1       1.192   4.379  21.017  0.00  0.00    +0.000 OA
BRANCH  30  32
ATOM     32  O   UNL     1       3.446   4.609  21.061  0.00  0.00    +0.000 OA
ATOM     33  H   UNL     1       3.868   5.008  21.849  0.00  0.00    +0.000 HD
ENDBRANCH  30  32
ENDBRANCH   6  30
TORSDOF 6
ENDMDL
MODEL 4
REMARK VINA RESULT:      -7.4      3.400      4.829
REMARK  Name = 
REMARK  8 active torsions:
REMARK  status: ('A' for Active; 'I' for Inactive)
REMARK    1  A    between atoms: C_1  and  C_2
REMARK    2  A    between atoms: C_5  and  C_6
REMARK    3  A    between atoms: N_7  and  C_8
REMARK    4  A    between atoms: C_10  and  C_11
REMARK    5  A    between atoms: C_19  and  C_20
REMARK    6  A    between atoms: C_20  and  O_22
REMARK    7  A    between atoms: C_28  and  C_29
REMARK    8  A    between atoms: C_29  and  O_31
REMARK                            x       y       z     vdW  Elec       q    Type
REMARK                         _______ _______ _______ _____ _____    ______ ____
ROOT
ATOM      1  C   UNL     1       3.386   5.617  18.982  0.00  0.00    +0.000 A 
ATOM      2  C   UNL     1       3.003   6.934  18.608  0.00  0.00    +0.000 A 
ATOM      3  C   UNL     1       2.077   7.683  19.347  0.00  0.00    +0.000 A 
ATOM      4  C   UNL     1       1.514   7.111  20.494  0.00  0.00    +0.000 A 
ATOM      5  C   UNL     1       1.890   5.828  20.899  0.00  0.00    +0.000 A 
ATOM      6  C   UNL     1       2.826   5.078  20.160  0.00  0.00    +0.000 A 
ENDROOT
BRANCH   3   7
ATOM      7  C   UNL     1       1.452   8.948  18.838  0.00  0.00    +0.000 C 
ATOM      8  O   UNL     1       1.240   9.001  17.623  0.00  0.00    +0.000 OA
ATOM      9  N   UNL     1       1.214  10.049  19.661  0.00  0.00    +0.000 N 
ATOM     10  C   UNL     1       1.044  11.342  18.992  0.00  0.00    +0.000 C 
ATOM     11  C   UNL     1       1.519  12.495  19.895  0.00  0.00    +0.000 C 
ATOM     12  C   UNL     1       0.660  12.489  21.136  0.00  0.00    +0.000 A 
ATOM     13  C   UNL     1       0.327  13.677  21.780  0.00  0.00    +0.000 A 
ATOM     14  C   UNL     1      -0.788  13.703  22.605  0.00  0.00    +0.000 A 
ATOM     15  C   UNL     1      -1.580  12.554  22.755  0.00  0.00    +0.000 A 
ATOM     16  C   UNL     1      -1.106  11.312  22.280  0.00  0.00    +0.000 A 
ATOM     17  C   UNL     1       0.072  11.267  21.518  0.00  0.00    +0.000 A 
ATOM     18  C   UNL     1       0.784   9.992  21.066  0.00  0.00    +0.000 C 
BRANCH  15  19
ATOM     19  C   UNL     1      -2.909  12.770  23.401  0.00  0.00    +0.000 C 
ATOM     20  O   UNL     1      -3.549  11.864  23.911  0.00  0.00    +0.000 OA
BRANCH  19  21
ATOM     21  O   UNL     1      -3.312  14.055  23.465  0.00  0.00    +0.000 OA
ATOM     22  H   UNL     1      -4.130  14.268  22.985  0.00  0.00    +0.000 HD
ENDBRANCH  19  21
ENDBRANCH  15  19
ENDBRANCH   3   7
BRANCH   1  29
ATOM     23  C   UNL     1       6.567   5.925  18.857  0.00  0.00    +0.000 C 
ATOM     24  C   UNL     1       5.695   5.047  18.028  0.00  0.00    +0.000 A 
ATOM     25  C   UNL     1       6.149   4.291  16.964  0.00  0.00    +0.000 A 
ATOM     26  C   UNL     1       5.053   3.685  16.350  0.00  0.00    +0.000 A 
ATOM     27  C   UNL     1       3.928   4.041  17.066  0.00  0.00    +0.000 A 
ATOM     28  C   UNL     1       2.559   3.482  16.815  0.00  0.00    +0.000 C 
ATOM     29  N   UNL     1       4.293   4.913  18.111  0.00  0.00    +0.000 N 
ENDBRANCH   1  29
BRANCH   6  30
ATOM     30  C   UNL     1       2.969   3.672  20.612  0.00  0.00    +0.000 C 
ATOM     31  O   UNL     1       3.834   2.919  20.200  0.00  0.00    +0.000 OA
BRANCH  30  32
ATOM     32  O   UNL     1       2.022   3.307  21.504  0.00  0.00    +0.000 OA
ATOM     33  H   UNL     1       1.301   3.952  21.653  0.00  0.00    +0.000 HD
ENDBRANCH  30  32
ENDBRANCH   6  30
TORSDOF 6
ENDMDL
MODEL 5
REMARK VINA RESULT:      -7.3      3.595      4.761
REMARK  Name = 
REMARK  8 active torsions:
REMARK  status: ('A' for Active; 'I' for Inactive)
REMARK    1  A    between atoms: C_1  and  C_2
REMARK    2  A    between atoms: C_5  and  C_6
REMARK    3  A    between atoms: N_7  and  C_8
REMARK    4  A    between atoms: C_10  and  C_11
REMARK    5  A    between atoms: C_19  and  C_20
REMARK    6  A    between atoms: C_20  and  O_22
REMARK    7  A    between atoms: C_28  and  C_29
REMARK    8  A    between atoms: C_29  and  O_31
REMARK                            x       y       z     vdW  Elec       q    Type
REMARK                         _______ _______ _______ _____ _____    ______ ____
ROOT
ATOM      1  C   UNL     1       4.246   5.539  18.677  0.00  0.00    +0.000 A 
ATOM      2  C   UNL     1       3.785   6.842  18.347  0.00  0.00    +0.000 A 
ATOM      3  C   UNL     1       2.631   7.395  18.917  0.00  0.00    +0.000 A 
ATOM      4  C   UNL     1       1.911   6.636  19.847  0.00  0.00    +0.000 A 
ATOM      5  C   UNL     1       2.354   5.361  20.209  0.00  0.00    +0.000 A 
ATOM      6  C   UNL     1       3.518   4.808  19.641  0.00  0.00    +0.000 A 
ENDROOT
BRANCH   3   7
ATOM      7  C   UNL     1       1.972   8.638  18.395  0.00  0.00    +0.000 C 
ATOM      8  O   UNL     1       1.812   8.697  17.172  0.00  0.00    +0.000 OA
ATOM      9  N   UNL     1       1.648   9.716  19.218  0.00  0.00    +0.000 N 
ATOM     10  C   UNL     1       1.449  11.009  18.558  0.00  0.00    +0.000 C 
ATOM     11  C   UNL     1       1.830  12.170  19.494  0.00  0.00    +0.000 C 
ATOM     12  C   UNL     1       0.918  12.109  20.695  0.00  0.00    +0.000 A 
ATOM     13  C   UNL     1       0.503  13.272  21.336  0.00  0.00    +0.000 A 
ATOM     14  C   UNL     1      -0.647  13.237  22.111  0.00  0.00    +0.000 A 
ATOM     15  C   UNL     1      -1.392  12.052  22.213  0.00  0.00    +0.000 A 
ATOM     16  C   UNL     1      -0.841  10.839  21.745  0.00  0.00    +0.000 A 
ATOM     17  C   UNL     1       0.371  10.857  21.037  0.00  0.00    +0.000 A 
ATOM     18  C   UNL     1       1.159   9.621  20.602  0.00  0.00    +0.000 C 
BRANCH  15  19
ATOM     19  C   UNL     1      -2.757  12.199  22.801  0.00  0.00    +0.000 C 
ATOM     20  O   UNL     1      -3.101  11.621  23.820  0.00  0.00    +0.000 OA
BRANCH  19  21
ATOM     21  O   UNL     1      -3.555  13.090  22.178  0.00  0.00    +0.000 OA
ATOM     22  H   UNL     1      -4.322  13.401  22.688  0.00  0.00    +0.000 HD
ENDBRANCH  19  21
ENDBRANCH  15  19
ENDBRANCH   3   7
BRANCH   1  29
ATOM     23  C   UNL     1       7.299   5.772  19.601  0.00  0.00    +0.000 C 
ATOM     24  C   UNL     1       6.759   5.151  18.359  0.00  0.00    +0.000 A 
ATOM     25  C   UNL     1       7.547   4.666  17.333  0.00  0.00    +0.000 A 
ATOM     26  C   UNL     1       6.716   4.262  16.288  0.00  0.00    +0.000 A 
ATOM     27  C   UNL     1       5.412   4.465  16.693  0.00  0.00    +0.000 A 
ATOM     28  C   UNL     1       4.210   4.027  15.912  0.00  0.00    +0.000 C 
ATOM     29  N   UNL     1       5.405   5.043  17.979  0.00  0.00    +0.000 N 
ENDBRANCH   1  29
BRANCH   6  30
ATOM     30  C   UNL     1       3.742   3.381  19.984  0.00  0.00    +0.000 C 
ATOM     31  O   UNL     1       4.795   2.801  19.789  0.00  0.00    +0.000 OA
BRANCH  30  32
ATOM     32  O   UNL     1       2.646   2.788  20.506  0.00  0.00    +0.000 OA
ATOM     33  H   UNL     1       2.036   3.372  21.003  0.00  0.00    +0.000 HD
ENDBRANCH  30  32
ENDBRANCH   6  30
TORSDOF 6
ENDMDL
MODEL 6
REMARK VINA RESULT:      -7.2      4.463      9.544
REMARK  Name = 
REMARK  8 active torsions:
REMARK  status: ('A' for Active; 'I' for Inactive)
REMARK    1  A    between atoms: C_1  and  C_2
REMARK    2  A    between atoms: C_5  and  C_6
REMARK    3  A    between atoms: N_7  and  C_8
REMARK    4  A    between atoms: C_10  and  C_11
REMARK    5  A    between atoms: C_19  and  C_20
REMARK    6  A    between atoms: C_20  and  O_22
REMARK    7  A    between atoms: C_28  and  C_29
REMARK    8  A    between atoms: C_29  and  O_31
REMARK                            x       y       z     vdW  Elec       q    Type
REMARK                         _______ _______ _______ _____ _____    ______ ____
ROOT
ATOM      1  C   UNL     1      -4.118  13.063  21.670  0.00  0.00    +0.000 A 
ATOM      2  C   UNL     1      -2.823  12.846  21.126  0.00  0.00    +0.000 A 
ATOM      3  C   UNL     1      -1.772  12.313  21.884  0.00  0.00    +0.000 A 
ATOM      4  C   UNL     1      -2.011  11.980  23.222  0.00  0.00    +0.000 A 
ATOM      5  C   UNL     1      -3.282  12.159  23.776  0.00  0.00    +0.000 A 
ATOM      6  C   UNL     1      -4.340  12.689  23.013  0.00  0.00    +0.000 A 
ENDROOT
BRANCH   3   7
ATOM      7  C   UNL     1      -0.343  12.328  21.430  0.00  0.00    +0.000 C 
ATOM      8  O   UNL     1       0.339  13.285  21.809  0.00  0.00    +0.000 OA
ATOM      9  N   UNL     1       0.172  11.380  20.547  0.00  0.00    +0.000 N 
ATOM     10  C   UNL     1       1.398  11.747  19.832  0.00  0.00    +0.000 C 
ATOM     11  C   UNL     1       1.459  11.060  18.456  0.00  0.00    +0.000 C 
ATOM     12  C   UNL     1       1.477   9.568  18.688  0.00  0.00    +0.000 A 
ATOM     13  C   UNL     1       2.185   8.722  17.840  0.00  0.00    +0.000 A 
ATOM     14  C   UNL     1       2.562   7.470  18.303  0.00  0.00    +0.000 A 
ATOM     15  C   UNL     1       2.260   7.085  19.618  0.00  0.00    +0.000 A 
ATOM     16  C   UNL     1       1.357   7.857  20.381  0.00  0.00    +0.000 A 
ATOM     17  C   UNL     1       0.900   9.085  19.879  0.00  0.00    +0.000 A 
ATOM     18  C   UNL     1      -0.185   9.953  20.517  0.00  0.00    +0.000 C 
BRANCH  15  19
ATOM     19  C   UNL     1       2.972   5.868  20.111  0.00  0.00    +0.000 C 
ATOM     20  O   UNL     1       2.422   5.011  20.786  0.00  0.00    +0.000 OA
BRANCH  19  21
ATOM     21  O   UNL     1       4.242   5.734  19.679  0.00  0.00    +0.000 OA
ATOM     22  H   UNL     1       4.764   5.035  20.108  0.00  0.00    +0.000 HD
ENDBRANCH  19  21
ENDBRANCH  15  19
ENDBRANCH   3   7
BRANCH   1  29
ATOM     23  C   UNL     1      -6.392  11.591  19.968  0.00  0.00    +0.000 C 
ATOM     24  C   UNL     1      -6.103  13.050  20.049  0.00  0.00    +0.000 A 
ATOM     25  C   UNL     1      -6.735  14.006  19.276  0.00  0.00    +0.000 A 
ATOM     26  C   UNL     1      -6.144  15.243  19.529  0.00  0.00    +0.000 A 
ATOM     27  C   UNL     1      -5.171  15.050  20.489  0.00  0.00    +0.000 A 
ATOM     28  C   UNL     1      -4.399  16.158  21.141  0.00  0.00    +0.000 C 
ATOM     29  N   UNL     1      -5.105  13.681  20.820  0.00  0.00    +0.000 N 
ENDBRANCH   1  29
BRANCH   6  30
ATOM     30  C   UNL     1      -5.562  12.994  23.798  0.00  0.00    +0.000 C 
ATOM     31  O   UNL     1      -6.309  13.921  23.543  0.00  0.00    +0.000 OA
BRANCH  30  32
ATOM     32  O   UNL     1      -5.739  12.154  24.841  0.00  0.00    +0.000 OA
ATOM     33  H   UNL     1      -6.071  12.560  25.668  0.00  0.00    +0.000 HD
ENDBRANCH  30  32
ENDBRANCH   6  30
TORSDOF 6
ENDMDL
MODEL 7
REMARK VINA RESULT:      -7.2      3.643      4.956
REMARK  Name = 
REMARK  8 active torsions:
REMARK  status: ('A' for Active; 'I' for Inactive)
REMARK    1  A    between atoms: C_1  and  C_2
REMARK    2  A    between atoms: C_5  and  C_6
REMARK    3  A    between atoms: N_7  and  C_8
REMARK    4  A    between atoms: C_10  and  C_11
REMARK    5  A    between atoms: C_19  and  C_20
REMARK    6  A    between atoms: C_20  and  O_22
REMARK    7  A    between atoms: C_28  and  C_29
REMARK    8  A    between atoms: C_29  and  O_31
REMARK                            x       y       z     vdW  Elec       q    Type
REMARK                         _______ _______ _______ _____ _____    ______ ____
ROOT
ATOM      1  C   UNL     1       4.370   5.677  18.481  0.00  0.00    +0.000 A 
ATOM      2  C   UNL     1       3.897   6.989  18.207  0.00  0.00    +0.000 A 
ATOM      3  C   UNL     1       2.706   7.485  18.753  0.00  0.00    +0.000 A 
ATOM      4  C   UNL     1       1.959   6.658  19.600  0.00  0.00    +0.000 A 
ATOM      5  C   UNL     1       2.412   5.372  19.907  0.00  0.00    +0.000 A 
ATOM      6  C   UNL     1       3.613   4.876  19.364  0.00  0.00    +0.000 A 
ENDROOT
BRANCH   3   7
ATOM      7  C   UNL     1       2.046   8.745  18.274  0.00  0.00    +0.000 C 
ATOM      8  O   UNL     1       1.914   8.860  17.052  0.00  0.00    +0.000 OA
ATOM      9  N   UNL     1       1.691   9.779  19.139  0.00  0.00    +0.000 N 
ATOM     10  C   UNL     1       1.493  11.100  18.535  0.00  0.00    +0.000 C 
ATOM     11  C   UNL     1       1.840  12.219  19.534  0.00  0.00    +0.000 C 
ATOM     12  C   UNL     1       0.901  12.092  20.708  0.00  0.00    +0.000 A 
ATOM     13  C   UNL     1       0.458  13.220  21.393  0.00  0.00    +0.000 A 
ATOM     14  C   UNL     1      -0.709  13.137  22.138  0.00  0.00    +0.000 A 
ATOM     15  C   UNL     1      -1.443  11.941  22.166  0.00  0.00    +0.000 A 
ATOM     16  C   UNL     1      -0.869  10.757  21.656  0.00  0.00    +0.000 A 
ATOM     17  C   UNL     1       0.359  10.821  20.978  0.00  0.00    +0.000 A 
ATOM     18  C   UNL     1       1.171   9.614  20.505  0.00  0.00    +0.000 C 
BRANCH  15  19
ATOM     19  C   UNL     1      -2.824  12.047  22.728  0.00  0.00    +0.000 C 
ATOM     20  O   UNL     1      -3.096  11.720  23.872  0.00  0.00    +0.000 OA
BRANCH  19  21
ATOM     21  O   UNL     1      -3.731  12.619  21.911  0.00  0.00    +0.000 OA
ATOM     22  H   UNL     1      -4.616  12.218  21.913  0.00  0.00    +0.000 HD
ENDBRANCH  19  21
ENDBRANCH  15  19
ENDBRANCH   3   7
BRANCH   1  29
ATOM     23  C   UNL     1       4.598   4.432  15.543  0.00  0.00    +0.000 C 
ATOM     24  C   UNL     1       5.691   4.679  16.525  0.00  0.00    +0.000 A 
ATOM     25  C   UNL     1       7.001   4.282  16.338  0.00  0.00    +0.000 A 
ATOM     26  C   UNL     1       7.723   4.572  17.495  0.00  0.00    +0.000 A 
ATOM     27  C   UNL     1       6.859   5.184  18.380  0.00  0.00    +0.000 A 
ATOM     28  C   UNL     1       7.279   5.780  19.690  0.00  0.00    +0.000 C 
ATOM     29  N   UNL     1       5.571   5.246  17.811  0.00  0.00    +0.000 N 
ENDBRANCH   1  29
BRANCH   6  30
ATOM     30  C   UNL     1       3.851   3.436  19.632  0.00  0.00    +0.000 C 
ATOM     31  O   UNL     1       4.960   2.955  19.784  0.00  0.00    +0.000 OA
BRANCH  30  32
ATOM     32  O   UNL     1       2.711   2.711  19.659  0.00  0.00    +0.000 OA
ATOM     33  H   UNL     1       2.339   2.461  18.789  0.00  0.00    +0.000 HD
ENDBRANCH  30  32
ENDBRANCH   6  30
TORSDOF 6
ENDMDL
MODEL 8
REMARK VINA RESULT:      -7.1      3.291      5.119
REMARK  Name = 
REMARK  8 active torsions:
REMARK  status: ('A' for Active; 'I' for Inactive)
REMARK    1  A    between atoms: C_1  and  C_2
REMARK    2  A    between atoms: C_5  and  C_6
REMARK    3  A    between atoms: N_7  and  C_8
REMARK    4  A    between atoms: C_10  and  C_11
REMARK    5  A    between atoms: C_19  and  C_20
REMARK    6  A    between atoms: C_20  and  O_22
REMARK    7  A    between atoms: C_28  and  C_29
REMARK    8  A    between atoms: C_29  and  O_31
REMARK                            x       y       z     vdW  Elec       q    Type
REMARK                         _______ _______ _______ _____ _____    ______ ____
ROOT
ATOM      1  C   UNL     1       3.162   5.874  18.741  0.00  0.00    +0.000 A 
ATOM      2  C   UNL     1       2.742   7.190  18.408  0.00  0.00    +0.000 A 
ATOM      3  C   UNL     1       1.907   7.943  19.244  0.00  0.00    +0.000 A 
ATOM      4  C   UNL     1       1.476   7.378  20.450  0.00  0.00    +0.000 A 
ATOM      5  C   UNL     1       1.894   6.095  20.814  0.00  0.00    +0.000 A 
ATOM      6  C   UNL     1       2.738   5.340  19.977  0.00  0.00    +0.000 A 
ENDROOT
BRANCH   3   7
ATOM      7  C   UNL     1       1.230   9.208  18.804  0.00  0.00    +0.000 C 
ATOM      8  O   UNL     1       0.945   9.285  17.605  0.00  0.00    +0.000 OA
ATOM      9  N   UNL     1       1.023  10.284  19.666  0.00  0.00    +0.000 N 
ATOM     10  C   UNL     1       0.790  11.590  19.040  0.00  0.00    +0.000 C 
ATOM     11  C   UNL     1       1.297  12.730  19.941  0.00  0.00    +0.000 C 
ATOM     12  C   UNL     1       0.514  12.678  21.231  0.00  0.00    +0.000 A 
ATOM     13  C   UNL     1       0.199  13.845  21.922  0.00  0.00    +0.000 A 
ATOM     14  C   UNL     1      -0.864  13.830  22.812  0.00  0.00    +0.000 A 
ATOM     15  C   UNL     1      -1.626  12.663  22.981  0.00  0.00    +0.000 A 
ATOM     16  C   UNL     1      -1.159  11.442  22.449  0.00  0.00    +0.000 A 
ATOM     17  C   UNL     1      -0.028  11.438  21.617  0.00  0.00    +0.000 A 
ATOM     18  C   UNL     1       0.678  10.187  21.092  0.00  0.00    +0.000 C 
BRANCH  15  19
ATOM     19  C   UNL     1      -2.918  12.839  23.710  0.00  0.00    +0.000 C 
ATOM     20  O   UNL     1      -3.756  11.954  23.786  0.00  0.00    +0.000 OA
BRANCH  19  21
ATOM     21  O   UNL     1      -3.053  14.012  24.360  0.00  0.00    +0.000 OA
ATOM     22  H   UNL     1      -3.918  14.448  24.273  0.00  0.00    +0.000 HD
ENDBRANCH  19  21
ENDBRANCH  15  19
ENDBRANCH   3   7
BRANCH   1  29
ATOM     23  C   UNL     1       2.321   3.276  17.073  0.00  0.00    +0.000 C 
ATOM     24  C   UNL     1       3.619   4.009  17.044  0.00  0.00    +0.000 A 
ATOM     25  C   UNL     1       4.730   3.581  16.342  0.00  0.00    +0.000 A 
ATOM     26  C   UNL     1       5.792   4.440  16.628  0.00  0.00    +0.000 A 
ATOM     27  C   UNL     1       5.317   5.419  17.477  0.00  0.00    +0.000 A 
ATOM     28  C   UNL     1       6.110   6.616  17.908  0.00  0.00    +0.000 C 
ATOM     29  N   UNL     1       3.963   5.164  17.775  0.00  0.00    +0.000 N 
ENDBRANCH   1  29
BRANCH   6  30
ATOM     30  C   UNL     1       2.930   3.935  20.416  0.00  0.00    +0.000 C 
ATOM     31  O   UNL     1       3.983   3.333  20.300  0.00  0.00    +0.000 OA
BRANCH  30  32
ATOM     32  O   UNL     1       1.806   3.387  20.927  0.00  0.00    +0.000 OA
ATOM     33  H   UNL     1       1.936   2.669  21.580  0.00  0.00    +0.000 HD
ENDBRANCH  30  32
ENDBRANCH   6  30
TORSDOF 6
ENDMDL
MODEL 9
REMARK VINA RESULT:      -7.1      9.556     12.016
REMARK  Name = 
REMARK  8 active torsions:
REMARK  status: ('A' for Active; 'I' for Inactive)
REMARK    1  A    between atoms: C_1  and  C_2
REMARK    2  A    between atoms: C_5  and  C_6
REMARK    3  A    between atoms: N_7  and  C_8
REMARK    4  A    between atoms: C_10  and  C_11
REMARK    5  A    between atoms: C_19  and  C_20
REMARK    6  A    between atoms: C_20  and  O_22
REMARK    7  A    between atoms: C_28  and  C_29
REMARK    8  A    between atoms: C_29  and  O_31
REMARK                            x       y       z     vdW  Elec       q    Type
REMARK                         _______ _______ _______ _____ _____    ______ ____
ROOT
ATOM      1  C   UNL     1       8.830  13.597  20.262  0.00  0.00    +0.000 A 
ATOM      2  C   UNL     1       8.397  13.679  21.614  0.00  0.00    +0.000 A 
ATOM      3  C   UNL     1       7.183  14.279  21.976  0.00  0.00    +0.000 A 
ATOM      4  C   UNL     1       6.370  14.812  20.968  0.00  0.00    +0.000 A 
ATOM      5  C   UNL     1       6.759  14.723  19.629  0.00  0.00    +0.000 A 
ATOM      6  C   UNL     1       7.976  14.114  19.264  0.00  0.00    +0.000 A 
ENDROOT
BRANCH   3   7
ATOM      7  C   UNL     1       6.828  14.625  23.392  0.00  0.00    +0.000 C 
ATOM      8  O   UNL     1       6.564  15.810  23.614  0.00  0.00    +0.000 OA
ATOM      9  N   UNL     1       6.891  13.693  24.427  0.00  0.00    +0.000 N 
ATOM     10  C   UNL     1       6.976  14.231  25.789  0.00  0.00    +0.000 C 
ATOM     11  C   UNL     1       7.748  13.271  26.712  0.00  0.00    +0.000 C 
ATOM     12  C   UNL     1       6.983  11.971  26.765  0.00  0.00    +0.000 A 
ATOM     13  C   UNL     1       6.962  11.202  27.925  0.00  0.00    +0.000 A 
ATOM     14  C   UNL     1       5.931  10.292  28.108  0.00  0.00    +0.000 A 
ATOM     15  C   UNL     1       4.911  10.180  27.149  0.00  0.00    +0.000 A 
ATOM     16  C   UNL     1       5.068  10.798  25.889  0.00  0.00    +0.000 A 
ATOM     17  C   UNL     1       6.160  11.652  25.668  0.00  0.00    +0.000 A 
ATOM     18  C   UNL     1       6.541  12.268  24.322  0.00  0.00    +0.000 C 
BRANCH  15  19
ATOM     19  C   UNL     1       3.704   9.415  27.582  0.00  0.00    +0.000 C 
ATOM     20  O   UNL     1       2.579   9.684  27.190  0.00  0.00    +0.000 OA
BRANCH  19  21
ATOM     21  O   UNL     1       3.954   8.345  28.362  0.00  0.00    +0.000 OA
ATOM     22  H   UNL     1       3.464   8.308  29.201  0.00  0.00    +0.000 HD
ENDBRANCH  19  21
ENDBRANCH  15  19
ENDBRANCH   3   7
BRANCH   1  29
ATOM     23  C   UNL     1      11.626  15.142  20.107  0.00  0.00    +0.000 C 
ATOM     24  C   UNL     1      11.368  13.687  19.921  0.00  0.00    +0.000 A 
ATOM     25  C   UNL     1      12.330  12.777  19.525  0.00  0.00    +0.000 A 
ATOM     26  C   UNL     1      11.718  11.536  19.343  0.00  0.00    +0.000 A 
ATOM     27  C   UNL     1      10.384  11.680  19.666  0.00  0.00    +0.000 A 
ATOM     28  C   UNL     1       9.409  10.544  19.739  0.00  0.00    +0.000 C 
ATOM     29  N   UNL     1      10.127  13.022  20.010  0.00  0.00    +0.000 N 
ENDBRANCH   1  29
BRANCH   6  30
ATOM     30  C   UNL     1       8.328  14.274  17.832  0.00  0.00    +0.000 C 
ATOM     31  O   UNL     1       8.542  13.336  17.084  0.00  0.00    +0.000 OA
BRANCH  30  32
ATOM     32  O   UNL     1       8.417  15.568  17.453  0.00  0.00    +0.000 OA
ATOM     33  H   UNL     1       8.055  15.783  16.570  0.00  0.00    +0.000 HD
ENDBRANCH  30  32
ENDBRANCH   6  30
TORSDOF 6
ENDMDL
