MODEL 1
REMARK VINA RESULT:      -7.6      0.000      0.000
REMARK  Name = 
REMARK  9 active torsions:
REMARK  status: ('A' for Active; 'I' for Inactive)
REMARK    1  A    between atoms: N_1  and  C_2
REMARK    2  A    between atoms: C_6  and  C_7
REMARK    3  A    between atoms: C_7  and  CA_8
REMARK    4  A    between atoms: CA_8  and  N_9
REMARK    5  A    between atoms: CA_8  and  C_10
REMARK    6  A    between atoms: C_10  and  OXT_12
REMARK    7  A    between atoms: C_14  and  C_15
REMARK    8  A    between atoms: C_19  and  C_20
REMARK    9  A    between atoms: C_20  and  O_22
REMARK                            x       y       z     vdW  Elec       q    Type
REMARK                         _______ _______ _______ _____ _____    ______ ____
ROOT
ATOM      1  C   UNL     1       2.497   4.690  17.903  0.00  0.00    +0.000 A 
ATOM      2  C   UNL     1       3.301   3.538  17.727  0.00  0.00    +0.000 A 
ATOM      3 CL   UNL     1       2.570   1.988  17.459  0.00  0.00    +0.000 Cl
ATOM      4  C   UNL     1       4.696   3.602  17.740  0.00  0.00    +0.000 A 
ATOM      5  C   UNL     1       5.338   4.818  17.961  0.00  0.00    +0.000 A 
ATOM      6  C   UNL     1       4.548   5.963  18.159  0.00  0.00    +0.000 A 
ATOM      7  C   UNL     1       3.130   5.931  18.189  0.00  0.00    +0.000 A 
ENDROOT
BRANCH   7   8
ATOM      8  C   UNL     1       2.401   7.178  18.580  0.00  0.00    +0.000 A 
ATOM      9  C   UNL     1       2.105   8.188  17.643  0.00  0.00    +0.000 A 
ATOM     10  C   UNL     1       1.490   9.385  18.021  0.00  0.00    +0.000 A 
ATOM     11  C   UNL     1       1.114   9.587  19.345  0.00  0.00    +0.000 A 
ATOM     12  C   UNL     1       1.380   8.604  20.303  0.00  0.00    +0.000 A 
ATOM     13  C   UNL     1       2.035   7.426  19.917  0.00  0.00    +0.000 A 
BRANCH  12  14
ATOM     14  C   UNL     1       0.892   8.826  21.686  0.00  0.00    +0.000 C 
ATOM     15  O   UNL     1      -0.285   8.684  21.990  0.00  0.00    +0.000 OA
BRANCH  14  16
ATOM     16  O   UNL     1       1.827   9.204  22.581  0.00  0.00    +0.000 OA
ATOM     17  H   UNL     1       2.042   8.557  23.277  0.00  0.00    +0.000 HD
ENDBRANCH  14  16
ENDBRANCH  12  14
ENDBRANCH   7   8
BRANCH   1  18
ATOM     18  N   UNL     1       1.088   4.534  17.978  0.00  0.00    +0.000 N 
ATOM     19  H   UNL     1       0.591   5.375  17.681  0.00  0.00    +0.000 HD
ATOM     20  H   UNL     1       0.771   4.217  18.892  0.00  0.00    +0.000 HD
ENDBRANCH   1  18
BRANCH   5  21
ATOM     21  C   UNL     1       6.850   4.899  17.997  0.00  0.00    +0.000 C 
BRANCH  21  22
ATOM     22  CA  UNL     1       7.403   5.974  18.954  0.00  0.00    +0.000 C 
BRANCH  22  23
ATOM     23  N   UNL     1       8.481   5.470  19.861  0.00  0.00    +0.000 NA
ATOM     24  H1  UNL     1       9.015   6.276  20.205  0.00  0.00    +0.000 HD
ATOM     25  H2  UNL     1       9.157   4.960  19.282  0.00  0.00    +0.000 HD
ENDBRANCH  22  23
BRANCH  22  26
ATOM     26  C   UNL     1       7.968   7.161  18.158  0.00  0.00    +0.000 C 
ATOM     27  O   UNL     1       8.550   8.122  18.632  0.00  0.00    +0.000 OA
BRANCH  26  28
ATOM     28  OXT UNL     1       7.767   6.992  16.822  0.00  0.00    +0.000 OA
ATOM     29  HXT UNL     1       7.075   7.651  16.560  0.00  0.00    +0.000 HD
ENDBRANCH  26  28
ENDBRANCH  22  26
ENDBRANCH  21  22
ENDBRANCH   5  21
TORSDOF 9
ENDMDL
MODEL 2
REMARK VINA RESULT:      -7.5      1.800      2.066
REMARK  Name = 
REMARK  9 active torsions:
REMARK  status: ('A' for Active; 'I' for Inactive)
REMARK    1  A    between atoms: N_1  and  C_2
REMARK    2  A    between atoms: C_6  and  C_7
REMARK    3  A    between atoms: C_7  and  CA_8
REMARK    4  A    between atoms: CA_8  and  N_9
REMARK    5  A    between atoms: CA_8  and  C_10
REMARK    6  A    between atoms: C_10  and  OXT_12
REMARK    7  A    between atoms: C_14  and  C_15
REMARK    8  A    between atoms: C_19  and  C_20
REMARK    9  A    between atoms: C_20  and  O_22
REMARK                            x       y       z     vdW  Elec       q    Type
REMARK                         _______ _______ _______ _____ _____    ______ ____
ROOT
ATOM      1  C   UNL     1       2.911   5.197  19.752  0.00  0.00    +0.000 A 
ATOM      2  C   UNL     1       3.812   4.178  19.361  0.00  0.00    +0.000 A 
ATOM      3 CL   UNL     1       3.987   2.744  20.320  0.00  0.00    +0.000 Cl
ATOM      4  C   UNL     1       4.572   4.273  18.193  0.00  0.00    +0.000 A 
ATOM      5  C   UNL     1       4.480   5.406  17.389  0.00  0.00    +0.000 A 
ATOM      6  C   UNL     1       3.605   6.433  17.781  0.00  0.00    +0.000 A 
ATOM      7  C   UNL     1       2.845   6.389  18.978  0.00  0.00    +0.000 A 
ENDROOT
BRANCH   7   8
ATOM      8  C   UNL     1       2.082   7.611  19.379  0.00  0.00    +0.000 A 
ATOM      9  C   UNL     1       1.839   8.664  18.474  0.00  0.00    +0.000 A 
ATOM     10  C   UNL     1       1.191   9.838  18.868  0.00  0.00    +0.000 A 
ATOM     11  C   UNL     1       0.728   9.974  20.173  0.00  0.00    +0.000 A 
ATOM     12  C   UNL     1       0.939   8.948  21.098  0.00  0.00    +0.000 A 
ATOM     13  C   UNL     1       1.628   7.793  20.700  0.00  0.00    +0.000 A 
BRANCH  12  14
ATOM     14  C   UNL     1       0.360   9.100  22.455  0.00  0.00    +0.000 C 
ATOM     15  O   UNL     1       0.939   9.710  23.345  0.00  0.00    +0.000 OA
BRANCH  14  16
ATOM     16  O   UNL     1      -0.839   8.512  22.647  0.00  0.00    +0.000 OA
ATOM     17  H   UNL     1      -1.403   8.904  23.338  0.00  0.00    +0.000 HD
ENDBRANCH  14  16
ENDBRANCH  12  14
ENDBRANCH   7   8
BRANCH   1  18
ATOM     18  N   UNL     1       2.247   5.079  21.001  0.00  0.00    +0.000 N 
ATOM     19  H   UNL     1       1.277   4.780  20.895  0.00  0.00    +0.000 HD
ATOM     20  H   UNL     1       2.318   5.920  21.570  0.00  0.00    +0.000 HD
ENDBRANCH   1  18
BRANCH   5  21
ATOM     21  C   UNL     1       5.313   5.531  16.130  0.00  0.00    +0.000 C 
BRANCH  21  22
ATOM     22  CA  UNL     1       6.833   5.420  16.363  0.00  0.00    +0.000 C 
BRANCH  22  23
ATOM     23  N   UNL     1       7.635   5.436  15.100  0.00  0.00    +0.000 NA
ATOM     24  H1  UNL     1       7.913   6.404  14.908  0.00  0.00    +0.000 HD
ATOM     25  H2  UNL     1       6.998   5.209  14.328  0.00  0.00    +0.000 HD
ENDBRANCH  22  23
BRANCH  22  26
ATOM     26  C   UNL     1       7.324   6.572  17.252  0.00  0.00    +0.000 C 
ATOM     27  O   UNL     1       7.268   7.758  16.975  0.00  0.00    +0.000 OA
BRANCH  26  28
ATOM     28  OXT UNL     1       7.814   6.103  18.434  0.00  0.00    +0.000 OA
ATOM     29  HXT UNL     1       7.991   5.137  18.296  0.00  0.00    +0.000 HD
ENDBRANCH  26  28
ENDBRANCH  22  26
ENDBRANCH  21  22
ENDBRANCH   5  21
TORSDOF 9
ENDMDL
MODEL 3
REMARK VINA RESULT:      -7.4      1.433      1.527
REMARK  Name = 
REMARK  9 active torsions:
REMARK  status: ('A' for Active; 'I' for Inactive)
REMARK    1  A    between atoms: N_1  and  C_2
REMARK    2  A    between atoms: C_6  and  C_7
REMARK    3  A    between atoms: C_7  and  CA_8
REMARK    4  A    between atoms: CA_8  and  N_9
REMARK    5  A    between atoms: CA_8  and  C_10
REMARK    6  A    between atoms: C_10  and  OXT_12
REMARK    7  A    between atoms: C_14  and  C_15
REMARK    8  A    between atoms: C_19  and  C_20
REMARK    9  A    between atoms: C_20  and  O_22
REMARK                            x       y       z     vdW  Elec       q    Type
REMARK                         _______ _______ _______ _____ _____    ______ ____
ROOT
ATOM      1  C   UNL     1       2.562   4.811  18.537  0.00  0.00    +0.000 A 
ATOM      2  C   UNL     1       3.407   3.740  18.161  0.00  0.00    +0.000 A 
ATOM      3 CL   UNL     1       3.062   2.123  18.683  0.00  0.00    +0.000 Cl
ATOM      4  C   UNL     1       4.527   3.933  17.350  0.00  0.00    +0.000 A 
ATOM      5  C   UNL     1       4.859   5.212  16.909  0.00  0.00    +0.000 A 
ATOM      6  C   UNL     1       4.039   6.284  17.295  0.00  0.00    +0.000 A 
ATOM      7  C   UNL     1       2.915   6.134  18.148  0.00  0.00    +0.000 A 
ENDROOT
BRANCH   7   8
ATOM      8  C   UNL     1       2.220   7.367  18.631  0.00  0.00    +0.000 A 
ATOM      9  C   UNL     1       1.846   8.400  17.750  0.00  0.00    +0.000 A 
ATOM     10  C   UNL     1       1.263   9.585  18.209  0.00  0.00    +0.000 A 
ATOM     11  C   UNL     1       1.000   9.751  19.566  0.00  0.00    +0.000 A 
ATOM     12  C   UNL     1       1.346   8.745  20.471  0.00  0.00    +0.000 A 
ATOM     13  C   UNL     1       1.968   7.579  20.001  0.00  0.00    +0.000 A 
BRANCH  12  14
ATOM     14  C   UNL     1       0.976   8.928  21.896  0.00  0.00    +0.000 C 
ATOM     15  O   UNL     1      -0.182   8.843  22.283  0.00  0.00    +0.000 OA
BRANCH  14  16
ATOM     16  O   UNL     1       1.997   9.208  22.733  0.00  0.00    +0.000 OA
ATOM     17  H   UNL     1       2.296   8.476  23.302  0.00  0.00    +0.000 HD
ENDBRANCH  14  16
ENDBRANCH  12  14
ENDBRANCH   7   8
BRANCH   1  18
ATOM     18  N   UNL     1       1.500   4.558  19.446  0.00  0.00    +0.000 N 
ATOM     19  H   UNL     1       1.380   5.315  20.119  0.00  0.00    +0.000 HD
ATOM     20  H   UNL     1       1.581   3.656  19.910  0.00  0.00    +0.000 HD
ENDBRANCH   1  18
BRANCH   5  21
ATOM     21  C   UNL     1       6.081   5.438  16.044  0.00  0.00    +0.000 C 
BRANCH  21  22
ATOM     22  CA  UNL     1       7.299   6.000  16.804  0.00  0.00    +0.000 C 
BRANCH  22  23
ATOM     23  N   UNL     1       7.118   7.413  17.263  0.00  0.00    +0.000 NA
ATOM     24  H1  UNL     1       6.123   7.650  17.192  0.00  0.00    +0.000 HD
ATOM     25  H2  UNL     1       7.563   8.022  16.568  0.00  0.00    +0.000 HD
ENDBRANCH  22  23
BRANCH  22  26
ATOM     26  C   UNL     1       7.606   5.136  18.037  0.00  0.00    +0.000 C 
ATOM     27  O   UNL     1       7.294   5.400  19.186  0.00  0.00    +0.000 OA
BRANCH  26  28
ATOM     28  OXT UNL     1       8.258   3.994  17.682  0.00  0.00    +0.000 OA
ATOM     29  HXT UNL     1       9.225   4.183  17.788  0.00  0.00    +0.000 HD
ENDBRANCH  26  28
ENDBRANCH  22  26
ENDBRANCH  21  22
ENDBRANCH   5  21
TORSDOF 9
ENDMDL
MODEL 4
REMARK VINA RESULT:      -7.4      1.275      1.613
REMARK  Name = 
REMARK  9 active torsions:
REMARK  status: ('A' for Active; 'I' for Inactive)
REMARK    1  A    between atoms: N_1  and  C_2
REMARK    2  A    between atoms: C_6  and  C_7
REMARK    3  A    between atoms: C_7  and  CA_8
REMARK    4  A    between atoms: CA_8  and  N_9
REMARK    5  A    between atoms: CA_8  and  C_10
REMARK    6  A    between atoms: C_10  and  OXT_12
REMARK    7  A    between atoms: C_14  and  C_15
REMARK    8  A    between atoms: C_19  and  C_20
REMARK    9  A    between atoms: C_20  and  O_22
REMARK                            x       y       z     vdW  Elec       q    Type
REMARK                         _______ _______ _______ _____ _____    ______ ____
ROOT
ATOM      1  C   UNL     1       2.137   4.805  19.554  0.00  0.00    +0.000 A 
ATOM      2  C   UNL     1       2.921   3.655  19.294  0.00  0.00    +0.000 A 
ATOM      3 CL   UNL     1       2.441   2.107  19.910  0.00  0.00    +0.000 Cl
ATOM      4  C   UNL     1       4.086   3.714  18.526  0.00  0.00    +0.000 A 
ATOM      5  C   UNL     1       4.524   4.932  18.014  0.00  0.00    +0.000 A 
ATOM      6  C   UNL     1       3.765   6.082  18.285  0.00  0.00    +0.000 A 
ATOM      7  C   UNL     1       2.598   6.069  19.091  0.00  0.00    +0.000 A 
ENDROOT
BRANCH   7   8
ATOM      8  C   UNL     1       1.970   7.378  19.453  0.00  0.00    +0.000 A 
ATOM      9  C   UNL     1       1.803   8.407  18.506  0.00  0.00    +0.000 A 
ATOM     10  C   UNL     1       1.285   9.656  18.859  0.00  0.00    +0.000 A 
ATOM     11  C   UNL     1       0.878   9.896  20.169  0.00  0.00    +0.000 A 
ATOM     12  C   UNL     1       1.017   8.897  21.136  0.00  0.00    +0.000 A 
ATOM     13  C   UNL     1       1.577   7.663  20.775  0.00  0.00    +0.000 A 
BRANCH  12  14
ATOM     14  C   UNL     1       0.499   9.167  22.499  0.00  0.00    +0.000 C 
ATOM     15  O   UNL     1       1.191   9.676  23.370  0.00  0.00    +0.000 OA
BRANCH  14  16
ATOM     16  O   UNL     1      -0.782   8.802  22.718  0.00  0.00    +0.000 OA
ATOM     17  H   UNL     1      -0.990   8.486  23.616  0.00  0.00    +0.000 HD
ENDBRANCH  14  16
ENDBRANCH  12  14
ENDBRANCH   7   8
BRANCH   1  18
ATOM     18  N   UNL     1       1.021   4.689  20.425  0.00  0.00    +0.000 N 
ATOM     19  H   UNL     1       1.091   5.318  21.226  0.00  0.00    +0.000 HD
ATOM     20  H   UNL     1       0.844   3.731  20.718  0.00  0.00    +0.000 HD
ENDBRANCH   1  18
BRANCH   5  21
ATOM     21  C   UNL     1       5.796   5.014  17.196  0.00  0.00    +0.000 C 
BRANCH  21  22
ATOM     22  CA  UNL     1       7.083   5.135  18.036  0.00  0.00    +0.000 C 
BRANCH  22  23
ATOM     23  N   UNL     1       8.148   4.161  17.644  0.00  0.00    +0.000 NA
ATOM     24  H1  UNL     1       8.840   4.118  18.400  0.00  0.00    +0.000 HD
ATOM     25  H2  UNL     1       8.669   4.572  16.862  0.00  0.00    +0.000 HD
ENDBRANCH  22  23
BRANCH  22  26
ATOM     26  C   UNL     1       7.668   6.550  17.920  0.00  0.00    +0.000 C 
ATOM     27  O   UNL     1       7.526   7.303  16.971  0.00  0.00    +0.000 OA
BRANCH  26  28
ATOM     28  OXT UNL     1       8.356   6.888  19.046  0.00  0.00    +0.000 OA
ATOM     29  HXT UNL     1       8.515   7.864  18.992  0.00  0.00    +0.000 HD
ENDBRANCH  26  28
ENDBRANCH  22  26
ENDBRANCH  21  22
ENDBRANCH   5  21
TORSDOF 9
ENDMDL
MODEL 5
REMARK VINA RESULT:      -7.4      2.049      2.461
REMARK  Name = 
REMARK  9 active torsions:
REMARK  status: ('A' for Active; 'I' for Inactive)
REMARK    1  A    between atoms: N_1  and  C_2
REMARK    2  A    between atoms: C_6  and  C_7
REMARK    3  A    between atoms: C_7  and  CA_8
REMARK    4  A    between atoms: CA_8  and  N_9
REMARK    5  A    between atoms: CA_8  and  C_10
REMARK    6  A    between atoms: C_10  and  OXT_12
REMARK    7  A    between atoms: C_14  and  C_15
REMARK    8  A    between atoms: C_19  and  C_20
REMARK    9  A    between atoms: C_20  and  O_22
REMARK                            x       y       z     vdW  Elec       q    Type
REMARK                         _______ _______ _______ _____ _____    ______ ____
ROOT
ATOM      1  C   UNL     1       2.629   4.503  18.319  0.00  0.00    +0.000 A 
ATOM      2  C   UNL     1       3.431   3.512  17.704  0.00  0.00    +0.000 A 
ATOM      3 CL   UNL     1       3.033   1.833  17.867  0.00  0.00    +0.000 Cl
ATOM      4  C   UNL     1       4.549   3.841  16.934  0.00  0.00    +0.000 A 
ATOM      5  C   UNL     1       4.922   5.173  16.777  0.00  0.00    +0.000 A 
ATOM      6  C   UNL     1       4.145   6.162  17.402  0.00  0.00    +0.000 A 
ATOM      7  C   UNL     1       3.025   5.866  18.221  0.00  0.00    +0.000 A 
ENDROOT
BRANCH   7   8
ATOM      8  C   UNL     1       2.380   6.987  18.973  0.00  0.00    +0.000 A 
ATOM      9  C   UNL     1       1.973   6.842  20.314  0.00  0.00    +0.000 A 
ATOM     10  C   UNL     1       1.303   7.863  20.995  0.00  0.00    +0.000 A 
ATOM     11  C   UNL     1       1.059   9.078  20.361  0.00  0.00    +0.000 A 
ATOM     12  C   UNL     1       1.456   9.265  19.034  0.00  0.00    +0.000 A 
ATOM     13  C   UNL     1       2.091   8.217  18.351  0.00  0.00    +0.000 A 
BRANCH  12  14
ATOM     14  C   UNL     1       1.248  10.600  18.424  0.00  0.00    +0.000 C 
ATOM     15  O   UNL     1       0.329  11.334  18.762  0.00  0.00    +0.000 OA
BRANCH  14  16
ATOM     16  O   UNL     1       2.130  10.946  17.463  0.00  0.00    +0.000 OA
ATOM     17  H   UNL     1       1.770  11.453  16.713  0.00  0.00    +0.000 HD
ENDBRANCH  14  16
ENDBRANCH  12  14
ENDBRANCH   7   8
BRANCH   1  18
ATOM     18  N   UNL     1       1.567   4.093  19.169  0.00  0.00    +0.000 N 
ATOM     19  H   UNL     1       1.482   4.688  19.993  0.00  0.00    +0.000 HD
ATOM     20  H   UNL     1       1.620   3.108  19.423  0.00  0.00    +0.000 HD
ENDBRANCH   1  18
BRANCH   5  21
ATOM     21  C   UNL     1       6.143   5.543  15.961  0.00  0.00    +0.000 C 
BRANCH  21  22
ATOM     22  CA  UNL     1       7.333   6.052  16.798  0.00  0.00    +0.000 C 
BRANCH  22  23
ATOM     23  N   UNL     1       7.158   7.451  17.299  0.00  0.00    +0.000 NA
ATOM     24  H1  UNL     1       8.070   7.798  17.614  0.00  0.00    +0.000 HD
ATOM     25  H2  UNL     1       6.606   7.403  18.162  0.00  0.00    +0.000 HD
ENDBRANCH  22  23
BRANCH  22  26
ATOM     26  C   UNL     1       7.564   5.140  18.012  0.00  0.00    +0.000 C 
ATOM     27  O   UNL     1       7.197   5.366  19.152  0.00  0.00    +0.000 OA
BRANCH  26  28
ATOM     28  OXT UNL     1       8.216   4.000  17.649  0.00  0.00    +0.000 OA
ATOM     29  HXT UNL     1       7.637   3.550  16.983  0.00  0.00    +0.000 HD
ENDBRANCH  26  28
ENDBRANCH  22  26
ENDBRANCH  21  22
ENDBRANCH   5  21
TORSDOF 9
ENDMDL
MODEL 6
REMARK VINA RESULT:      -7.4      4.627      8.019
REMARK  Name = 
REMARK  9 active torsions:
REMARK  status: ('A' for Active; 'I' for Inactive)
REMARK    1  A    between atoms: N_1  and  C_2
REMARK    2  A    between atoms: C_6  and  C_7
REMARK    3  A    between atoms: C_7  and  CA_8
REMARK    4  A    between atoms: CA_8  and  N_9
REMARK    5  A    between atoms: CA_8  and  C_10
REMARK    6  A    between atoms: C_10  and  OXT_12
REMARK    7  A    between atoms: C_14  and  C_15
REMARK    8  A    between atoms: C_19  and  C_20
REMARK    9  A    between atoms: C_20  and  O_22
REMARK                            x       y       z     vdW  Elec       q    Type
REMARK                         _______ _______ _______ _____ _____    ______ ____
ROOT
ATOM      1  C   UNL     1       6.539   5.134  17.181  0.00  0.00    +0.000 A 
ATOM      2  C   UNL     1       5.990   5.177  18.485  0.00  0.00    +0.000 A 
ATOM      3 CL   UNL     1       7.007   5.472  19.858  0.00  0.00    +0.000 Cl
ATOM      4  C   UNL     1       4.623   5.006  18.717  0.00  0.00    +0.000 A 
ATOM      5  C   UNL     1       3.761   4.756  17.653  0.00  0.00    +0.000 A 
ATOM      6  C   UNL     1       4.300   4.689  16.358  0.00  0.00    +0.000 A 
ATOM      7  C   UNL     1       5.686   4.820  16.087  0.00  0.00    +0.000 A 
ENDROOT
BRANCH   7   8
ATOM      8  C   UNL     1       6.164   4.560  14.694  0.00  0.00    +0.000 A 
ATOM      9  C   UNL     1       7.305   5.200  14.170  0.00  0.00    +0.000 A 
ATOM     10  C   UNL     1       7.710   5.014  12.845  0.00  0.00    +0.000 A 
ATOM     11  C   UNL     1       7.006   4.145  12.017  0.00  0.00    +0.000 A 
ATOM     12  C   UNL     1       5.875   3.483  12.502  0.00  0.00    +0.000 A 
ATOM     13  C   UNL     1       5.456   3.711  13.821  0.00  0.00    +0.000 A 
BRANCH  12  14
ATOM     14  C   UNL     1       5.201   2.506  11.612  0.00  0.00    +0.000 C 
ATOM     15  O   UNL     1       4.133   2.751  11.068  0.00  0.00    +0.000 OA
BRANCH  14  16
ATOM     16  O   UNL     1       5.837   1.326  11.453  0.00  0.00    +0.000 OA
ATOM     17  H   UNL     1       5.798   0.935  10.562  0.00  0.00    +0.000 HD
ENDBRANCH  14  16
ENDBRANCH  12  14
ENDBRANCH   7   8
BRANCH   1  18
ATOM     18  N   UNL     1       7.949   5.215  17.030  0.00  0.00    +0.000 N 
ATOM     19  H   UNL     1       8.339   6.035  17.495  0.00  0.00    +0.000 HD
ATOM     20  H   UNL     1       8.248   5.159  16.059  0.00  0.00    +0.000 HD
ENDBRANCH   1  18
BRANCH   5  21
ATOM     21  C   UNL     1       2.279   4.549  17.892  0.00  0.00    +0.000 C 
BRANCH  21  22
ATOM     22  CA  UNL     1       1.952   3.656  19.105  0.00  0.00    +0.000 C 
BRANCH  22  23
ATOM     23  N   UNL     1       0.969   4.269  20.052  0.00  0.00    +0.000 NA
ATOM     24  H1  UNL     1       0.422   3.515  20.482  0.00  0.00    +0.000 HD
ATOM     25  H2  UNL     1       0.278   4.780  19.492  0.00  0.00    +0.000 HD
ENDBRANCH  22  23
BRANCH  22  26
ATOM     26  C   UNL     1       1.384   2.306  18.640  0.00  0.00    +0.000 C 
ATOM     27  O   UNL     1       0.204   2.048  18.481  0.00  0.00    +0.000 OA
BRANCH  26  28
ATOM     28  OXT UNL     1       2.385   1.417  18.388  0.00  0.00    +0.000 OA
ATOM     29  HXT UNL     1       1.994   0.516  18.515  0.00  0.00    +0.000 HD
ENDBRANCH  26  28
ENDBRANCH  22  26
ENDBRANCH  21  22
ENDBRANCH   5  21
TORSDOF 9
ENDMDL
MODEL 7
REMARK VINA RESULT:      -7.4      2.954      3.808
REMARK  Name = 
REMARK  9 active torsions:
REMARK  status: ('A' for Active; 'I' for Inactive)
REMARK    1  A    between atoms: N_1  and  C_2
REMARK    2  A    between atoms: C_6  and  C_7
REMARK    3  A    between atoms: C_7  and  CA_8
REMARK    4  A    between atoms: CA_8  and  N_9
REMARK    5  A    between atoms: CA_8  and  C_10
REMARK    6  A    between atoms: C_10  and  OXT_12
REMARK    7  A    between atoms: C_14  and  C_15
REMARK    8  A    between atoms: C_19  and  C_20
REMARK    9  A    between atoms: C_20  and  O_22
REMARK                            x       y       z     vdW  Elec       q    Type
REMARK                         _______ _______ _______ _____ _____    ______ ____
ROOT
ATOM      1  C   UNL     1       4.288   6.360  17.326  0.00  0.00    +0.000 A 
ATOM      2  C   UNL     1       4.805   5.177  16.747  0.00  0.00    +0.000 A 
ATOM      3 CL   UNL     1       6.259   5.222  15.803  0.00  0.00    +0.000 Cl
ATOM      4  C   UNL     1       4.187   3.937  16.926  0.00  0.00    +0.000 A 
ATOM      5  C   UNL     1       3.011   3.842  17.666  0.00  0.00    +0.000 A 
ATOM      6  C   UNL     1       2.479   5.015  18.225  0.00  0.00    +0.000 A 
ATOM      7  C   UNL     1       3.056   6.297  18.035  0.00  0.00    +0.000 A 
ENDROOT
BRANCH   7   8
ATOM      8  C   UNL     1       2.308   7.493  18.532  0.00  0.00    +0.000 A 
ATOM      9  C   UNL     1       1.927   8.540  17.670  0.00  0.00    +0.000 A 
ATOM     10  C   UNL     1       1.294   9.692  18.145  0.00  0.00    +0.000 A 
ATOM     11  C   UNL     1       0.985   9.809  19.498  0.00  0.00    +0.000 A 
ATOM     12  C   UNL     1       1.337   8.787  20.384  0.00  0.00    +0.000 A 
ATOM     13  C   UNL     1       2.008   7.656  19.899  0.00  0.00    +0.000 A 
BRANCH  12  14
ATOM     14  C   UNL     1       0.918   8.916  21.801  0.00  0.00    +0.000 C 
ATOM     15  O   UNL     1      -0.249   8.794  22.148  0.00  0.00    +0.000 OA
BRANCH  14  16
ATOM     16  O   UNL     1       1.906   9.190  22.678  0.00  0.00    +0.000 OA
ATOM     17  H   UNL     1       1.655   9.194  23.619  0.00  0.00    +0.000 HD
ENDBRANCH  14  16
ENDBRANCH  12  14
ENDBRANCH   7   8
BRANCH   1  18
ATOM     18  N   UNL     1       4.911   7.599  17.020  0.00  0.00    +0.000 N 
ATOM     19  H   UNL     1       4.462   8.384  17.493  0.00  0.00    +0.000 HD
ATOM     20  H   UNL     1       4.995   7.765  16.019  0.00  0.00    +0.000 HD
ENDBRANCH   1  18
BRANCH   5  21
ATOM     21  C   UNL     1       2.320   2.507  17.851  0.00  0.00    +0.000 C 
BRANCH  21  22
ATOM     22  CA  UNL     1       3.048   1.547  18.813  0.00  0.00    +0.000 C 
BRANCH  22  23
ATOM     23  N   UNL     1       4.139   0.758  18.160  0.00  0.00    +0.000 NA
ATOM     24  H1  UNL     1       3.912  -0.239  18.246  0.00  0.00    +0.000 HD
ATOM     25  H2  UNL     1       4.983   0.864  18.734  0.00  0.00    +0.000 HD
ENDBRANCH  22  23
BRANCH  22  26
ATOM     26  C   UNL     1       3.663   2.326  19.986  0.00  0.00    +0.000 C 
ATOM     27  O   UNL     1       3.041   2.868  20.884  0.00  0.00    +0.000 OA
BRANCH  26  28
ATOM     28  OXT UNL     1       5.024   2.311  19.921  0.00  0.00    +0.000 OA
ATOM     29  HXT UNL     1       5.309   1.436  20.289  0.00  0.00    +0.000 HD
ENDBRANCH  26  28
ENDBRANCH  22  26
ENDBRANCH  21  22
ENDBRANCH   5  21
TORSDOF 9
ENDMDL
MODEL 8
REMARK VINA RESULT:      -7.3      1.996      2.303
REMARK  Name = 
REMARK  9 active torsions:
REMARK  status: ('A' for Active; 'I' for Inactive)
REMARK    1  A    between atoms: N_1  and  C_2
REMARK    2  A    between atoms: C_6  and  C_7
REMARK    3  A    between atoms: C_7  and  CA_8
REMARK    4  A    between atoms: CA_8  and  N_9
REMARK    5  A    between atoms: CA_8  and  C_10
REMARK    6  A    between atoms: C_10  and  OXT_12
REMARK    7  A    between atoms: C_14  and  C_15
REMARK    8  A    between atoms: C_19  and  C_20
REMARK    9  A    between atoms: C_20  and  O_22
REMARK                            x       y       z     vdW  Elec       q    Type
REMARK                         _______ _______ _______ _____ _____    ______ ____
ROOT
ATOM      1  C   UNL     1       2.612   4.887  19.742  0.00  0.00    +0.000 A 
ATOM      2  C   UNL     1       3.483   3.774  19.819  0.00  0.00    +0.000 A 
ATOM      3 CL   UNL     1       3.021   2.356  20.704  0.00  0.00    +0.000 Cl
ATOM      4  C   UNL     1       4.725   3.762  19.180  0.00  0.00    +0.000 A 
ATOM      5  C   UNL     1       5.152   4.877  18.464  0.00  0.00    +0.000 A 
ATOM      6  C   UNL     1       4.304   5.995  18.400  0.00  0.00    +0.000 A 
ATOM      7  C   UNL     1       3.054   6.059  19.067  0.00  0.00    +0.000 A 
ENDROOT
BRANCH   7   8
ATOM      8  C   UNL     1       2.317   7.361  19.071  0.00  0.00    +0.000 A 
ATOM      9  C   UNL     1       2.184   8.141  17.905  0.00  0.00    +0.000 A 
ATOM     10  C   UNL     1       1.561   9.392  17.924  0.00  0.00    +0.000 A 
ATOM     11  C   UNL     1       1.013   9.879  19.107  0.00  0.00    +0.000 A 
ATOM     12  C   UNL     1       1.114   9.130  20.282  0.00  0.00    +0.000 A 
ATOM     13  C   UNL     1       1.778   7.896  20.257  0.00  0.00    +0.000 A 
BRANCH  12  14
ATOM     14  C   UNL     1       0.447   9.649  21.501  0.00  0.00    +0.000 C 
ATOM     15  O   UNL     1       0.739  10.732  21.992  0.00  0.00    +0.000 OA
BRANCH  14  16
ATOM     16  O   UNL     1      -0.493   8.844  22.040  0.00  0.00    +0.000 OA
ATOM     17  H   UNL     1      -1.393   9.212  22.093  0.00  0.00    +0.000 HD
ENDBRANCH  14  16
ENDBRANCH  12  14
ENDBRANCH   7   8
BRANCH   1  18
ATOM     18  N   UNL     1       1.411   4.869  20.500  0.00  0.00    +0.000 N 
ATOM     19  H   UNL     1       1.121   5.804  20.785  0.00  0.00    +0.000 HD
ATOM     20  H   UNL     1       1.451   4.232  21.293  0.00  0.00    +0.000 HD
ENDBRANCH   1  18
BRANCH   5  21
ATOM     21  C   UNL     1       6.504   4.886  17.781  0.00  0.00    +0.000 C 
BRANCH  21  22
ATOM     22  CA  UNL     1       6.558   5.734  16.494  0.00  0.00    +0.000 C 
BRANCH  22  23
ATOM     23  N   UNL     1       7.576   6.829  16.541  0.00  0.00    +0.000 NA
ATOM     24  H1  UNL     1       7.298   7.557  15.873  0.00  0.00    +0.000 HD
ATOM     25  H2  UNL     1       8.447   6.458  16.146  0.00  0.00    +0.000 HD
ENDBRANCH  22  23
BRANCH  22  26
ATOM     26  C   UNL     1       6.871   4.847  15.280  0.00  0.00    +0.000 C 
ATOM     27  O   UNL     1       6.368   3.762  15.042  0.00  0.00    +0.000 OA
BRANCH  26  28
ATOM     28  OXT UNL     1       7.779   5.447  14.459  0.00  0.00    +0.000 OA
ATOM     29  HXT UNL     1       7.287   5.690  13.634  0.00  0.00    +0.000 HD
ENDBRANCH  26  28
ENDBRANCH  22  26
ENDBRANCH  21  22
ENDBRANCH   5  21
TORSDOF 9
ENDMDL
MODEL 9
REMARK VINA RESULT:      -7.3      2.220      2.493
REMARK  Name = 
REMARK  9 active torsions:
REMARK  status: ('A' for Active; 'I' for Inactive)
REMARK    1  A    between atoms: N_1  and  C_2
REMARK    2  A    between atoms: C_6  and  C_7
REMARK    3  A    between atoms: C_7  and  CA_8
REMARK    4  A    between atoms: CA_8  and  N_9
REMARK    5  A    between atoms: CA_8  and  C_10
REMARK    6  A    between atoms: C_10  and  OXT_12
REMARK    7  A    between atoms: C_14  and  C_15
REMARK    8  A    between atoms: C_19  and  C_20
REMARK    9  A    between atoms: C_20  and  O_22
REMARK                            x       y       z     vdW  Elec       q    Type
REMARK                         _______ _______ _______ _____ _____    ______ ____
ROOT
ATOM      1  C   UNL     1       3.020   4.922  19.692  0.00  0.00    +0.000 A 
ATOM      2  C   UNL     1       3.827   3.833  19.285  0.00  0.00    +0.000 A 
ATOM      3 CL   UNL     1       4.125   2.508  20.363  0.00  0.00    +0.000 Cl
ATOM      4  C   UNL     1       4.392   3.769  18.009  0.00  0.00    +0.000 A 
ATOM      5  C   UNL     1       4.194   4.809  17.105  0.00  0.00    +0.000 A 
ATOM      6  C   UNL     1       3.414   5.905  17.508  0.00  0.00    +0.000 A 
ATOM      7  C   UNL     1       2.854   6.023  18.807  0.00  0.00    +0.000 A 
ENDROOT
BRANCH   7   8
ATOM      8  C   UNL     1       2.189   7.310  19.179  0.00  0.00    +0.000 A 
ATOM      9  C   UNL     1       2.078   8.378  18.266  0.00  0.00    +0.000 A 
ATOM     10  C   UNL     1       1.523   9.608  18.636  0.00  0.00    +0.000 A 
ATOM     11  C   UNL     1       1.023   9.787  19.922  0.00  0.00    +0.000 A 
ATOM     12  C   UNL     1       1.104   8.748  20.853  0.00  0.00    +0.000 A 
ATOM     13  C   UNL     1       1.701   7.535  20.481  0.00  0.00    +0.000 A 
BRANCH  12  14
ATOM     14  C   UNL     1       0.488   8.954  22.186  0.00  0.00    +0.000 C 
ATOM     15  O   UNL     1       1.055   9.575  23.076  0.00  0.00    +0.000 OA
BRANCH  14  16
ATOM     16  O   UNL     1      -0.731   8.402  22.357  0.00  0.00    +0.000 OA
ATOM     17  H   UNL     1      -1.311   8.835  23.009  0.00  0.00    +0.000 HD
ENDBRANCH  14  16
ENDBRANCH  12  14
ENDBRANCH   7   8
BRANCH   1  18
ATOM     18  N   UNL     1       2.562   4.968  21.036  0.00  0.00    +0.000 N 
ATOM     19  H   UNL     1       2.631   5.905  21.434  0.00  0.00    +0.000 HD
ATOM     20  H   UNL     1       3.009   4.275  21.632  0.00  0.00    +0.000 HD
ENDBRANCH   1  18
BRANCH   5  21
ATOM     21  C   UNL     1       4.816   4.763  15.725  0.00  0.00    +0.000 C 
BRANCH  21  22
ATOM     22  CA  UNL     1       6.110   3.927  15.642  0.00  0.00    +0.000 C 
BRANCH  22  23
ATOM     23  N   UNL     1       6.458   3.500  14.251  0.00  0.00    +0.000 NA
ATOM     24  H1  UNL     1       5.670   2.965  13.871  0.00  0.00    +0.000 HD
ATOM     25  H2  UNL     1       7.210   2.805  14.322  0.00  0.00    +0.000 HD
ENDBRANCH  22  23
BRANCH  22  26
ATOM     26  C   UNL     1       7.298   4.721  16.206  0.00  0.00    +0.000 C 
ATOM     27  O   UNL     1       8.034   4.356  17.106  0.00  0.00    +0.000 OA
BRANCH  26  28
ATOM     28  OXT UNL     1       7.457   5.900  15.541  0.00  0.00    +0.000 OA
ATOM     29  HXT UNL     1       6.662   6.450  15.758  0.00  0.00    +0.000 HD
ENDBRANCH  26  28
ENDBRANCH  22  26
ENDBRANCH  21  22
ENDBRANCH   5  21
TORSDOF 9
ENDMDL
