MODEL 1
REMARK VINA RESULT:      -8.1      0.000      0.000
REMARK  Name = 
REMARK  9 active torsions:
REMARK  status: ('A' for Active; 'I' for Inactive)
REMARK    1  A    between atoms: O_1  and  C_2
REMARK    2  A    between atoms: C_6  and  C_7
REMARK    3  A    between atoms: C_7  and  N_8
REMARK    4  A    between atoms: N_11  and  C_12
REMARK    5  A    between atoms: C_12  and  C_13
REMARK    6  A    between atoms: C_13  and  O_14
REMARK    7  A    between atoms: O_14  and  C_15
REMARK    8  A    between atoms: C_15  and  C_16
REMARK    9  A    between atoms: C_15  and  C_22
REMARK                            x       y       z     vdW  Elec       q    Type
REMARK                         _______ _______ _______ _____ _____    ______ ____
ROOT
ATOM      1  C   UNL     1       6.441   5.486  18.623  0.00  0.00    +0.000 C 
ENDROOT
BRANCH   1   5
ATOM      2  N   UNL     1       5.516   4.812  14.920  0.00  0.00    +0.000 NA
ATOM      3  C   UNL     1       4.693   4.377  16.065  0.00  0.00    +0.000 C 
ATOM      4  C   UNL     1       5.466   3.696  17.227  0.00  0.00    +0.000 C 
ATOM      5  N   UNL     1       6.697   4.370  17.697  0.00  0.00    +0.000 NA
ATOM      6  C   UNL     1       7.483   4.844  16.538  0.00  0.00    +0.000 C 
ATOM      7  C   UNL     1       6.658   5.589  15.455  0.00  0.00    +0.000 C 
BRANCH   2   8
ATOM      8  C   UNL     1       6.002   3.708  14.068  0.00  0.00    +0.000 C 
BRANCH   8  13
ATOM      9  C   UNL     1       4.920   2.882  11.930  0.00  0.00    +0.000 C 
ATOM     10  C   UNL     1       5.802   1.694  11.574  0.00  0.00    +0.000 C 
ATOM     11  C   UNL     1       7.077   2.337  11.046  0.00  0.00    +0.000 C 
ATOM     12  C   UNL     1       7.216   3.666  11.793  0.00  0.00    +0.000 C 
ATOM     13  C   UNL     1       5.890   3.912  12.538  0.00  0.00    +0.000 C 
BRANCH   9  14
ATOM     14  O   UNL     1       4.350   3.389  10.727  0.00  0.00    +0.000 OA
ATOM     15  H   UNL     1       3.619   3.980  10.975  0.00  0.00    +0.000 HD
ENDBRANCH   9  14
ENDBRANCH   8  13
ENDBRANCH   2   8
ENDBRANCH   1   5
BRANCH   1  16
ATOM     16  C   UNL     1       5.134   5.378  19.428  0.00  0.00    +0.000 C 
BRANCH  16  17
ATOM     17  O   UNL     1       4.100   6.248  18.955  0.00  0.00    +0.000 OA
BRANCH  17  18
ATOM     18  C   UNL     1       2.912   6.329  19.762  0.00  0.00    +0.000 C 
BRANCH  18  19
ATOM     19  C   UNL     1       2.120   7.597  19.461  0.00  0.00    +0.000 A 
ATOM     20  C   UNL     1       2.142   8.180  18.186  0.00  0.00    +0.000 A 
ATOM     21  C   UNL     1       1.451   9.369  17.939  0.00  0.00    +0.000 A 
ATOM     22  C   UNL     1       0.739   9.992  18.961  0.00  0.00    +0.000 A 
ATOM     23  C   UNL     1       0.707   9.424  20.232  0.00  0.00    +0.000 A 
ATOM     24  C   UNL     1       1.387   8.229  20.480  0.00  0.00    +0.000 A 
ENDBRANCH  18  19
BRANCH  18  25
ATOM     25  C   UNL     1       2.101   5.041  19.613  0.00  0.00    +0.000 A 
ATOM     26  C   UNL     1       1.836   4.481  18.351  0.00  0.00    +0.000 A 
ATOM     27  C   UNL     1       1.143   3.274  18.233  0.00  0.00    +0.000 A 
ATOM     28  C   UNL     1       0.706   2.608  19.374  0.00  0.00    +0.000 A 
ATOM     29  C   UNL     1       0.966   3.143  20.634  0.00  0.00    +0.000 A 
ATOM     30  C   UNL     1       1.662   4.347  20.754  0.00  0.00    +0.000 A 
ENDBRANCH  18  25
ENDBRANCH  17  18
ENDBRANCH  16  17
ENDBRANCH   1  16
TORSDOF 9
ENDMDL
MODEL 2
REMARK VINA RESULT:      -7.9      4.268     10.254
REMARK  Name = 
REMARK  9 active torsions:
REMARK  status: ('A' for Active; 'I' for Inactive)
REMARK    1  A    between atoms: O_1  and  C_2
REMARK    2  A    between atoms: C_6  and  C_7
REMARK    3  A    between atoms: C_7  and  N_8
REMARK    4  A    between atoms: N_11  and  C_12
REMARK    5  A    between atoms: C_12  and  C_13
REMARK    6  A    between atoms: C_13  and  O_14
REMARK    7  A    between atoms: O_14  and  C_15
REMARK    8  A    between atoms: C_15  and  C_16
REMARK    9  A    between atoms: C_15  and  C_22
REMARK                            x       y       z     vdW  Elec       q    Type
REMARK                         _______ _______ _______ _____ _____    ______ ____
ROOT
ATOM      1  C   UNL     1       1.786   8.810  19.493  0.00  0.00    +0.000 C 
ENDROOT
BRANCH   1   5
ATOM      2  N   UNL     1       0.361  11.508  21.883  0.00  0.00    +0.000 NA
ATOM      3  C   UNL     1       0.256  10.057  22.127  0.00  0.00    +0.000 C 
ATOM      4  C   UNL     1      -0.199   9.204  20.911  0.00  0.00    +0.000 C 
ATOM      5  N   UNL     1       0.475   9.468  19.619  0.00  0.00    +0.000 NA
ATOM      6  C   UNL     1       0.618  10.926  19.417  0.00  0.00    +0.000 C 
ATOM      7  C   UNL     1       1.155  11.702  20.649  0.00  0.00    +0.000 C 
BRANCH   2   8
ATOM      8  C   UNL     1      -0.939  12.201  21.771  0.00  0.00    +0.000 C 
BRANCH   8  13
ATOM      9  C   UNL     1      -3.222  12.376  22.856  0.00  0.00    +0.000 C 
ATOM     10  C   UNL     1      -3.630  13.796  22.494  0.00  0.00    +0.000 C 
ATOM     11  C   UNL     1      -2.783  14.662  23.416  0.00  0.00    +0.000 C 
ATOM     12  C   UNL     1      -1.487  13.881  23.649  0.00  0.00    +0.000 C 
ATOM     13  C   UNL     1      -1.702  12.461  23.092  0.00  0.00    +0.000 C 
BRANCH   9  14
ATOM     14  O   UNL     1      -3.889  12.014  24.063  0.00  0.00    +0.000 OA
ATOM     15  H   UNL     1      -3.557  12.597  24.767  0.00  0.00    +0.000 HD
ENDBRANCH   9  14
ENDBRANCH   8  13
ENDBRANCH   2   8
ENDBRANCH   1   5
BRANCH   1  16
ATOM     16  C   UNL     1       2.260   8.573  18.048  0.00  0.00    +0.000 C 
BRANCH  16  17
ATOM     17  O   UNL     1       2.378   7.188  17.706  0.00  0.00    +0.000 OA
BRANCH  17  18
ATOM     18  C   UNL     1       3.118   6.363  18.622  0.00  0.00    +0.000 C 
BRANCH  18  19
ATOM     19  C   UNL     1       2.329   5.118  19.011  0.00  0.00    +0.000 A 
ATOM     20  C   UNL     1       1.925   4.184  18.047  0.00  0.00    +0.000 A 
ATOM     21  C   UNL     1       1.160   3.073  18.411  0.00  0.00    +0.000 A 
ATOM     22  C   UNL     1       0.782   2.887  19.739  0.00  0.00    +0.000 A 
ATOM     23  C   UNL     1       1.177   3.806  20.709  0.00  0.00    +0.000 A 
ATOM     24  C   UNL     1       1.952   4.911  20.349  0.00  0.00    +0.000 A 
ENDBRANCH  18  19
BRANCH  18  25
ATOM     25  C   UNL     1       4.501   6.064  18.043  0.00  0.00    +0.000 A 
ATOM     26  C   UNL     1       5.521   5.498  18.828  0.00  0.00    +0.000 A 
ATOM     27  C   UNL     1       6.760   5.177  18.270  0.00  0.00    +0.000 A 
ATOM     28  C   UNL     1       7.000   5.414  16.920  0.00  0.00    +0.000 A 
ATOM     29  C   UNL     1       5.999   5.967  16.124  0.00  0.00    +0.000 A 
ATOM     30  C   UNL     1       4.758   6.285  16.678  0.00  0.00    +0.000 A 
ENDBRANCH  18  25
ENDBRANCH  17  18
ENDBRANCH  16  17
ENDBRANCH   1  16
TORSDOF 9
ENDMDL
MODEL 3
REMARK VINA RESULT:      -7.8      4.259     10.023
REMARK  Name = 
REMARK  9 active torsions:
REMARK  status: ('A' for Active; 'I' for Inactive)
REMARK    1  A    between atoms: O_1  and  C_2
REMARK    2  A    between atoms: C_6  and  C_7
REMARK    3  A    between atoms: C_7  and  N_8
REMARK    4  A    between atoms: N_11  and  C_12
REMARK    5  A    between atoms: C_12  and  C_13
REMARK    6  A    between atoms: C_13  and  O_14
REMARK    7  A    between atoms: O_14  and  C_15
REMARK    8  A    between atoms: C_15  and  C_16
REMARK    9  A    between atoms: C_15  and  C_22
REMARK                            x       y       z     vdW  Elec       q    Type
REMARK                         _______ _______ _______ _____ _____    ______ ____
ROOT
ATOM      1  C   UNL     1       1.628   9.820  18.534  0.00  0.00    +0.000 C 
ENDROOT
BRANCH   1   5
ATOM      2  N   UNL     1       0.352  11.441  21.816  0.00  0.00    +0.000 NA
ATOM      3  C   UNL     1       0.952  10.094  21.743  0.00  0.00    +0.000 C 
ATOM      4  C   UNL     1       0.426   9.186  20.598  0.00  0.00    +0.000 C 
ATOM      5  N   UNL     1       0.342   9.793  19.249  0.00  0.00    +0.000 NA
ATOM      6  C   UNL     1      -0.213  11.160  19.348  0.00  0.00    +0.000 C 
ATOM      7  C   UNL     1       0.418  12.037  20.462  0.00  0.00    +0.000 C 
BRANCH   2   8
ATOM      8  C   UNL     1      -1.036  11.461  22.318  0.00  0.00    +0.000 C 
BRANCH   8  13
ATOM      9  C   UNL     1      -2.190  13.338  23.570  0.00  0.00    +0.000 C 
ATOM     10  C   UNL     1      -3.558  12.732  23.847  0.00  0.00    +0.000 C 
ATOM     11  C   UNL     1      -4.258  12.787  22.496  0.00  0.00    +0.000 C 
ATOM     12  C   UNL     1      -3.151  12.652  21.447  0.00  0.00    +0.000 C 
ATOM     13  C   UNL     1      -1.805  12.797  22.180  0.00  0.00    +0.000 C 
BRANCH   9  14
ATOM     14  O   UNL     1      -2.331  14.755  23.527  0.00  0.00    +0.000 OA
ATOM     15  H   UNL     1      -1.482  15.126  23.233  0.00  0.00    +0.000 HD
ENDBRANCH   9  14
ENDBRANCH   8  13
ENDBRANCH   2   8
ENDBRANCH   1   5
BRANCH   1  16
ATOM     16  C   UNL     1       2.001   8.512  17.813  0.00  0.00    +0.000 C 
BRANCH  16  17
ATOM     17  O   UNL     1       2.699   7.581  18.646  0.00  0.00    +0.000 OA
BRANCH  17  18
ATOM     18  C   UNL     1       3.101   6.346  18.027  0.00  0.00    +0.000 C 
BRANCH  18  19
ATOM     19  C   UNL     1       4.617   6.178  18.055  0.00  0.00    +0.000 A 
ATOM     20  C   UNL     1       5.239   5.367  19.015  0.00  0.00    +0.000 A 
ATOM     21  C   UNL     1       6.631   5.262  19.059  0.00  0.00    +0.000 A 
ATOM     22  C   UNL     1       7.417   5.970  18.153  0.00  0.00    +0.000 A 
ATOM     23  C   UNL     1       6.813   6.778  17.193  0.00  0.00    +0.000 A 
ATOM     24  C   UNL     1       5.421   6.877  17.139  0.00  0.00    +0.000 A 
ENDBRANCH  18  19
BRANCH  18  25
ATOM     25  C   UNL     1       2.337   5.182  18.660  0.00  0.00    +0.000 A 
ATOM     26  C   UNL     1       1.847   5.252  19.976  0.00  0.00    +0.000 A 
ATOM     27  C   UNL     1       1.101   4.205  20.520  0.00  0.00    +0.000 A 
ATOM     28  C   UNL     1       0.831   3.072  19.758  0.00  0.00    +0.000 A 
ATOM     29  C   UNL     1       1.302   2.987  18.449  0.00  0.00    +0.000 A 
ATOM     30  C   UNL     1       2.044   4.035  17.902  0.00  0.00    +0.000 A 
ENDBRANCH  18  25
ENDBRANCH  17  18
ENDBRANCH  16  17
ENDBRANCH   1  16
TORSDOF 9
ENDMDL
MODEL 4
REMARK VINA RESULT:      -7.8      0.414      3.637
REMARK  Name = 
REMARK  9 active torsions:
REMARK  status: ('A' for Active; 'I' for Inactive)
REMARK    1  A    between atoms: O_1  and  C_2
REMARK    2  A    between atoms: C_6  and  C_7
REMARK    3  A    between atoms: C_7  and  N_8
REMARK    4  A    between atoms: N_11  and  C_12
REMARK    5  A    between atoms: C_12  and  C_13
REMARK    6  A    between atoms: C_13  and  O_14
REMARK    7  A    between atoms: O_14  and  C_15
REMARK    8  A    between atoms: C_15  and  C_16
REMARK    9  A    between atoms: C_15  and  C_22
REMARK                            x       y       z     vdW  Elec       q    Type
REMARK                         _______ _______ _______ _____ _____    ______ ____
ROOT
ATOM      1  C   UNL     1       6.179   5.306  18.555  0.00  0.00    +0.000 C 
ENDROOT
BRANCH   1   5
ATOM      2  N   UNL     1       5.810   4.889  14.719  0.00  0.00    +0.000 NA
ATOM      3  C   UNL     1       4.725   4.620  15.683  0.00  0.00    +0.000 C 
ATOM      4  C   UNL     1       5.125   3.777  16.925  0.00  0.00    +0.000 C 
ATOM      5  N   UNL     1       6.364   4.175  17.632  0.00  0.00    +0.000 NA
ATOM      6  C   UNL     1       7.423   4.490  16.649  0.00  0.00    +0.000 C 
ATOM      7  C   UNL     1       6.971   5.404  15.480  0.00  0.00    +0.000 C 
BRANCH   2   8
ATOM      8  C   UNL     1       6.205   3.720  13.909  0.00  0.00    +0.000 C 
BRANCH   8  13
ATOM      9  C   UNL     1       4.961   2.756  11.922  0.00  0.00    +0.000 C 
ATOM     10  C   UNL     1       5.817   1.547  11.576  0.00  0.00    +0.000 C 
ATOM     11  C   UNL     1       7.044   2.152  10.908  0.00  0.00    +0.000 C 
ATOM     12  C   UNL     1       7.235   3.528  11.552  0.00  0.00    +0.000 C 
ATOM     13  C   UNL     1       5.972   3.823  12.382  0.00  0.00    +0.000 C 
BRANCH   9  14
ATOM     14  O   UNL     1       4.295   3.184  10.738  0.00  0.00    +0.000 OA
ATOM     15  H   UNL     1       4.741   3.989  10.425  0.00  0.00    +0.000 HD
ENDBRANCH   9  14
ENDBRANCH   8  13
ENDBRANCH   2   8
ENDBRANCH   1   5
BRANCH   1  16
ATOM     16  C   UNL     1       5.002   5.162  19.537  0.00  0.00    +0.000 C 
BRANCH  16  17
ATOM     17  O   UNL     1       4.152   6.312  19.583  0.00  0.00    +0.000 OA
BRANCH  17  18
ATOM     18  C   UNL     1       2.962   6.261  18.778  0.00  0.00    +0.000 C 
BRANCH  18  19
ATOM     19  C   UNL     1       2.139   5.013  19.080  0.00  0.00    +0.000 A 
ATOM     20  C   UNL     1       1.781   4.681  20.395  0.00  0.00    +0.000 A 
ATOM     21  C   UNL     1       1.070   3.509  20.661  0.00  0.00    +0.000 A 
ATOM     22  C   UNL     1       0.716   2.651  19.621  0.00  0.00    +0.000 A 
ATOM     23  C   UNL     1       1.062   2.970  18.310  0.00  0.00    +0.000 A 
ATOM     24  C   UNL     1       1.764   4.147  18.040  0.00  0.00    +0.000 A 
ENDBRANCH  18  19
BRANCH  18  25
ATOM     25  C   UNL     1       2.183   7.569  18.930  0.00  0.00    +0.000 A 
ATOM     26  C   UNL     1       1.669   7.979  20.173  0.00  0.00    +0.000 A 
ATOM     27  C   UNL     1       1.010   9.203  20.307  0.00  0.00    +0.000 A 
ATOM     28  C   UNL     1       0.855  10.036  19.204  0.00  0.00    +0.000 A 
ATOM     29  C   UNL     1       1.365   9.651  17.965  0.00  0.00    +0.000 A 
ATOM     30  C   UNL     1       2.028   8.430  17.829  0.00  0.00    +0.000 A 
ENDBRANCH  18  25
ENDBRANCH  17  18
ENDBRANCH  16  17
ENDBRANCH   1  16
TORSDOF 9
ENDMDL
MODEL 5
REMARK VINA RESULT:      -7.8      4.285     10.292
REMARK  Name = 
REMARK  9 active torsions:
REMARK  status: ('A' for Active; 'I' for Inactive)
REMARK    1  A    between atoms: O_1  and  C_2
REMARK    2  A    between atoms: C_6  and  C_7
REMARK    3  A    between atoms: C_7  and  N_8
REMARK    4  A    between atoms: N_11  and  C_12
REMARK    5  A    between atoms: C_12  and  C_13
REMARK    6  A    between atoms: C_13  and  O_14
REMARK    7  A    between atoms: O_14  and  C_15
REMARK    8  A    between atoms: C_15  and  C_16
REMARK    9  A    between atoms: C_15  and  C_22
REMARK                            x       y       z     vdW  Elec       q    Type
REMARK                         _______ _______ _______ _____ _____    ______ ____
ROOT
ATOM      1  C   UNL     1       1.473   8.554  19.781  0.00  0.00    +0.000 C 
ENDROOT
BRANCH   1   5
ATOM      2  N   UNL     1       0.462  11.623  21.921  0.00  0.00    +0.000 NA
ATOM      3  C   UNL     1       0.267  10.224  22.348  0.00  0.00    +0.000 C 
ATOM      4  C   UNL     1      -0.351   9.277  21.283  0.00  0.00    +0.000 C 
ATOM      5  N   UNL     1       0.231   9.332  19.922  0.00  0.00    +0.000 NA
ATOM      6  C   UNL     1       0.467  10.739  19.533  0.00  0.00    +0.000 C 
ATOM      7  C   UNL     1       1.162  11.604  20.617  0.00  0.00    +0.000 C 
BRANCH   2   8
ATOM      8  C   UNL     1      -0.787  12.406  21.822  0.00  0.00    +0.000 C 
BRANCH   8  13
ATOM      9  C   UNL     1      -3.098  12.361  22.859  0.00  0.00    +0.000 C 
ATOM     10  C   UNL     1      -3.630  13.739  22.493  0.00  0.00    +0.000 C 
ATOM     11  C   UNL     1      -2.887  14.675  23.436  0.00  0.00    +0.000 C 
ATOM     12  C   UNL     1      -1.528  14.018  23.693  0.00  0.00    +0.000 C 
ATOM     13  C   UNL     1      -1.598  12.588  23.127  0.00  0.00    +0.000 C 
BRANCH   9  14
ATOM     14  O   UNL     1      -3.753  11.933  24.050  0.00  0.00    +0.000 OA
ATOM     15  H   UNL     1      -4.488  11.353  23.788  0.00  0.00    +0.000 HD
ENDBRANCH   9  14
ENDBRANCH   8  13
ENDBRANCH   2   8
ENDBRANCH   1   5
BRANCH   1  16
ATOM     16  C   UNL     1       2.087   8.556  18.369  0.00  0.00    +0.000 C 
BRANCH  16  17
ATOM     17  O   UNL     1       2.360   7.245  17.864  0.00  0.00    +0.000 OA
BRANCH  17  18
ATOM     18  C   UNL     1       3.066   6.354  18.745  0.00  0.00    +0.000 C 
BRANCH  18  19
ATOM     19  C   UNL     1       2.243   5.108  19.052  0.00  0.00    +0.000 A 
ATOM     20  C   UNL     1       1.763   4.856  20.345  0.00  0.00    +0.000 A 
ATOM     21  C   UNL     1       1.052   3.686  20.622  0.00  0.00    +0.000 A 
ATOM     22  C   UNL     1       0.821   2.750  19.616  0.00  0.00    +0.000 A 
ATOM     23  C   UNL     1       1.291   2.987  18.326  0.00  0.00    +0.000 A 
ATOM     24  C   UNL     1       1.991   4.162  18.043  0.00  0.00    +0.000 A 
ENDBRANCH  18  19
BRANCH  18  25
ATOM     25  C   UNL     1       4.452   6.055  18.170  0.00  0.00    +0.000 A 
ATOM     26  C   UNL     1       4.817   6.472  16.878  0.00  0.00    +0.000 A 
ATOM     27  C   UNL     1       6.105   6.242  16.388  0.00  0.00    +0.000 A 
ATOM     28  C   UNL     1       7.047   5.595  17.182  0.00  0.00    +0.000 A 
ATOM     29  C   UNL     1       6.706   5.181  18.468  0.00  0.00    +0.000 A 
ATOM     30  C   UNL     1       5.420   5.414  18.961  0.00  0.00    +0.000 A 
ENDBRANCH  18  25
ENDBRANCH  17  18
ENDBRANCH  16  17
ENDBRANCH   1  16
TORSDOF 9
ENDMDL
MODEL 6
REMARK VINA RESULT:      -7.8      0.276      1.296
REMARK  Name = 
REMARK  9 active torsions:
REMARK  status: ('A' for Active; 'I' for Inactive)
REMARK    1  A    between atoms: O_1  and  C_2
REMARK    2  A    between atoms: C_6  and  C_7
REMARK    3  A    between atoms: C_7  and  N_8
REMARK    4  A    between atoms: N_11  and  C_12
REMARK    5  A    between atoms: C_12  and  C_13
REMARK    6  A    between atoms: C_13  and  O_14
REMARK    7  A    between atoms: O_14  and  C_15
REMARK    8  A    between atoms: C_15  and  C_16
REMARK    9  A    between atoms: C_15  and  C_22
REMARK                            x       y       z     vdW  Elec       q    Type
REMARK                         _______ _______ _______ _____ _____    ______ ____
ROOT
ATOM      1  C   UNL     1       6.591   5.779  18.555  0.00  0.00    +0.000 C 
ENDROOT
BRANCH   1   5
ATOM      2  N   UNL     1       5.243   4.580  15.125  0.00  0.00    +0.000 NA
ATOM      3  C   UNL     1       4.835   3.996  16.417  0.00  0.00    +0.000 C 
ATOM      4  C   UNL     1       5.991   3.676  17.404  0.00  0.00    +0.000 C 
ATOM      5  N   UNL     1       7.008   4.733  17.607  0.00  0.00    +0.000 NA
ATOM      6  C   UNL     1       7.366   5.342  16.307  0.00  0.00    +0.000 C 
ATOM      7  C   UNL     1       6.156   5.710  15.408  0.00  0.00    +0.000 C 
BRANCH   2   8
ATOM      8  C   UNL     1       5.884   3.622  14.201  0.00  0.00    +0.000 C 
BRANCH   8  13
ATOM      9  C   UNL     1       4.860   2.979  11.974  0.00  0.00    +0.000 C 
ATOM     10  C   UNL     1       5.758   1.830  11.540  0.00  0.00    +0.000 C 
ATOM     11  C   UNL     1       7.042   2.520  11.101  0.00  0.00    +0.000 C 
ATOM     12  C   UNL     1       7.154   3.781  11.962  0.00  0.00    +0.000 C 
ATOM     13  C   UNL     1       5.809   3.957  12.692  0.00  0.00    +0.000 C 
BRANCH   9  14
ATOM     14  O   UNL     1       4.317   3.586  10.805  0.00  0.00    +0.000 OA
ATOM     15  H   UNL     1       3.354   3.648  10.928  0.00  0.00    +0.000 HD
ENDBRANCH   9  14
ENDBRANCH   8  13
ENDBRANCH   2   8
ENDBRANCH   1   5
BRANCH   1  16
ATOM     16  C   UNL     1       5.289   5.481  19.322  0.00  0.00    +0.000 C 
BRANCH  16  17
ATOM     17  O   UNL     1       4.170   6.248  18.867  0.00  0.00    +0.000 OA
BRANCH  17  18
ATOM     18  C   UNL     1       3.036   6.311  19.748  0.00  0.00    +0.000 C 
BRANCH  18  19
ATOM     19  C   UNL     1       2.207   7.568  19.499  0.00  0.00    +0.000 A 
ATOM     20  C   UNL     1       1.445   8.149  20.523  0.00  0.00    +0.000 A 
ATOM     21  C   UNL     1       0.653   9.270  20.267  0.00  0.00    +0.000 A 
ATOM     22  C   UNL     1       0.605   9.819  18.987  0.00  0.00    +0.000 A 
ATOM     23  C   UNL     1       1.358   9.253  17.961  0.00  0.00    +0.000 A 
ATOM     24  C   UNL     1       2.160   8.139  18.216  0.00  0.00    +0.000 A 
ENDBRANCH  18  19
BRANCH  18  25
ATOM     25  C   UNL     1       2.235   5.012  19.649  0.00  0.00    +0.000 A 
ATOM     26  C   UNL     1       1.789   4.334  20.797  0.00  0.00    +0.000 A 
ATOM     27  C   UNL     1       1.010   3.180  20.690  0.00  0.00    +0.000 A 
ATOM     28  C   UNL     1       0.663   2.687  19.436  0.00  0.00    +0.000 A 
ATOM     29  C   UNL     1       1.089   3.350  18.286  0.00  0.00    +0.000 A 
ATOM     30  C   UNL     1       1.864   4.506  18.391  0.00  0.00    +0.000 A 
ENDBRANCH  18  25
ENDBRANCH  17  18
ENDBRANCH  16  17
ENDBRANCH   1  16
TORSDOF 9
ENDMDL
MODEL 7
REMARK VINA RESULT:      -7.7      4.233      9.954
REMARK  Name = 
REMARK  9 active torsions:
REMARK  status: ('A' for Active; 'I' for Inactive)
REMARK    1  A    between atoms: O_1  and  C_2
REMARK    2  A    between atoms: C_6  and  C_7
REMARK    3  A    between atoms: C_7  and  N_8
REMARK    4  A    between atoms: N_11  and  C_12
REMARK    5  A    between atoms: C_12  and  C_13
REMARK    6  A    between atoms: C_13  and  O_14
REMARK    7  A    between atoms: O_14  and  C_15
REMARK    8  A    between atoms: C_15  and  C_16
REMARK    9  A    between atoms: C_15  and  C_22
REMARK                            x       y       z     vdW  Elec       q    Type
REMARK                         _______ _______ _______ _____ _____    ______ ____
ROOT
ATOM      1  C   UNL     1       1.576   9.870  18.486  0.00  0.00    +0.000 C 
ENDROOT
BRANCH   1   5
ATOM      2  N   UNL     1       0.057  11.465  21.675  0.00  0.00    +0.000 NA
ATOM      3  C   UNL     1       1.118  10.439  21.695  0.00  0.00    +0.000 C 
ATOM      4  C   UNL     1       0.885   9.215  20.766  0.00  0.00    +0.000 C 
ATOM      5  N   UNL     1       0.463   9.502  19.376  0.00  0.00    +0.000 NA
ATOM      6  C   UNL     1      -0.562  10.569  19.373  0.00  0.00    +0.000 C 
ATOM      7  C   UNL     1      -0.224  11.796  20.260  0.00  0.00    +0.000 C 
BRANCH   2   8
ATOM      8  C   UNL     1      -1.186  11.066  22.365  0.00  0.00    +0.000 C 
BRANCH   8  13
ATOM      9  C   UNL     1      -3.275  12.225  23.210  0.00  0.00    +0.000 C 
ATOM     10  C   UNL     1      -3.413  13.375  22.223  0.00  0.00    +0.000 C 
ATOM     11  C   UNL     1      -2.325  14.350  22.650  0.00  0.00    +0.000 C 
ATOM     12  C   UNL     1      -1.202  13.492  23.238  0.00  0.00    +0.000 C 
ATOM     13  C   UNL     1      -1.756  12.064  23.401  0.00  0.00    +0.000 C 
BRANCH   9  14
ATOM     14  O   UNL     1      -3.890  12.614  24.435  0.00  0.00    +0.000 OA
ATOM     15  H   UNL     1      -4.240  13.513  24.315  0.00  0.00    +0.000 HD
ENDBRANCH   9  14
ENDBRANCH   8  13
ENDBRANCH   2   8
ENDBRANCH   1   5
BRANCH   1  16
ATOM     16  C   UNL     1       2.274   8.686  17.791  0.00  0.00    +0.000 C 
BRANCH  16  17
ATOM     17  O   UNL     1       2.523   7.579  18.662  0.00  0.00    +0.000 OA
BRANCH  17  18
ATOM     18  C   UNL     1       2.911   6.345  18.034  0.00  0.00    +0.000 C 
BRANCH  18  19
ATOM     19  C   UNL     1       4.425   6.165  18.049  0.00  0.00    +0.000 A 
ATOM     20  C   UNL     1       5.065   5.484  19.094  0.00  0.00    +0.000 A 
ATOM     21  C   UNL     1       6.457   5.370  19.119  0.00  0.00    +0.000 A 
ATOM     22  C   UNL     1       7.226   5.941  18.107  0.00  0.00    +0.000 A 
ATOM     23  C   UNL     1       6.604   6.620  17.062  0.00  0.00    +0.000 A 
ATOM     24  C   UNL     1       5.212   6.725  17.028  0.00  0.00    +0.000 A 
ENDBRANCH  18  19
BRANCH  18  25
ATOM     25  C   UNL     1       2.143   5.183  18.666  0.00  0.00    +0.000 A 
ATOM     26  C   UNL     1       1.819   4.029  17.931  0.00  0.00    +0.000 A 
ATOM     27  C   UNL     1       1.169   2.952  18.538  0.00  0.00    +0.000 A 
ATOM     28  C   UNL     1       0.833   3.011  19.887  0.00  0.00    +0.000 A 
ATOM     29  C   UNL     1       1.153   4.143  20.634  0.00  0.00    +0.000 A 
ATOM     30  C   UNL     1       1.807   5.219  20.031  0.00  0.00    +0.000 A 
ENDBRANCH  18  25
ENDBRANCH  17  18
ENDBRANCH  16  17
ENDBRANCH   1  16
TORSDOF 9
ENDMDL
MODEL 8
REMARK VINA RESULT:      -7.7      4.125     10.097
REMARK  Name = 
REMARK  9 active torsions:
REMARK  status: ('A' for Active; 'I' for Inactive)
REMARK    1  A    between atoms: O_1  and  C_2
REMARK    2  A    between atoms: C_6  and  C_7
REMARK    3  A    between atoms: C_7  and  N_8
REMARK    4  A    between atoms: N_11  and  C_12
REMARK    5  A    between atoms: C_12  and  C_13
REMARK    6  A    between atoms: C_13  and  O_14
REMARK    7  A    between atoms: O_14  and  C_15
REMARK    8  A    between atoms: C_15  and  C_16
REMARK    9  A    between atoms: C_15  and  C_22
REMARK                            x       y       z     vdW  Elec       q    Type
REMARK                         _______ _______ _______ _____ _____    ______ ____
ROOT
ATOM      1  C   UNL     1       1.876   9.479  18.494  0.00  0.00    +0.000 C 
ENDROOT
BRANCH   1   5
ATOM      2  N   UNL     1       0.709  11.849  21.331  0.00  0.00    +0.000 NA
ATOM      3  C   UNL     1       0.577  10.380  21.382  0.00  0.00    +0.000 C 
ATOM      4  C   UNL     1       0.011   9.713  20.098  0.00  0.00    +0.000 C 
ATOM      5  N   UNL     1       0.598  10.139  18.807  0.00  0.00    +0.000 NA
ATOM      6  C   UNL     1       0.771  11.608  18.796  0.00  0.00    +0.000 C 
ATOM      7  C   UNL     1       1.418  12.195  20.078  0.00  0.00    +0.000 C 
BRANCH   2   8
ATOM      8  C   UNL     1      -0.573  12.577  21.413  0.00  0.00    +0.000 C 
BRANCH   8  13
ATOM      9  C   UNL     1      -2.797  12.386  22.613  0.00  0.00    +0.000 C 
ATOM     10  C   UNL     1      -3.350  13.795  22.469  0.00  0.00    +0.000 C 
ATOM     11  C   UNL     1      -2.532  14.608  23.463  0.00  0.00    +0.000 C 
ATOM     12  C   UNL     1      -1.160  13.931  23.527  0.00  0.00    +0.000 C 
ATOM     13  C   UNL     1      -1.280  12.584  22.789  0.00  0.00    +0.000 C 
BRANCH   9  14
ATOM     14  O   UNL     1      -3.359  11.805  23.786  0.00  0.00    +0.000 OA
ATOM     15  H   UNL     1      -4.282  11.572  23.586  0.00  0.00    +0.000 HD
ENDBRANCH   9  14
ENDBRANCH   8  13
ENDBRANCH   2   8
ENDBRANCH   1   5
BRANCH   1  16
ATOM     16  C   UNL     1       1.907   7.962  18.754  0.00  0.00    +0.000 C 
BRANCH  16  17
ATOM     17  O   UNL     1       2.949   7.283  18.046  0.00  0.00    +0.000 OA
BRANCH  17  18
ATOM     18  C   UNL     1       3.621   6.226  18.753  0.00  0.00    +0.000 C 
BRANCH  18  19
ATOM     19  C   UNL     1       2.655   5.106  19.127  0.00  0.00    +0.000 A 
ATOM     20  C   UNL     1       2.058   4.306  18.143  0.00  0.00    +0.000 A 
ATOM     21  C   UNL     1       1.138   3.316  18.496  0.00  0.00    +0.000 A 
ATOM     22  C   UNL     1       0.797   3.120  19.833  0.00  0.00    +0.000 A 
ATOM     23  C   UNL     1       1.384   3.906  20.822  0.00  0.00    +0.000 A 
ATOM     24  C   UNL     1       2.313   4.889  20.472  0.00  0.00    +0.000 A 
ENDBRANCH  18  19
BRANCH  18  25
ATOM     25  C   UNL     1       4.832   5.757  17.947  0.00  0.00    +0.000 A 
ATOM     26  C   UNL     1       4.918   5.966  16.559  0.00  0.00    +0.000 A 
ATOM     27  C   UNL     1       6.056   5.583  15.846  0.00  0.00    +0.000 A 
ATOM     28  C   UNL     1       7.126   4.989  16.507  0.00  0.00    +0.000 A 
ATOM     29  C   UNL     1       7.063   4.781  17.883  0.00  0.00    +0.000 A 
ATOM     30  C   UNL     1       5.928   5.166  18.599  0.00  0.00    +0.000 A 
ENDBRANCH  18  25
ENDBRANCH  17  18
ENDBRANCH  16  17
ENDBRANCH   1  16
TORSDOF 9
ENDMDL
MODEL 9
REMARK VINA RESULT:      -7.6      4.331     10.177
REMARK  Name = 
REMARK  9 active torsions:
REMARK  status: ('A' for Active; 'I' for Inactive)
REMARK    1  A    between atoms: O_1  and  C_2
REMARK    2  A    between atoms: C_6  and  C_7
REMARK    3  A    between atoms: C_7  and  N_8
REMARK    4  A    between atoms: N_11  and  C_12
REMARK    5  A    between atoms: C_12  and  C_13
REMARK    6  A    between atoms: C_13  and  O_14
REMARK    7  A    between atoms: O_14  and  C_15
REMARK    8  A    between atoms: C_15  and  C_16
REMARK    9  A    between atoms: C_15  and  C_22
REMARK                            x       y       z     vdW  Elec       q    Type
REMARK                         _______ _______ _______ _____ _____    ______ ____
ROOT
ATOM      1  C   UNL     1       1.663   9.564  18.697  0.00  0.00    +0.000 C 
ENDROOT
BRANCH   1   5
ATOM      2  N   UNL     1       0.102  12.120  21.157  0.00  0.00    +0.000 NA
ATOM      3  C   UNL     1       0.518  10.757  21.543  0.00  0.00    +0.000 C 
ATOM      4  C   UNL     1       0.068   9.622  20.583  0.00  0.00    +0.000 C 
ATOM      5  N   UNL     1       0.286   9.844  19.135  0.00  0.00    +0.000 NA
ATOM      6  C   UNL     1      -0.088  11.230  18.779  0.00  0.00    +0.000 C 
ATOM      7  C   UNL     1       0.466  12.318  19.736  0.00  0.00    +0.000 C 
BRANCH   2   8
ATOM      8  C   UNL     1      -1.335  12.396  21.362  0.00  0.00    +0.000 C 
BRANCH   8  13
ATOM      9  C   UNL     1      -3.368  12.448  22.874  0.00  0.00    +0.000 C 
ATOM     10  C   UNL     1      -3.754  13.919  22.825  0.00  0.00    +0.000 C 
ATOM     11  C   UNL     1      -2.704  14.597  23.696  0.00  0.00    +0.000 C 
ATOM     12  C   UNL     1      -1.434  13.754  23.552  0.00  0.00    +0.000 C 
ATOM     13  C   UNL     1      -1.828  12.453  22.828  0.00  0.00    +0.000 C 
BRANCH   9  14
ATOM     14  O   UNL     1      -3.823  11.909  24.112  0.00  0.00    +0.000 OA
ATOM     15  H   UNL     1      -3.181  12.163  24.796  0.00  0.00    +0.000 HD
ENDBRANCH   9  14
ENDBRANCH   8  13
ENDBRANCH   2   8
ENDBRANCH   1   5
BRANCH   1  16
ATOM     16  C   UNL     1       1.833   8.286  17.855  0.00  0.00    +0.000 C 
BRANCH  16  17
ATOM     17  O   UNL     1       2.940   7.476  18.265  0.00  0.00    +0.000 OA
BRANCH  17  18
ATOM     18  C   UNL     1       2.986   6.140  17.734  0.00  0.00    +0.000 C 
BRANCH  18  19
ATOM     19  C   UNL     1       4.388   5.781  17.252  0.00  0.00    +0.000 A 
ATOM     20  C   UNL     1       4.642   4.565  16.604  0.00  0.00    +0.000 A 
ATOM     21  C   UNL     1       5.940   4.229  16.212  0.00  0.00    +0.000 A 
ATOM     22  C   UNL     1       6.999   5.097  16.471  0.00  0.00    +0.000 A 
ATOM     23  C   UNL     1       6.760   6.310  17.113  0.00  0.00    +0.000 A 
ATOM     24  C   UNL     1       5.462   6.654  17.496  0.00  0.00    +0.000 A 
ENDBRANCH  18  19
BRANCH  18  25
ATOM     25  C   UNL     1       2.413   5.160  18.759  0.00  0.00    +0.000 A 
ATOM     26  C   UNL     1       2.694   5.284  20.131  0.00  0.00    +0.000 A 
ATOM     27  C   UNL     1       2.118   4.416  21.062  0.00  0.00    +0.000 A 
ATOM     28  C   UNL     1       1.252   3.414  20.637  0.00  0.00    +0.000 A 
ATOM     29  C   UNL     1       0.955   3.281  19.282  0.00  0.00    +0.000 A 
ATOM     30  C   UNL     1       1.527   4.149  18.350  0.00  0.00    +0.000 A 
ENDBRANCH  18  25
ENDBRANCH  17  18
ENDBRANCH  16  17
ENDBRANCH   1  16
TORSDOF 9
ENDMDL
