MODEL 1
REMARK VINA RESULT:      -7.4      0.000      0.000
REMARK  Name = 
REMARK  2 active torsions:
REMARK  status: ('A' for Active; 'I' for Inactive)
REMARK    1  A    between atoms: O_1  and  C_2
REMARK    2  A    between atoms: C_2  and  C_3
REMARK                            x       y       z     vdW  Elec       q    Type
REMARK                         _______ _______ _______ _____ _____    ______ ____
ROOT
ATOM      1  C   UNL     1       4.665   5.156  17.466  0.00  0.00    +0.000 A 
ATOM      2  C   UNL     1       4.372   6.536  17.603  0.00  0.00    +0.000 A 
ATOM      3  C   UNL     1       3.126   7.007  18.001  0.00  0.00    +0.000 A 
ATOM      4  C   UNL     1       2.113   6.105  18.285  0.00  0.00    +0.000 A 
ATOM      5  C   UNL     1       2.338   4.728  18.188  0.00  0.00    +0.000 A 
ATOM      6  C   UNL     1       1.294   3.842  18.496  0.00  0.00    +0.000 A 
ATOM      7  C   UNL     1       1.481   2.464  18.435  0.00  0.00    +0.000 A 
ATOM      8  C   UNL     1       2.724   1.961  18.080  0.00  0.00    +0.000 A 
ATOM      9  C   UNL     1       3.773   2.833  17.771  0.00  0.00    +0.000 A 
ATOM     10  C   UNL     1       3.616   4.237  17.793  0.00  0.00    +0.000 A 
ENDROOT
BRANCH   1  11
ATOM     11  C   UNL     1       6.171   4.735  17.023  0.00  0.00    +0.000 C 
ATOM     12  C   UNL     1       6.393   4.064  15.616  0.00  0.00    +0.000 C 
ATOM     13  N   UNL     1       7.597   4.896  15.426  0.00  0.00    +0.000 NA
ATOM     14  C   UNL     1       7.032   5.885  16.364  0.00  0.00    +0.000 C 
ATOM     15  H   UNL     1       7.756   5.235  14.480  0.00  0.00    +0.000 HD
BRANCH  11  16
ATOM     16  O   UNL     1       6.840   4.067  18.135  0.00  0.00    +0.000 OA
ATOM     17  H   UNL     1       6.343   4.350  18.921  0.00  0.00    +0.000 HD
ENDBRANCH  11  16
ENDBRANCH   1  11
TORSDOF 2
ENDMDL
MODEL 2
REMARK VINA RESULT:      -6.9      1.167      1.353
REMARK  Name = 
REMARK  2 active torsions:
REMARK  status: ('A' for Active; 'I' for Inactive)
REMARK    1  A    between atoms: O_1  and  C_2
REMARK    2  A    between atoms: C_2  and  C_3
REMARK                            x       y       z     vdW  Elec       q    Type
REMARK                         _______ _______ _______ _____ _____    ______ ____
ROOT
ATOM      1  C   UNL     1       4.764   5.845  17.403  0.00  0.00    +0.000 A 
ATOM      2  C   UNL     1       4.271   7.163  17.575  0.00  0.00    +0.000 A 
ATOM      3  C   UNL     1       2.951   7.436  17.915  0.00  0.00    +0.000 A 
ATOM      4  C   UNL     1       2.063   6.389  18.102  0.00  0.00    +0.000 A 
ATOM      5  C   UNL     1       2.486   5.063  17.965  0.00  0.00    +0.000 A 
ATOM      6  C   UNL     1       1.564   4.027  18.175  0.00  0.00    +0.000 A 
ATOM      7  C   UNL     1       1.947   2.693  18.073  0.00  0.00    +0.000 A 
ATOM      8  C   UNL     1       3.267   2.385  17.775  0.00  0.00    +0.000 A 
ATOM      9  C   UNL     1       4.197   3.409  17.563  0.00  0.00    +0.000 A 
ATOM     10  C   UNL     1       3.840   4.774  17.631  0.00  0.00    +0.000 A 
ENDROOT
BRANCH   1  11
ATOM     11  C   UNL     1       6.337   5.660  17.036  0.00  0.00    +0.000 C 
ATOM     12  C   UNL     1       7.268   4.881  18.040  0.00  0.00    +0.000 C 
ATOM     13  N   UNL     1       7.904   4.198  16.897  0.00  0.00    +0.000 NA
ATOM     14  C   UNL     1       6.677   4.425  16.110  0.00  0.00    +0.000 C 
ATOM     15  H   UNL     1       8.151   3.223  17.047  0.00  0.00    +0.000 HD
BRANCH  11  16
ATOM     16  O   UNL     1       6.879   6.924  16.548  0.00  0.00    +0.000 OA
ATOM     17  H   UNL     1       6.273   7.188  15.837  0.00  0.00    +0.000 HD
ENDBRANCH  11  16
ENDBRANCH   1  11
TORSDOF 2
ENDMDL
MODEL 3
REMARK VINA RESULT:      -6.8      2.860      4.621
REMARK  Name = 
REMARK  2 active torsions:
REMARK  status: ('A' for Active; 'I' for Inactive)
REMARK    1  A    between atoms: O_1  and  C_2
REMARK    2  A    between atoms: C_2  and  C_3
REMARK                            x       y       z     vdW  Elec       q    Type
REMARK                         _______ _______ _______ _____ _____    ______ ____
ROOT
ATOM      1  C   UNL     1       2.647   5.001  18.508  0.00  0.00    +0.000 A 
ATOM      2  C   UNL     1       2.139   6.240  18.974  0.00  0.00    +0.000 A 
ATOM      3  C   UNL     1       2.623   7.467  18.534  0.00  0.00    +0.000 A 
ATOM      4  C   UNL     1       3.642   7.504  17.596  0.00  0.00    +0.000 A 
ATOM      5  C   UNL     1       4.177   6.319  17.079  0.00  0.00    +0.000 A 
ATOM      6  C   UNL     1       5.199   6.393  16.120  0.00  0.00    +0.000 A 
ATOM      7  C   UNL     1       5.744   5.240  15.562  0.00  0.00    +0.000 A 
ATOM      8  C   UNL     1       5.256   4.000  15.950  0.00  0.00    +0.000 A 
ATOM      9  C   UNL     1       4.238   3.913  16.905  0.00  0.00    +0.000 A 
ATOM     10  C   UNL     1       3.678   5.058  17.515  0.00  0.00    +0.000 A 
ENDROOT
BRANCH   1  11
ATOM     11  C   UNL     1       1.974   3.636  19.078  0.00  0.00    +0.000 C 
ATOM     12  C   UNL     1       2.821   2.705  20.024  0.00  0.00    +0.000 C 
ATOM     13  N   UNL     1       1.633   2.514  20.877  0.00  0.00    +0.000 NA
ATOM     14  C   UNL     1       1.105   3.803  20.388  0.00  0.00    +0.000 C 
ATOM     15  H   UNL     1       1.809   2.468  21.878  0.00  0.00    +0.000 HD
BRANCH  11  16
ATOM     16  O   UNL     1       1.277   2.945  17.998  0.00  0.00    +0.000 OA
ATOM     17  H   UNL     1       0.947   2.128  18.406  0.00  0.00    +0.000 HD
ENDBRANCH  11  16
ENDBRANCH   1  11
TORSDOF 2
ENDMDL
MODEL 4
REMARK VINA RESULT:      -6.7      2.481      4.389
REMARK  Name = 
REMARK  2 active torsions:
REMARK  status: ('A' for Active; 'I' for Inactive)
REMARK    1  A    between atoms: O_1  and  C_2
REMARK    2  A    between atoms: C_2  and  C_3
REMARK                            x       y       z     vdW  Elec       q    Type
REMARK                         _______ _______ _______ _____ _____    ______ ____
ROOT
ATOM      1  C   UNL     1       3.187   4.610  18.456  0.00  0.00    +0.000 A 
ATOM      2  C   UNL     1       2.521   5.724  19.026  0.00  0.00    +0.000 A 
ATOM      3  C   UNL     1       2.740   7.030  18.605  0.00  0.00    +0.000 A 
ATOM      4  C   UNL     1       3.642   7.277  17.582  0.00  0.00    +0.000 A 
ATOM      5  C   UNL     1       4.321   6.223  16.963  0.00  0.00    +0.000 A 
ATOM      6  C   UNL     1       5.217   6.507  15.921  0.00  0.00    +0.000 A 
ATOM      7  C   UNL     1       5.897   5.488  15.260  0.00  0.00    +0.000 A 
ATOM      8  C   UNL     1       5.671   4.169  15.629  0.00  0.00    +0.000 A 
ATOM      9  C   UNL     1       4.780   3.873  16.666  0.00  0.00    +0.000 A 
ATOM     10  C   UNL     1       4.093   4.880  17.379  0.00  0.00    +0.000 A 
ENDROOT
BRANCH   1  11
ATOM     11  C   UNL     1       2.819   3.130  19.017  0.00  0.00    +0.000 C 
ATOM     12  C   UNL     1       1.389   2.879  19.628  0.00  0.00    +0.000 C 
ATOM     13  N   UNL     1       1.333   1.583  18.926  0.00  0.00    +0.000 NA
ATOM     14  C   UNL     1       2.293   2.104  17.935  0.00  0.00    +0.000 C 
ATOM     15  H   UNL     1       0.422   1.320  18.554  0.00  0.00    +0.000 HD
BRANCH  11  16
ATOM     16  O   UNL     1       3.928   2.619  19.816  0.00  0.00    +0.000 OA
ATOM     17  H   UNL     1       4.660   2.528  19.185  0.00  0.00    +0.000 HD
ENDBRANCH  11  16
ENDBRANCH   1  11
TORSDOF 2
ENDMDL
MODEL 5
REMARK VINA RESULT:      -6.7      1.571      1.701
REMARK  Name = 
REMARK  2 active torsions:
REMARK  status: ('A' for Active; 'I' for Inactive)
REMARK    1  A    between atoms: O_1  and  C_2
REMARK    2  A    between atoms: C_2  and  C_3
REMARK                            x       y       z     vdW  Elec       q    Type
REMARK                         _______ _______ _______ _____ _____    ______ ____
ROOT
ATOM      1  C   UNL     1       4.499   5.411  17.736  0.00  0.00    +0.000 A 
ATOM      2  C   UNL     1       4.236   6.730  17.289  0.00  0.00    +0.000 A 
ATOM      3  C   UNL     1       3.226   7.521  17.825  0.00  0.00    +0.000 A 
ATOM      4  C   UNL     1       2.432   7.019  18.844  0.00  0.00    +0.000 A 
ATOM      5  C   UNL     1       2.648   5.732  19.345  0.00  0.00    +0.000 A 
ATOM      6  C   UNL     1       1.835   5.260  20.387  0.00  0.00    +0.000 A 
ATOM      7  C   UNL     1       2.029   3.994  20.932  0.00  0.00    +0.000 A 
ATOM      8  C   UNL     1       3.054   3.194  20.448  0.00  0.00    +0.000 A 
ATOM      9  C   UNL     1       3.872   3.653  19.410  0.00  0.00    +0.000 A 
ATOM     10  C   UNL     1       3.689   4.919  18.811  0.00  0.00    +0.000 A 
ENDROOT
BRANCH   1  11
ATOM     11  C   UNL     1       5.729   4.602  17.048  0.00  0.00    +0.000 C 
ATOM     12  C   UNL     1       6.602   5.325  15.955  0.00  0.00    +0.000 C 
ATOM     13  N   UNL     1       7.816   4.744  16.561  0.00  0.00    +0.000 NA
ATOM     14  C   UNL     1       7.095   4.637  17.844  0.00  0.00    +0.000 C 
ATOM     15  H   UNL     1       8.636   5.346  16.572  0.00  0.00    +0.000 HD
BRANCH  11  16
ATOM     16  O   UNL     1       5.293   3.255  16.695  0.00  0.00    +0.000 OA
ATOM     17  H   UNL     1       5.039   2.853  17.541  0.00  0.00    +0.000 HD
ENDBRANCH  11  16
ENDBRANCH   1  11
TORSDOF 2
ENDMDL
MODEL 6
REMARK VINA RESULT:      -6.5      2.325      4.446
REMARK  Name = 
REMARK  2 active torsions:
REMARK  status: ('A' for Active; 'I' for Inactive)
REMARK    1  A    between atoms: O_1  and  C_2
REMARK    2  A    between atoms: C_2  and  C_3
REMARK                            x       y       z     vdW  Elec       q    Type
REMARK                         _______ _______ _______ _____ _____    ______ ____
ROOT
ATOM      1  C   UNL     1       3.409   4.696  18.518  0.00  0.00    +0.000 A 
ATOM      2  C   UNL     1       2.345   5.632  18.496  0.00  0.00    +0.000 A 
ATOM      3  C   UNL     1       2.500   6.940  18.051  0.00  0.00    +0.000 A 
ATOM      4  C   UNL     1       3.739   7.367  17.600  0.00  0.00    +0.000 A 
ATOM      5  C   UNL     1       4.828   6.490  17.577  0.00  0.00    +0.000 A 
ATOM      6  C   UNL     1       6.066   6.951  17.101  0.00  0.00    +0.000 A 
ATOM      7  C   UNL     1       7.170   6.106  17.039  0.00  0.00    +0.000 A 
ATOM      8  C   UNL     1       7.040   4.784  17.438  0.00  0.00    +0.000 A 
ATOM      9  C   UNL     1       5.812   4.312  17.914  0.00  0.00    +0.000 A 
ATOM     10  C   UNL     1       4.675   5.144  18.019  0.00  0.00    +0.000 A 
ENDROOT
BRANCH   1  11
ATOM     11  C   UNL     1       3.089   3.187  19.033  0.00  0.00    +0.000 C 
ATOM     12  C   UNL     1       1.593   2.772  19.294  0.00  0.00    +0.000 C 
ATOM     13  N   UNL     1       1.858   1.470  18.651  0.00  0.00    +0.000 NA
ATOM     14  C   UNL     1       2.962   2.095  17.898  0.00  0.00    +0.000 C 
ATOM     15  H   UNL     1       1.101   1.095  18.084  0.00  0.00    +0.000 HD
BRANCH  11  16
ATOM     16  O   UNL     1       4.024   2.824  20.093  0.00  0.00    +0.000 OA
ATOM     17  H   UNL     1       4.746   3.467  20.010  0.00  0.00    +0.000 HD
ENDBRANCH  11  16
ENDBRANCH   1  11
TORSDOF 2
ENDMDL
MODEL 7
REMARK VINA RESULT:      -6.5      2.746      4.818
REMARK  Name = 
REMARK  2 active torsions:
REMARK  status: ('A' for Active; 'I' for Inactive)
REMARK    1  A    between atoms: O_1  and  C_2
REMARK    2  A    between atoms: C_2  and  C_3
REMARK                            x       y       z     vdW  Elec       q    Type
REMARK                         _______ _______ _______ _____ _____    ______ ____
ROOT
ATOM      1  C   UNL     1       4.620   4.214  18.085  0.00  0.00    +0.000 A 
ATOM      2  C   UNL     1       5.194   4.728  19.275  0.00  0.00    +0.000 A 
ATOM      3  C   UNL     1       6.432   5.360  19.303  0.00  0.00    +0.000 A 
ATOM      4  C   UNL     1       7.152   5.508  18.128  0.00  0.00    +0.000 A 
ATOM      5  C   UNL     1       6.637   5.040  16.915  0.00  0.00    +0.000 A 
ATOM      6  C   UNL     1       7.386   5.219  15.742  0.00  0.00    +0.000 A 
ATOM      7  C   UNL     1       6.903   4.789  14.509  0.00  0.00    +0.000 A 
ATOM      8  C   UNL     1       5.653   4.191  14.439  0.00  0.00    +0.000 A 
ATOM      9  C   UNL     1       4.896   4.007  15.602  0.00  0.00    +0.000 A 
ATOM     10  C   UNL     1       5.364   4.403  16.875  0.00  0.00    +0.000 A 
ENDROOT
BRANCH   1  11
ATOM     11  C   UNL     1       3.151   3.524  18.181  0.00  0.00    +0.000 C 
ATOM     12  C   UNL     1       2.990   2.012  17.771  0.00  0.00    +0.000 C 
ATOM     13  N   UNL     1       2.110   1.805  18.937  0.00  0.00    +0.000 NA
ATOM     14  C   UNL     1       2.761   2.951  19.601  0.00  0.00    +0.000 C 
ATOM     15  H   UNL     1       2.210   0.912  19.413  0.00  0.00    +0.000 HD
BRANCH  11  16
ATOM     16  O   UNL     1       2.150   4.425  17.618  0.00  0.00    +0.000 OA
ATOM     17  H   UNL     1       2.015   5.096  18.306  0.00  0.00    +0.000 HD
ENDBRANCH  11  16
ENDBRANCH   1  11
TORSDOF 2
ENDMDL
MODEL 8
REMARK VINA RESULT:      -6.5      2.720      4.997
REMARK  Name = 
REMARK  2 active torsions:
REMARK  status: ('A' for Active; 'I' for Inactive)
REMARK    1  A    between atoms: O_1  and  C_2
REMARK    2  A    between atoms: C_2  and  C_3
REMARK                            x       y       z     vdW  Elec       q    Type
REMARK                         _______ _______ _______ _____ _____    ______ ____
ROOT
ATOM      1  C   UNL     1       4.796   3.957  17.849  0.00  0.00    +0.000 A 
ATOM      2  C   UNL     1       4.339   3.813  16.515  0.00  0.00    +0.000 A 
ATOM      3  C   UNL     1       4.860   4.549  15.457  0.00  0.00    +0.000 A 
ATOM      4  C   UNL     1       5.873   5.464  15.693  0.00  0.00    +0.000 A 
ATOM      5  C   UNL     1       6.383   5.644  16.982  0.00  0.00    +0.000 A 
ATOM      6  C   UNL     1       7.419   6.569  17.184  0.00  0.00    +0.000 A 
ATOM      7  C   UNL     1       7.972   6.764  18.446  0.00  0.00    +0.000 A 
ATOM      8  C   UNL     1       7.503   6.017  19.518  0.00  0.00    +0.000 A 
ATOM      9  C   UNL     1       6.471   5.091  19.330  0.00  0.00    +0.000 A 
ATOM     10  C   UNL     1       5.865   4.885  18.071  0.00  0.00    +0.000 A 
ENDROOT
BRANCH   1  11
ATOM     11  C   UNL     1       4.125   3.015  18.992  0.00  0.00    +0.000 C 
ATOM     12  C   UNL     1       3.085   3.649  19.989  0.00  0.00    +0.000 C 
ATOM     13  N   UNL     1       2.245   2.443  19.856  0.00  0.00    +0.000 NA
ATOM     14  C   UNL     1       2.854   2.193  18.536  0.00  0.00    +0.000 C 
ATOM     15  H   UNL     1       1.240   2.602  19.849  0.00  0.00    +0.000 HD
BRANCH  11  16
ATOM     16  O   UNL     1       5.158   2.195  19.618  0.00  0.00    +0.000 OA
ATOM     17  H   UNL     1       5.993   2.584  19.313  0.00  0.00    +0.000 HD
ENDBRANCH  11  16
ENDBRANCH   1  11
TORSDOF 2
ENDMDL
MODEL 9
REMARK VINA RESULT:      -6.4      1.598      1.771
REMARK  Name = 
REMARK  2 active torsions:
REMARK  status: ('A' for Active; 'I' for Inactive)
REMARK    1  A    between atoms: O_1  and  C_2
REMARK    2  A    between atoms: C_2  and  C_3
REMARK                            x       y       z     vdW  Elec       q    Type
REMARK                         _______ _______ _______ _____ _____    ______ ____
ROOT
ATOM      1  C   UNL     1       4.880   5.881  17.766  0.00  0.00    +0.000 A 
ATOM      2  C   UNL     1       4.222   7.100  17.465  0.00  0.00    +0.000 A 
ATOM      3  C   UNL     1       2.944   7.400  17.924  0.00  0.00    +0.000 A 
ATOM      4  C   UNL     1       2.268   6.484  18.714  0.00  0.00    +0.000 A 
ATOM      5  C   UNL     1       2.865   5.269  19.064  0.00  0.00    +0.000 A 
ATOM      6  C   UNL     1       2.158   4.370  19.877  0.00  0.00    +0.000 A 
ATOM      7  C   UNL     1       2.723   3.160  20.269  0.00  0.00    +0.000 A 
ATOM      8  C   UNL     1       4.012   2.846  19.862  0.00  0.00    +0.000 A 
ATOM      9  C   UNL     1       4.728   3.734  19.052  0.00  0.00    +0.000 A 
ATOM     10  C   UNL     1       4.179   4.959  18.610  0.00  0.00    +0.000 A 
ENDROOT
BRANCH   1  11
ATOM     11  C   UNL     1       6.386   5.664  17.194  0.00  0.00    +0.000 C 
ATOM     12  C   UNL     1       7.466   4.993  18.124  0.00  0.00    +0.000 C 
ATOM     13  N   UNL     1       7.943   4.201  16.974  0.00  0.00    +0.000 NA
ATOM     14  C   UNL     1       6.611   4.344  16.355  0.00  0.00    +0.000 C 
ATOM     15  H   UNL     1       8.226   3.246  17.182  0.00  0.00    +0.000 HD
BRANCH  11  16
ATOM     16  O   UNL     1       6.829   6.875  16.511  0.00  0.00    +0.000 OA
ATOM     17  H   UNL     1       6.794   7.565  17.193  0.00  0.00    +0.000 HD
ENDBRANCH  11  16
ENDBRANCH   1  11
TORSDOF 2
ENDMDL
