MODEL 1
REMARK VINA RESULT:      -7.8      0.000      0.000
REMARK  Name = 
REMARK  11 active torsions:
REMARK  status: ('A' for Active; 'I' for Inactive)
REMARK    1  A    between atoms: C_1  and  N_2
REMARK    2  A    between atoms: N_2  and  C_3
REMARK    3  A    between atoms: N_5  and  C_6
REMARK    4  A    between atoms: C_6  and  C_7
REMARK    5  A    between atoms: C_7  and  C_8
REMARK    6  A    between atoms: C_8  and  C_9
REMARK    7  A    between atoms: C_9  and  C_10
REMARK    8  A    between atoms: C_10  and  C_11
REMARK    9  A    between atoms: C_11  and  N_12
REMARK   10  A    between atoms: C_14  and  C_15
REMARK   11  A    between atoms: N_25  and  C_26
REMARK                            x       y       z     vdW  Elec       q    Type
REMARK                         _______ _______ _______ _____ _____    ______ ____
ROOT
ATOM      1  C   UNL     1       2.092   5.161  20.858  0.00  0.00    +0.000 C 
ENDROOT
BRANCH   1   2
ATOM      2  C   UNL     1       0.824   4.638  20.179  0.00  0.00    +0.000 C 
BRANCH   2   3
ATOM      3  C   UNL     1       1.028   3.223  19.659  0.00  0.00    +0.000 C 
BRANCH   3   4
ATOM      4  C   UNL     1       1.383   3.163  18.180  0.00  0.00    +0.000 C 
BRANCH   4   5
ATOM      5  C   UNL     1       2.699   2.403  18.065  0.00  0.00    +0.000 C 
BRANCH   5  10
ATOM      6  C   UNL     1       5.250   4.546  15.625  0.00  0.00    +0.000 C 
ATOM      7  N   UNL     1       5.671   4.221  16.993  0.00  0.00    +0.000 N 
ATOM      8  C   UNL     1       6.989   4.697  17.371  0.00  0.00    +0.000 C 
ATOM      9  C   UNL     1       4.798   3.493  17.809  0.00  0.00    +0.000 C 
ATOM     10  N   UNL     1       3.660   3.155  17.291  0.00  0.00    +0.000 NA
ATOM     11  N   UNL     1       5.311   3.248  19.057  0.00  0.00    +0.000 N 
ATOM     12  H   UNL     1       6.214   3.620  19.284  0.00  0.00    +0.000 HD
BRANCH  11  13
ATOM     13  C   UNL     1       4.662   2.547  20.128  0.00  0.00    +0.000 C 
ATOM     14  N   UNL     1       4.193   2.008  21.035  0.00  0.00    +0.000 NA
ENDBRANCH  11  13
ENDBRANCH   5  10
ENDBRANCH   4   5
ENDBRANCH   3   4
ENDBRANCH   2   3
ENDBRANCH   1   2
BRANCH   1  15
ATOM     15  C   UNL     1       3.028   5.862  19.867  0.00  0.00    +0.000 C 
BRANCH  15  16
ATOM     16  N   UNL     1       2.497   7.140  19.436  0.00  0.00    +0.000 N 
ATOM     17  N   UNL     1       1.752   7.822  20.369  0.00  0.00    +0.000 NA
ATOM     18  C   UNL     1       1.194   8.935  20.010  0.00  0.00    +0.000 A 
ATOM     19  C   UNL     1       1.289   9.498  18.646  0.00  0.00    +0.000 A 
ATOM     20  C   UNL     1       2.068   8.851  17.778  0.00  0.00    +0.000 A 
ATOM     21  C   UNL     1       2.753   7.599  18.155  0.00  0.00    +0.000 A 
ATOM     22  O   UNL     1       3.471   7.040  17.330  0.00  0.00    +0.000 OA
BRANCH  18  23
ATOM     23  C   UNL     1       0.428   9.709  21.025  0.00  0.00    +0.000 A 
ATOM     24  C   UNL     1       0.251   9.145  22.297  0.00  0.00    +0.000 A 
ATOM     25  C   UNL     1      -0.513   9.808  23.260  0.00  0.00    +0.000 A 
ATOM     26  C   UNL     1      -1.101  11.034  22.955  0.00  0.00    +0.000 A 
ATOM     27  C   UNL     1      -0.917  11.605  21.696  0.00  0.00    +0.000 A 
ATOM     28  C   UNL     1      -0.156  10.944  20.729  0.00  0.00    +0.000 A 
ENDBRANCH  18  23
ENDBRANCH  15  16
ENDBRANCH   1  15
TORSDOF 9
ENDMDL
MODEL 2
REMARK VINA RESULT:      -7.3      1.204      1.635
REMARK  Name = 
REMARK  11 active torsions:
REMARK  status: ('A' for Active; 'I' for Inactive)
REMARK    1  A    between atoms: C_1  and  N_2
REMARK    2  A    between atoms: N_2  and  C_3
REMARK    3  A    between atoms: N_5  and  C_6
REMARK    4  A    between atoms: C_6  and  C_7
REMARK    5  A    between atoms: C_7  and  C_8
REMARK    6  A    between atoms: C_8  and  C_9
REMARK    7  A    between atoms: C_9  and  C_10
REMARK    8  A    between atoms: C_10  and  C_11
REMARK    9  A    between atoms: C_11  and  N_12
REMARK   10  A    between atoms: C_14  and  C_15
REMARK   11  A    between atoms: N_25  and  C_26
REMARK                            x       y       z     vdW  Elec       q    Type
REMARK                         _______ _______ _______ _____ _____    ______ ____
ROOT
ATOM      1  C   UNL     1       1.783   4.984  20.683  0.00  0.00    +0.000 C 
ENDROOT
BRANCH   1   2
ATOM      2  C   UNL     1       1.204   3.981  19.682  0.00  0.00    +0.000 C 
BRANCH   2   3
ATOM      3  C   UNL     1       2.290   3.064  19.140  0.00  0.00    +0.000 C 
BRANCH   3   4
ATOM      4  C   UNL     1       2.705   3.389  17.711  0.00  0.00    +0.000 C 
BRANCH   4   5
ATOM      5  C   UNL     1       4.226   3.483  17.697  0.00  0.00    +0.000 C 
BRANCH   5  10
ATOM      6  C   UNL     1       5.391   3.844  13.752  0.00  0.00    +0.000 C 
ATOM      7  N   UNL     1       6.207   4.467  14.800  0.00  0.00    +0.000 N 
ATOM      8  C   UNL     1       7.388   5.173  14.335  0.00  0.00    +0.000 C 
ATOM      9  C   UNL     1       5.803   4.337  16.133  0.00  0.00    +0.000 C 
ATOM     10  N   UNL     1       4.717   3.665  16.349  0.00  0.00    +0.000 NA
ATOM     11  N   UNL     1       6.653   4.956  17.014  0.00  0.00    +0.000 N 
ATOM     12  H   UNL     1       7.440   5.456  16.646  0.00  0.00    +0.000 HD
BRANCH  11  13
ATOM     13  C   UNL     1       6.509   5.021  18.440  0.00  0.00    +0.000 C 
ATOM     14  N   UNL     1       6.464   5.045  19.593  0.00  0.00    +0.000 NA
ENDBRANCH  11  13
ENDBRANCH   5  10
ENDBRANCH   4   5
ENDBRANCH   3   4
ENDBRANCH   2   3
ENDBRANCH   1   2
BRANCH   1  15
ATOM     15  C   UNL     1       2.902   5.831  20.069  0.00  0.00    +0.000 C 
BRANCH  15  16
ATOM     16  N   UNL     1       2.408   7.103  19.577  0.00  0.00    +0.000 N 
ATOM     17  N   UNL     1       1.656   7.834  20.466  0.00  0.00    +0.000 NA
ATOM     18  C   UNL     1       1.129   8.943  20.052  0.00  0.00    +0.000 A 
ATOM     19  C   UNL     1       1.266   9.452  18.670  0.00  0.00    +0.000 A 
ATOM     20  C   UNL     1       2.052   8.757  17.846  0.00  0.00    +0.000 A 
ATOM     21  C   UNL     1       2.701   7.506  18.286  0.00  0.00    +0.000 A 
ATOM     22  O   UNL     1       3.426   6.903  17.500  0.00  0.00    +0.000 OA
BRANCH  18  23
ATOM     23  C   UNL     1       0.357   9.771  21.019  0.00  0.00    +0.000 A 
ATOM     24  C   UNL     1       0.151   9.266  22.311  0.00  0.00    +0.000 A 
ATOM     25  C   UNL     1      -0.619   9.980  23.231  0.00  0.00    +0.000 A 
ATOM     26  C   UNL     1      -1.186  11.199  22.863  0.00  0.00    +0.000 A 
ATOM     27  C   UNL     1      -0.974  11.711  21.583  0.00  0.00    +0.000 A 
ATOM     28  C   UNL     1      -0.206  10.999  20.659  0.00  0.00    +0.000 A 
ENDBRANCH  18  23
ENDBRANCH  15  16
ENDBRANCH   1  15
TORSDOF 9
ENDMDL
MODEL 3
REMARK VINA RESULT:      -7.3      5.724      8.756
REMARK  Name = 
REMARK  11 active torsions:
REMARK  status: ('A' for Active; 'I' for Inactive)
REMARK    1  A    between atoms: C_1  and  N_2
REMARK    2  A    between atoms: N_2  and  C_3
REMARK    3  A    between atoms: N_5  and  C_6
REMARK    4  A    between atoms: C_6  and  C_7
REMARK    5  A    between atoms: C_7  and  C_8
REMARK    6  A    between atoms: C_8  and  C_9
REMARK    7  A    between atoms: C_9  and  C_10
REMARK    8  A    between atoms: C_10  and  C_11
REMARK    9  A    between atoms: C_11  and  N_12
REMARK   10  A    between atoms: C_14  and  C_15
REMARK   11  A    between atoms: N_25  and  C_26
REMARK                            x       y       z     vdW  Elec       q    Type
REMARK                         _______ _______ _______ _____ _____    ______ ____
ROOT
ATOM      1  C   UNL     1       7.685   6.757  18.700  0.00  0.00    +0.000 C 
ENDROOT
BRANCH   1   2
ATOM      2  C   UNL     1       8.005   7.674  17.516  0.00  0.00    +0.000 C 
BRANCH   2   3
ATOM      3  C   UNL     1       8.005   9.134  17.942  0.00  0.00    +0.000 C 
BRANCH   3   4
ATOM      4  C   UNL     1       9.114   9.481  18.927  0.00  0.00    +0.000 C 
BRANCH   4   5
ATOM      5  C   UNL     1       9.343  10.985  18.832  0.00  0.00    +0.000 C 
BRANCH   5  10
ATOM      6  C   UNL     1       8.820  12.514  22.632  0.00  0.00    +0.000 C 
ATOM      7  N   UNL     1       9.496  13.331  21.617  0.00  0.00    +0.000 N 
ATOM      8  C   UNL     1       9.930  14.644  22.060  0.00  0.00    +0.000 C 
ATOM      9  C   UNL     1       9.666  12.803  20.333  0.00  0.00    +0.000 C 
ATOM     10  N   UNL     1       9.208  11.608  20.129  0.00  0.00    +0.000 NA
ATOM     11  N   UNL     1      10.303  13.665  19.478  0.00  0.00    +0.000 N 
ATOM     12  H   UNL     1      10.610  14.550  19.835  0.00  0.00    +0.000 HD
BRANCH  11  13
ATOM     13  C   UNL     1      10.642  13.418  18.106  0.00  0.00    +0.000 C 
ATOM     14  N   UNL     1      10.840  13.217  16.987  0.00  0.00    +0.000 NA
ENDBRANCH  11  13
ENDBRANCH   5  10
ENDBRANCH   4   5
ENDBRANCH   3   4
ENDBRANCH   2   3
ENDBRANCH   1   2
BRANCH   1  15
ATOM     15  C   UNL     1       7.799   5.275  18.328  0.00  0.00    +0.000 C 
BRANCH  15  16
ATOM     16  N   UNL     1       6.577   4.775  17.729  0.00  0.00    +0.000 N 
ATOM     17  N   UNL     1       5.510   4.628  18.584  0.00  0.00    +0.000 NA
ATOM     18  C   UNL     1       4.417   4.116  18.113  0.00  0.00    +0.000 A 
ATOM     19  C   UNL     1       4.262   3.653  16.718  0.00  0.00    +0.000 A 
ATOM     20  C   UNL     1       5.289   3.863  15.893  0.00  0.00    +0.000 A 
ATOM     21  C   UNL     1       6.541   4.477  16.378  0.00  0.00    +0.000 A 
ATOM     22  O   UNL     1       7.459   4.665  15.584  0.00  0.00    +0.000 OA
BRANCH  18  23
ATOM     23  C   UNL     1       3.238   4.000  19.014  0.00  0.00    +0.000 A 
ATOM     24  C   UNL     1       2.481   2.820  18.972  0.00  0.00    +0.000 A 
ATOM     25  C   UNL     1       1.332   2.693  19.755  0.00  0.00    +0.000 A 
ATOM     26  C   UNL     1       0.936   3.743  20.581  0.00  0.00    +0.000 A 
ATOM     27  C   UNL     1       1.692   4.914  20.636  0.00  0.00    +0.000 A 
ATOM     28  C   UNL     1       2.840   5.047  19.853  0.00  0.00    +0.000 A 
ENDBRANCH  18  23
ENDBRANCH  15  16
ENDBRANCH   1  15
TORSDOF 9
ENDMDL
MODEL 4
REMARK VINA RESULT:      -7.3      1.109      2.177
REMARK  Name = 
REMARK  11 active torsions:
REMARK  status: ('A' for Active; 'I' for Inactive)
REMARK    1  A    between atoms: C_1  and  N_2
REMARK    2  A    between atoms: N_2  and  C_3
REMARK    3  A    between atoms: N_5  and  C_6
REMARK    4  A    between atoms: C_6  and  C_7
REMARK    5  A    between atoms: C_7  and  C_8
REMARK    6  A    between atoms: C_8  and  C_9
REMARK    7  A    between atoms: C_9  and  C_10
REMARK    8  A    between atoms: C_10  and  C_11
REMARK    9  A    between atoms: C_11  and  N_12
REMARK   10  A    between atoms: C_14  and  C_15
REMARK   11  A    between atoms: N_25  and  C_26
REMARK                            x       y       z     vdW  Elec       q    Type
REMARK                         _______ _______ _______ _____ _____    ______ ____
ROOT
ATOM      1  C   UNL     1       1.258   4.926  20.132  0.00  0.00    +0.000 C 
ENDROOT
BRANCH   1   2
ATOM      2  C   UNL     1       1.664   3.452  20.203  0.00  0.00    +0.000 C 
BRANCH   2   3
ATOM      3  C   UNL     1       2.631   3.208  21.352  0.00  0.00    +0.000 C 
BRANCH   3   4
ATOM      4  C   UNL     1       3.813   2.325  20.976  0.00  0.00    +0.000 C 
BRANCH   4   5
ATOM      5  C   UNL     1       4.148   2.622  19.519  0.00  0.00    +0.000 C 
BRANCH   5  10
ATOM      6  C   UNL     1       7.274   5.321  19.517  0.00  0.00    +0.000 C 
ATOM      7  N   UNL     1       6.333   5.313  18.391  0.00  0.00    +0.000 N 
ATOM      8  C   UNL     1       6.597   6.290  17.350  0.00  0.00    +0.000 C 
ATOM      9  C   UNL     1       5.277   4.395  18.404  0.00  0.00    +0.000 C 
ATOM     10  N   UNL     1       5.207   3.602  19.426  0.00  0.00    +0.000 NA
ATOM     11  N   UNL     1       4.467   4.495  17.302  0.00  0.00    +0.000 N 
ATOM     12  H   UNL     1       4.703   5.165  16.595  0.00  0.00    +0.000 HD
BRANCH  11  13
ATOM     13  C   UNL     1       3.316   3.690  17.009  0.00  0.00    +0.000 C 
ATOM     14  N   UNL     1       2.380   3.034  16.848  0.00  0.00    +0.000 NA
ENDBRANCH  11  13
ENDBRANCH   5  10
ENDBRANCH   4   5
ENDBRANCH   3   4
ENDBRANCH   2   3
ENDBRANCH   1   2
BRANCH   1  15
ATOM     15  C   UNL     1       2.474   5.856  20.068  0.00  0.00    +0.000 C 
BRANCH  15  16
ATOM     16  N   UNL     1       2.109   7.192  19.638  0.00  0.00    +0.000 N 
ATOM     17  N   UNL     1       1.334   7.910  20.519  0.00  0.00    +0.000 NA
ATOM     18  C   UNL     1       0.920   9.081  20.151  0.00  0.00    +0.000 A 
ATOM     19  C   UNL     1       1.207   9.677  18.829  0.00  0.00    +0.000 A 
ATOM     20  C   UNL     1       2.013   8.988  18.018  0.00  0.00    +0.000 A 
ATOM     21  C   UNL     1       2.538   7.665  18.411  0.00  0.00    +0.000 A 
ATOM     22  O   UNL     1       3.286   7.068  17.641  0.00  0.00    +0.000 OA
BRANCH  18  23
ATOM     23  C   UNL     1       0.124   9.891  21.114  0.00  0.00    +0.000 A 
ATOM     24  C   UNL     1      -0.295  11.170  20.721  0.00  0.00    +0.000 A 
ATOM     25  C   UNL     1      -0.990  11.988  21.614  0.00  0.00    +0.000 A 
ATOM     26  C   UNL     1      -1.268  11.531  22.901  0.00  0.00    +0.000 A 
ATOM     27  C   UNL     1      -0.865  10.254  23.293  0.00  0.00    +0.000 A 
ATOM     28  C   UNL     1      -0.167   9.434  22.404  0.00  0.00    +0.000 A 
ENDBRANCH  18  23
ENDBRANCH  15  16
ENDBRANCH   1  15
TORSDOF 9
ENDMDL
MODEL 5
REMARK VINA RESULT:      -7.1      2.158      7.396
REMARK  Name = 
REMARK  11 active torsions:
REMARK  status: ('A' for Active; 'I' for Inactive)
REMARK    1  A    between atoms: C_1  and  N_2
REMARK    2  A    between atoms: N_2  and  C_3
REMARK    3  A    between atoms: N_5  and  C_6
REMARK    4  A    between atoms: C_6  and  C_7
REMARK    5  A    between atoms: C_7  and  C_8
REMARK    6  A    between atoms: C_8  and  C_9
REMARK    7  A    between atoms: C_9  and  C_10
REMARK    8  A    between atoms: C_10  and  C_11
REMARK    9  A    between atoms: C_11  and  N_12
REMARK   10  A    between atoms: C_14  and  C_15
REMARK   11  A    between atoms: N_25  and  C_26
REMARK                            x       y       z     vdW  Elec       q    Type
REMARK                         _______ _______ _______ _____ _____    ______ ____
ROOT
ATOM      1  C   UNL     1       2.246   3.800  21.500  0.00  0.00    +0.000 C 
ENDROOT
BRANCH   1   2
ATOM      2  C   UNL     1       1.183   4.495  20.645  0.00  0.00    +0.000 C 
BRANCH   2   3
ATOM      3  C   UNL     1       1.253   6.006  20.811  0.00  0.00    +0.000 C 
BRANCH   3   4
ATOM      4  C   UNL     1       2.350   6.660  19.982  0.00  0.00    +0.000 C 
BRANCH   4   5
ATOM      5  C   UNL     1       1.909   8.092  19.706  0.00  0.00    +0.000 C 
BRANCH   5  10
ATOM      6  C   UNL     1      -0.193   9.344  23.033  0.00  0.00    +0.000 C 
ATOM      7  N   UNL     1       0.031  10.286  21.931  0.00  0.00    +0.000 N 
ATOM      8  C   UNL     1      -0.528  11.612  22.119  0.00  0.00    +0.000 C 
ATOM      9  C   UNL     1       0.743   9.850  20.808  0.00  0.00    +0.000 C 
ATOM     10  N   UNL     1       1.164   8.624  20.825  0.00  0.00    +0.000 NA
ATOM     11  N   UNL     1       0.877  10.820  19.848  0.00  0.00    +0.000 N 
ATOM     12  H   UNL     1       0.500  11.730  20.033  0.00  0.00    +0.000 HD
BRANCH  11  13
ATOM     13  C   UNL     1       1.565  10.695  18.595  0.00  0.00    +0.000 C 
ATOM     14  N   UNL     1       2.064  10.638  17.556  0.00  0.00    +0.000 NA
ENDBRANCH  11  13
ENDBRANCH   5  10
ENDBRANCH   4   5
ENDBRANCH   3   4
ENDBRANCH   2   3
ENDBRANCH   1   2
BRANCH   1  15
ATOM     15  C   UNL     1       3.001   2.721  20.716  0.00  0.00    +0.000 C 
BRANCH  15  16
ATOM     16  N   UNL     1       3.389   3.184  19.398  0.00  0.00    +0.000 N 
ATOM     17  N   UNL     1       4.422   4.091  19.364  0.00  0.00    +0.000 NA
ATOM     18  C   UNL     1       4.758   4.591  18.217  0.00  0.00    +0.000 A 
ATOM     19  C   UNL     1       4.074   4.265  16.947  0.00  0.00    +0.000 A 
ATOM     20  C   UNL     1       3.117   3.337  16.997  0.00  0.00    +0.000 A 
ATOM     21  C   UNL     1       2.727   2.714  18.277  0.00  0.00    +0.000 A 
ATOM     22  O   UNL     1       1.850   1.854  18.278  0.00  0.00    +0.000 OA
BRANCH  18  23
ATOM     23  C   UNL     1       5.909   5.534  18.160  0.00  0.00    +0.000 A 
ATOM     24  C   UNL     1       6.968   5.347  19.059  0.00  0.00    +0.000 A 
ATOM     25  C   UNL     1       8.038   6.242  19.082  0.00  0.00    +0.000 A 
ATOM     26  C   UNL     1       8.053   7.327  18.207  0.00  0.00    +0.000 A 
ATOM     27  C   UNL     1       7.008   7.511  17.302  0.00  0.00    +0.000 A 
ATOM     28  C   UNL     1       5.935   6.619  17.277  0.00  0.00    +0.000 A 
ENDBRANCH  18  23
ENDBRANCH  15  16
ENDBRANCH   1  15
TORSDOF 9
ENDMDL
MODEL 6
REMARK VINA RESULT:      -7.1      2.156      8.591
REMARK  Name = 
REMARK  11 active torsions:
REMARK  status: ('A' for Active; 'I' for Inactive)
REMARK    1  A    between atoms: C_1  and  N_2
REMARK    2  A    between atoms: N_2  and  C_3
REMARK    3  A    between atoms: N_5  and  C_6
REMARK    4  A    between atoms: C_6  and  C_7
REMARK    5  A    between atoms: C_7  and  C_8
REMARK    6  A    between atoms: C_8  and  C_9
REMARK    7  A    between atoms: C_9  and  C_10
REMARK    8  A    between atoms: C_10  and  C_11
REMARK    9  A    between atoms: C_11  and  N_12
REMARK   10  A    between atoms: C_14  and  C_15
REMARK   11  A    between atoms: N_25  and  C_26
REMARK                            x       y       z     vdW  Elec       q    Type
REMARK                         _______ _______ _______ _____ _____    ______ ____
ROOT
ATOM      1  C   UNL     1       2.843   3.606  17.793  0.00  0.00    +0.000 C 
ENDROOT
BRANCH   1   2
ATOM      2  C   UNL     1       2.228   4.933  18.243  0.00  0.00    +0.000 C 
BRANCH   2   3
ATOM      3  C   UNL     1       2.494   5.184  19.720  0.00  0.00    +0.000 C 
BRANCH   3   4
ATOM      4  C   UNL     1       1.441   6.056  20.389  0.00  0.00    +0.000 C 
BRANCH   4   5
ATOM      5  C   UNL     1       1.995   7.476  20.430  0.00  0.00    +0.000 C 
BRANCH   5  10
ATOM      6  C   UNL     1      -0.400   9.751  22.907  0.00  0.00    +0.000 C 
ATOM      7  N   UNL     1      -0.199  10.176  21.517  0.00  0.00    +0.000 N 
ATOM      8  C   UNL     1      -0.885  11.396  21.131  0.00  0.00    +0.000 C 
ATOM      9  C   UNL     1       0.614   9.396  20.687  0.00  0.00    +0.000 C 
ATOM     10  N   UNL     1       1.141   8.338  21.216  0.00  0.00    +0.000 NA
ATOM     11  N   UNL     1       0.715   9.895  19.414  0.00  0.00    +0.000 N 
ATOM     12  H   UNL     1       0.247  10.755  19.199  0.00  0.00    +0.000 HD
BRANCH  11  13
ATOM     13  C   UNL     1       1.483   9.342  18.335  0.00  0.00    +0.000 C 
ATOM     14  N   UNL     1       2.119   8.839  17.514  0.00  0.00    +0.000 NA
ENDBRANCH  11  13
ENDBRANCH   5  10
ENDBRANCH   4   5
ENDBRANCH   3   4
ENDBRANCH   2   3
ENDBRANCH   1   2
BRANCH   1  15
ATOM     15  C   UNL     1       4.208   3.353  18.442  0.00  0.00    +0.000 C 
BRANCH  15  16
ATOM     16  N   UNL     1       5.253   4.144  17.823  0.00  0.00    +0.000 N 
ATOM     17  N   UNL     1       5.442   3.933  16.477  0.00  0.00    +0.000 NA
ATOM     18  C   UNL     1       6.412   4.561  15.892  0.00  0.00    +0.000 A 
ATOM     19  C   UNL     1       7.346   5.468  16.594  0.00  0.00    +0.000 A 
ATOM     20  C   UNL     1       7.103   5.704  17.885  0.00  0.00    +0.000 A 
ATOM     21  C   UNL     1       5.986   5.038  18.583  0.00  0.00    +0.000 A 
ATOM     22  O   UNL     1       5.789   5.292  19.769  0.00  0.00    +0.000 OA
BRANCH  18  23
ATOM     23  C   UNL     1       6.596   4.383  14.425  0.00  0.00    +0.000 A 
ATOM     24  C   UNL     1       7.548   5.179  13.772  0.00  0.00    +0.000 A 
ATOM     25  C   UNL     1       7.710   5.089  12.388  0.00  0.00    +0.000 A 
ATOM     26  C   UNL     1       6.921   4.205  11.654  0.00  0.00    +0.000 A 
ATOM     27  C   UNL     1       5.981   3.403  12.300  0.00  0.00    +0.000 A 
ATOM     28  C   UNL     1       5.814   3.491  13.684  0.00  0.00    +0.000 A 
ENDBRANCH  18  23
ENDBRANCH  15  16
ENDBRANCH   1  15
TORSDOF 9
ENDMDL
MODEL 7
REMARK VINA RESULT:      -7.0      2.093      7.335
REMARK  Name = 
REMARK  11 active torsions:
REMARK  status: ('A' for Active; 'I' for Inactive)
REMARK    1  A    between atoms: C_1  and  N_2
REMARK    2  A    between atoms: N_2  and  C_3
REMARK    3  A    between atoms: N_5  and  C_6
REMARK    4  A    between atoms: C_6  and  C_7
REMARK    5  A    between atoms: C_7  and  C_8
REMARK    6  A    between atoms: C_8  and  C_9
REMARK    7  A    between atoms: C_9  and  C_10
REMARK    8  A    between atoms: C_10  and  C_11
REMARK    9  A    between atoms: C_11  and  N_12
REMARK   10  A    between atoms: C_14  and  C_15
REMARK   11  A    between atoms: N_25  and  C_26
REMARK                            x       y       z     vdW  Elec       q    Type
REMARK                         _______ _______ _______ _____ _____    ______ ____
ROOT
ATOM      1  C   UNL     1       2.458   3.103  21.636  0.00  0.00    +0.000 C 
ENDROOT
BRANCH   1   2
ATOM      2  C   UNL     1       1.482   4.037  20.916  0.00  0.00    +0.000 C 
BRANCH   2   3
ATOM      3  C   UNL     1       1.966   5.478  20.972  0.00  0.00    +0.000 C 
BRANCH   3   4
ATOM      4  C   UNL     1       1.630   6.282  19.723  0.00  0.00    +0.000 C 
BRANCH   4   5
ATOM      5  C   UNL     1       2.092   7.713  19.973  0.00  0.00    +0.000 C 
BRANCH   5  10
ATOM      6  C   UNL     1      -0.271   9.335  22.946  0.00  0.00    +0.000 C 
ATOM      7  N   UNL     1      -0.115  10.059  21.679  0.00  0.00    +0.000 N 
ATOM      8  C   UNL     1      -0.831  11.318  21.587  0.00  0.00    +0.000 C 
ATOM      9  C   UNL     1       0.687   9.499  20.679  0.00  0.00    +0.000 C 
ATOM     10  N   UNL     1       1.246   8.362  20.949  0.00  0.00    +0.000 NA
ATOM     11  N   UNL     1       0.746  10.268  19.545  0.00  0.00    +0.000 N 
ATOM     12  H   UNL     1       0.257  11.143  19.537  0.00  0.00    +0.000 HD
BRANCH  11  13
ATOM     13  C   UNL     1       1.492   9.981  18.354  0.00  0.00    +0.000 C 
ATOM     14  N   UNL     1       2.106   9.682  17.423  0.00  0.00    +0.000 NA
ENDBRANCH  11  13
ENDBRANCH   5  10
ENDBRANCH   4   5
ENDBRANCH   3   4
ENDBRANCH   2   3
ENDBRANCH   1   2
BRANCH   1  15
ATOM     15  C   UNL     1       3.213   2.194  20.660  0.00  0.00    +0.000 C 
BRANCH  15  16
ATOM     16  N   UNL     1       3.463   2.853  19.393  0.00  0.00    +0.000 N 
ATOM     17  N   UNL     1       4.473   3.787  19.397  0.00  0.00    +0.000 NA
ATOM     18  C   UNL     1       4.688   4.456  18.309  0.00  0.00    +0.000 A 
ATOM     19  C   UNL     1       3.892   4.295  17.074  0.00  0.00    +0.000 A 
ATOM     20  C   UNL     1       2.960   3.340  17.076  0.00  0.00    +0.000 A 
ATOM     21  C   UNL     1       2.705   2.527  18.282  0.00  0.00    +0.000 A 
ATOM     22  O   UNL     1       1.847   1.649  18.239  0.00  0.00    +0.000 OA
BRANCH  18  23
ATOM     23  C   UNL     1       5.811   5.433  18.283  0.00  0.00    +0.000 A 
ATOM     24  C   UNL     1       5.806   6.428  17.295  0.00  0.00    +0.000 A 
ATOM     25  C   UNL     1       6.869   7.326  17.195  0.00  0.00    +0.000 A 
ATOM     26  C   UNL     1       7.941   7.234  18.081  0.00  0.00    +0.000 A 
ATOM     27  C   UNL     1       7.946   6.254  19.074  0.00  0.00    +0.000 A 
ATOM     28  C   UNL     1       6.885   5.352  19.176  0.00  0.00    +0.000 A 
ENDBRANCH  18  23
ENDBRANCH  15  16
ENDBRANCH   1  15
TORSDOF 9
ENDMDL
MODEL 8
REMARK VINA RESULT:      -7.0      2.007      7.797
REMARK  Name = 
REMARK  11 active torsions:
REMARK  status: ('A' for Active; 'I' for Inactive)
REMARK    1  A    between atoms: C_1  and  N_2
REMARK    2  A    between atoms: N_2  and  C_3
REMARK    3  A    between atoms: N_5  and  C_6
REMARK    4  A    between atoms: C_6  and  C_7
REMARK    5  A    between atoms: C_7  and  C_8
REMARK    6  A    between atoms: C_8  and  C_9
REMARK    7  A    between atoms: C_9  and  C_10
REMARK    8  A    between atoms: C_10  and  C_11
REMARK    9  A    between atoms: C_11  and  N_12
REMARK   10  A    between atoms: C_14  and  C_15
REMARK   11  A    between atoms: N_25  and  C_26
REMARK                            x       y       z     vdW  Elec       q    Type
REMARK                         _______ _______ _______ _____ _____    ______ ____
ROOT
ATOM      1  C   UNL     1       3.056   2.731  17.700  0.00  0.00    +0.000 C 
ENDROOT
BRANCH   1   2
ATOM      2  C   UNL     1       1.728   3.152  18.333  0.00  0.00    +0.000 C 
BRANCH   2   3
ATOM      3  C   UNL     1       1.810   4.570  18.879  0.00  0.00    +0.000 C 
BRANCH   3   4
ATOM      4  C   UNL     1       1.388   4.687  20.337  0.00  0.00    +0.000 C 
BRANCH   4   5
ATOM      5  C   UNL     1       1.581   6.143  20.744  0.00  0.00    +0.000 C 
BRANCH   5  10
ATOM      6  C   UNL     1       3.322   8.100  17.552  0.00  0.00    +0.000 C 
ATOM      7  N   UNL     1       2.340   8.810  18.379  0.00  0.00    +0.000 N 
ATOM      8  C   UNL     1       2.066  10.181  17.985  0.00  0.00    +0.000 C 
ATOM      9  C   UNL     1       1.758   8.137  19.459  0.00  0.00    +0.000 C 
ATOM     10  N   UNL     1       2.133   6.912  19.652  0.00  0.00    +0.000 NA
ATOM     11  N   UNL     1       0.865   8.911  20.155  0.00  0.00    +0.000 N 
ATOM     12  H   UNL     1       0.686   9.843  19.830  0.00  0.00    +0.000 HD
BRANCH  11  13
ATOM     13  C   UNL     1       0.093   8.511  21.296  0.00  0.00    +0.000 C 
ATOM     14  N   UNL     1      -0.538   8.263  22.230  0.00  0.00    +0.000 NA
ENDBRANCH  11  13
ENDBRANCH   5  10
ENDBRANCH   4   5
ENDBRANCH   3   4
ENDBRANCH   2   3
ENDBRANCH   1   2
BRANCH   1  15
ATOM     15  C   UNL     1       4.258   3.120  18.567  0.00  0.00    +0.000 C 
BRANCH  15  16
ATOM     16  N   UNL     1       5.099   4.105  17.913  0.00  0.00    +0.000 N 
ATOM     17  N   UNL     1       5.348   3.883  16.580  0.00  0.00    +0.000 NA
ATOM     18  C   UNL     1       6.152   4.693  15.967  0.00  0.00    +0.000 A 
ATOM     19  C   UNL     1       6.840   5.824  16.627  0.00  0.00    +0.000 A 
ATOM     20  C   UNL     1       6.532   6.055  17.905  0.00  0.00    +0.000 A 
ATOM     21  C   UNL     1       5.593   5.179  18.632  0.00  0.00    +0.000 A 
ATOM     22  O   UNL     1       5.327   5.433  19.804  0.00  0.00    +0.000 OA
BRANCH  18  23
ATOM     23  C   UNL     1       6.390   4.496  14.511  0.00  0.00    +0.000 A 
ATOM     24  C   UNL     1       5.572   3.592  13.819  0.00  0.00    +0.000 A 
ATOM     25  C   UNL     1       5.799   3.330  12.466  0.00  0.00    +0.000 A 
ATOM     26  C   UNL     1       6.843   3.970  11.802  0.00  0.00    +0.000 A 
ATOM     27  C   UNL     1       7.652   4.880  12.482  0.00  0.00    +0.000 A 
ATOM     28  C   UNL     1       7.431   5.143  13.835  0.00  0.00    +0.000 A 
ENDBRANCH  18  23
ENDBRANCH  15  16
ENDBRANCH   1  15
TORSDOF 9
ENDMDL
MODEL 9
REMARK VINA RESULT:      -6.9      0.586      1.174
REMARK  Name = 
REMARK  11 active torsions:
REMARK  status: ('A' for Active; 'I' for Inactive)
REMARK    1  A    between atoms: C_1  and  N_2
REMARK    2  A    between atoms: N_2  and  C_3
REMARK    3  A    between atoms: N_5  and  C_6
REMARK    4  A    between atoms: C_6  and  C_7
REMARK    5  A    between atoms: C_7  and  C_8
REMARK    6  A    between atoms: C_8  and  C_9
REMARK    7  A    between atoms: C_9  and  C_10
REMARK    8  A    between atoms: C_10  and  C_11
REMARK    9  A    between atoms: C_11  and  N_12
REMARK   10  A    between atoms: C_14  and  C_15
REMARK   11  A    between atoms: N_25  and  C_26
REMARK                            x       y       z     vdW  Elec       q    Type
REMARK                         _______ _______ _______ _____ _____    ______ ____
ROOT
ATOM      1  C   UNL     1       1.949   4.922  19.644  0.00  0.00    +0.000 C 
ENDROOT
BRANCH   1   2
ATOM      2  C   UNL     1       1.264   4.918  18.276  0.00  0.00    +0.000 C 
BRANCH   2   3
ATOM      3  C   UNL     1       1.686   3.707  17.458  0.00  0.00    +0.000 C 
BRANCH   3   4
ATOM      4  C   UNL     1       1.804   2.429  18.278  0.00  0.00    +0.000 C 
BRANCH   4   5
ATOM      5  C   UNL     1       3.200   1.868  18.036  0.00  0.00    +0.000 C 
BRANCH   5  10
ATOM      6  C   UNL     1       5.405   4.557  15.809  0.00  0.00    +0.000 C 
ATOM      7  N   UNL     1       5.718   4.378  17.231  0.00  0.00    +0.000 N 
ATOM      8  C   UNL     1       6.811   5.189  17.737  0.00  0.00    +0.000 C 
ATOM      9  C   UNL     1       4.965   3.463  17.975  0.00  0.00    +0.000 C 
ATOM     10  N   UNL     1       4.027   2.831  17.344  0.00  0.00    +0.000 NA
ATOM     11  N   UNL     1       5.361   3.383  19.286  0.00  0.00    +0.000 N 
ATOM     12  H   UNL     1       6.101   3.982  19.598  0.00  0.00    +0.000 HD
BRANCH  11  13
ATOM     13  C   UNL     1       4.782   2.557  20.306  0.00  0.00    +0.000 C 
ATOM     14  N   UNL     1       4.250   1.902  21.094  0.00  0.00    +0.000 NA
ENDBRANCH  11  13
ENDBRANCH   5  10
ENDBRANCH   4   5
ENDBRANCH   3   4
ENDBRANCH   2   3
ENDBRANCH   1   2
BRANCH   1  15
ATOM     15  C   UNL     1       3.005   6.026  19.757  0.00  0.00    +0.000 C 
BRANCH  15  16
ATOM     16  N   UNL     1       2.472   7.322  19.382  0.00  0.00    +0.000 N 
ATOM     17  N   UNL     1       1.660   7.924  20.313  0.00  0.00    +0.000 NA
ATOM     18  C   UNL     1       1.099   9.049  19.998  0.00  0.00    +0.000 A 
ATOM     19  C   UNL     1       1.260   9.706  18.683  0.00  0.00    +0.000 A 
ATOM     20  C   UNL     1       2.102   9.134  17.821  0.00  0.00    +0.000 A 
ATOM     21  C   UNL     1       2.791   7.871  18.152  0.00  0.00    +0.000 A 
ATOM     22  O   UNL     1       3.568   7.383  17.335  0.00  0.00    +0.000 OA
BRANCH  18  23
ATOM     23  C   UNL     1       0.260   9.738  21.016  0.00  0.00    +0.000 A 
ATOM     24  C   UNL     1      -0.373  10.937  20.656  0.00  0.00    +0.000 A 
ATOM     25  C   UNL     1      -1.120  11.648  21.596  0.00  0.00    +0.000 A 
ATOM     26  C   UNL     1      -1.236  11.165  22.898  0.00  0.00    +0.000 A 
ATOM     27  C   UNL     1      -0.619   9.967  23.258  0.00  0.00    +0.000 A 
ATOM     28  C   UNL     1       0.131   9.253  22.321  0.00  0.00    +0.000 A 
ENDBRANCH  18  23
ENDBRANCH  15  16
ENDBRANCH   1  15
TORSDOF 9
ENDMDL
