MODEL 1
REMARK VINA RESULT:      -7.9      0.000      0.000
REMARK  Name = 
REMARK  5 active torsions:
REMARK  status: ('A' for Active; 'I' for Inactive)
REMARK    1  A    between atoms: C_2  and  C_3
REMARK    2  A    between atoms: N_5  and  C_6
REMARK    3  A    between atoms: C_6  and  C_7
REMARK    4  A    between atoms: C_6  and  C_24
REMARK    5  A    between atoms: C_31  and  C_32
REMARK                            x       y       z     vdW  Elec       q    Type
REMARK                         _______ _______ _______ _____ _____    ______ ____
ROOT
ATOM      1  C   UNL     1       4.273   4.279  17.321  0.00  0.00    +0.000 C 
ENDROOT
BRANCH   1   2
ATOM      2  C   UNL     1       5.200   4.438  16.065  0.00  0.00    +0.000 A 
ATOM      3  N   UNL     1       4.763   3.961  14.936  0.00  0.00    +0.000 NA
ATOM      4  C   UNL     1       5.542   4.089  13.784  0.00  0.00    +0.000 A 
ATOM      5  C   UNL     1       5.087   3.424  12.639  0.00  0.00    +0.000 A 
ATOM      6  C   UNL     1       5.828   3.432  11.463  0.00  0.00    +0.000 A 
ATOM      7  C   UNL     1       7.011   4.159  11.406  0.00  0.00    +0.000 A 
ATOM      8  C   UNL     1       7.475   4.849  12.536  0.00  0.00    +0.000 A 
ATOM      9 CL   UNL     1       8.962   5.708  12.316  0.00  0.00    +0.000 Cl
ATOM     10  C   UNL     1       6.751   4.789  13.743  0.00  0.00    +0.000 A 
ATOM     11  C   UNL     1       7.225   5.352  15.034  0.00  0.00    +0.000 A 
ATOM     12  O   UNL     1       8.315   5.915  15.089  0.00  0.00    +0.000 OA
ATOM     13  N   UNL     1       6.400   5.118  16.149  0.00  0.00    +0.000 N 
ATOM     14  C   UNL     1       6.937   5.500  17.388  0.00  0.00    +0.000 A 
ATOM     15  C   UNL     1       7.486   6.772  17.713  0.00  0.00    +0.000 A 
ATOM     16  C   UNL     1       7.948   6.656  19.001  0.00  0.00    +0.000 A 
ATOM     17  N   UNL     1       7.696   5.371  19.368  0.00  0.00    +0.000 N 
ATOM     18  N   UNL     1       7.007   4.678  18.447  0.00  0.00    +0.000 NA
ATOM     19  H   UNL     1       7.954   4.905  20.232  0.00  0.00    +0.000 HD
ENDBRANCH   1   2
BRANCH   1  22
ATOM     20  C   UNL     1       2.892   2.619  19.634  0.00  0.00    +0.000 A 
ATOM     21  C   UNL     1       4.232   2.645  19.307  0.00  0.00    +0.000 A 
ATOM     22  N   UNL     1       4.777   3.140  18.125  0.00  0.00    +0.000 N 
ATOM     23  N   UNL     1       5.122   2.080  20.149  0.00  0.00    +0.000 NA
ATOM     24  C   UNL     1       4.691   1.629  21.329  0.00  0.00    +0.000 A 
ATOM     25  N   UNL     1       5.495   0.755  22.052  0.00  0.00    +0.000 N 
ATOM     26  N   UNL     1       3.473   1.832  21.820  0.00  0.00    +0.000 NA
ATOM     27  C   UNL     1       2.567   2.382  20.956  0.00  0.00    +0.000 A 
ATOM     28  H   UNL     1       5.796   3.142  18.212  0.00  0.00    +0.000 HD
ATOM     29  H   UNL     1       6.096   0.250  21.407  0.00  0.00    +0.000 HD
ATOM     30  H   UNL     1       4.899   0.167  22.625  0.00  0.00    +0.000 HD
BRANCH  27  31
ATOM     31  C   UNL     1       1.206   2.700  21.508  0.00  0.00    +0.000 C 
ATOM     32  F   UNL     1       1.079   2.298  22.806  0.00  0.00    +0.000 F 
ATOM     33  F   UNL     1       0.914   4.028  21.495  0.00  0.00    +0.000 F 
ENDBRANCH  27  31
BRANCH  20  35
ATOM     34  N   UNL     1       1.024   2.756  17.838  0.00  0.00    +0.000 NA
ATOM     35  C   UNL     1       1.848   2.634  18.664  0.00  0.00    +0.000 C 
ENDBRANCH  20  35
ENDBRANCH   1  22
BRANCH   1  36
ATOM     36  C   UNL     1       4.168   5.521  18.195  0.00  0.00    +0.000 C 
ATOM     37  C   UNL     1       3.666   6.855  17.680  0.00  0.00    +0.000 C 
ATOM     38  C   UNL     1       2.870   6.128  18.726  0.00  0.00    +0.000 C 
ENDBRANCH   1  36
TORSDOF 5
ENDMDL
MODEL 2
REMARK VINA RESULT:      -7.6      1.719      2.671
REMARK  Name = 
REMARK  5 active torsions:
REMARK  status: ('A' for Active; 'I' for Inactive)
REMARK    1  A    between atoms: C_2  and  C_3
REMARK    2  A    between atoms: N_5  and  C_6
REMARK    3  A    between atoms: C_6  and  C_7
REMARK    4  A    between atoms: C_6  and  C_24
REMARK    5  A    between atoms: C_31  and  C_32
REMARK                            x       y       z     vdW  Elec       q    Type
REMARK                         _______ _______ _______ _____ _____    ______ ____
ROOT
ATOM      1  C   UNL     1       4.340   3.761  17.179  0.00  0.00    +0.000 C 
ENDROOT
BRANCH   1   2
ATOM      2  C   UNL     1       5.293   4.101  15.978  0.00  0.00    +0.000 A 
ATOM      3  N   UNL     1       4.955   3.657  14.803  0.00  0.00    +0.000 NA
ATOM      4  C   UNL     1       5.759   3.942  13.698  0.00  0.00    +0.000 A 
ATOM      5  C   UNL     1       5.424   3.310  12.495  0.00  0.00    +0.000 A 
ATOM      6  C   UNL     1       6.205   3.475  11.356  0.00  0.00    +0.000 A 
ATOM      7  C   UNL     1       7.304   4.325  11.399  0.00  0.00    +0.000 A 
ATOM      8  C   UNL     1       7.646   4.983  12.590  0.00  0.00    +0.000 A 
ATOM      9 CL   UNL     1       9.039   6.007  12.492  0.00  0.00    +0.000 Cl
ATOM     10  C   UNL     1       6.886   4.767  13.757  0.00  0.00    +0.000 A 
ATOM     11  C   UNL     1       7.246   5.289  15.100  0.00  0.00    +0.000 A 
ATOM     12  O   UNL     1       8.265   5.959  15.239  0.00  0.00    +0.000 OA
ATOM     13  N   UNL     1       6.408   4.896  16.159  0.00  0.00    +0.000 N 
ATOM     14  C   UNL     1       6.852   5.249  17.443  0.00  0.00    +0.000 A 
ATOM     15  C   UNL     1       7.248   6.547  17.871  0.00  0.00    +0.000 A 
ATOM     16  C   UNL     1       7.669   6.396  19.169  0.00  0.00    +0.000 A 
ATOM     17  N   UNL     1       7.543   5.070  19.444  0.00  0.00    +0.000 N 
ATOM     18  N   UNL     1       6.969   4.370  18.451  0.00  0.00    +0.000 NA
ATOM     19  H   UNL     1       7.816   4.577  20.289  0.00  0.00    +0.000 HD
ENDBRANCH   1   2
BRANCH   1  22
ATOM     20  C   UNL     1       3.195   4.165  20.100  0.00  0.00    +0.000 A 
ATOM     21  C   UNL     1       3.385   5.131  19.134  0.00  0.00    +0.000 A 
ATOM     22  N   UNL     1       4.149   4.995  17.978  0.00  0.00    +0.000 N 
ATOM     23  N   UNL     1       2.861   6.360  19.326  0.00  0.00    +0.000 NA
ATOM     24  C   UNL     1       2.070   6.562  20.382  0.00  0.00    +0.000 A 
ATOM     25  N   UNL     1       1.804   7.865  20.786  0.00  0.00    +0.000 N 
ATOM     26  N   UNL     1       1.619   5.605  21.186  0.00  0.00    +0.000 NA
ATOM     27  C   UNL     1       2.170   4.367  21.005  0.00  0.00    +0.000 A 
ATOM     28  H   UNL     1       4.008   5.822  17.394  0.00  0.00    +0.000 HD
ATOM     29  H   UNL     1       2.572   8.464  20.497  0.00  0.00    +0.000 HD
ATOM     30  H   UNL     1       1.620   7.863  21.784  0.00  0.00    +0.000 HD
BRANCH  27  31
ATOM     31  C   UNL     1       1.621   3.248  21.844  0.00  0.00    +0.000 C 
ATOM     32  F   UNL     1       0.762   2.457  21.136  0.00  0.00    +0.000 F 
ATOM     33  F   UNL     1       2.580   2.417  22.332  0.00  0.00    +0.000 F 
ENDBRANCH  27  31
BRANCH  20  35
ATOM     34  N   UNL     1       4.896   2.228  20.397  0.00  0.00    +0.000 NA
ATOM     35  C   UNL     1       4.104   3.090  20.322  0.00  0.00    +0.000 C 
ENDBRANCH  20  35
ENDBRANCH   1  22
BRANCH   1  36
ATOM     36  C   UNL     1       2.987   3.192  16.775  0.00  0.00    +0.000 C 
ATOM     37  C   UNL     1       2.291   2.089  17.547  0.00  0.00    +0.000 C 
ATOM     38  C   UNL     1       1.663   3.454  17.492  0.00  0.00    +0.000 C 
ENDBRANCH   1  36
TORSDOF 5
ENDMDL
MODEL 3
REMARK VINA RESULT:      -7.4      8.840     11.529
REMARK  Name = 
REMARK  5 active torsions:
REMARK  status: ('A' for Active; 'I' for Inactive)
REMARK    1  A    between atoms: C_2  and  C_3
REMARK    2  A    between atoms: N_5  and  C_6
REMARK    3  A    between atoms: C_6  and  C_7
REMARK    4  A    between atoms: C_6  and  C_24
REMARK    5  A    between atoms: C_31  and  C_32
REMARK                            x       y       z     vdW  Elec       q    Type
REMARK                         _______ _______ _______ _____ _____    ______ ____
ROOT
ATOM      1  C   UNL     1       0.359  11.508  21.116  0.00  0.00    +0.000 C 
ENDROOT
BRANCH   1   2
ATOM      2  C   UNL     1      -0.743  11.295  20.018  0.00  0.00    +0.000 A 
ATOM      3  N   UNL     1      -1.862  11.943  20.161  0.00  0.00    +0.000 NA
ATOM      4  C   UNL     1      -2.870  11.802  19.205  0.00  0.00    +0.000 A 
ATOM      5  C   UNL     1      -4.101  12.402  19.495  0.00  0.00    +0.000 A 
ATOM      6  C   UNL     1      -5.188  12.258  18.640  0.00  0.00    +0.000 A 
ATOM      7  C   UNL     1      -5.034  11.554  17.451  0.00  0.00    +0.000 A 
ATOM      8  C   UNL     1      -3.802  10.961  17.133  0.00  0.00    +0.000 A 
ATOM      9 CL   UNL     1      -3.761  10.116  15.623  0.00  0.00    +0.000 Cl
ATOM     10  C   UNL     1      -2.721  11.059  18.031  0.00  0.00    +0.000 A 
ATOM     11  C   UNL     1      -1.428  10.346  17.867  0.00  0.00    +0.000 A 
ATOM     12  O   UNL     1      -1.255   9.616  16.895  0.00  0.00    +0.000 OA
ATOM     13  N   UNL     1      -0.500  10.504  18.912  0.00  0.00    +0.000 N 
ATOM     14  C   UNL     1       0.643   9.692  18.832  0.00  0.00    +0.000 A 
ATOM     15  C   UNL     1       1.509   9.564  17.711  0.00  0.00    +0.000 A 
ATOM     16  C   UNL     1       2.435   8.615  18.066  0.00  0.00    +0.000 A 
ATOM     17  N   UNL     1       2.085   8.209  19.316  0.00  0.00    +0.000 N 
ATOM     18  N   UNL     1       1.061   8.906  19.837  0.00  0.00    +0.000 NA
ATOM     19  H   UNL     1       2.505   7.474  19.876  0.00  0.00    +0.000 HD
ENDBRANCH   1   2
BRANCH   1  22
ATOM     20  C   UNL     1       2.240  13.944  20.384  0.00  0.00    +0.000 A 
ATOM     21  C   UNL     1       1.327  13.872  21.415  0.00  0.00    +0.000 A 
ATOM     22  N   UNL     1       0.313  12.925  21.546  0.00  0.00    +0.000 N 
ATOM     23  N   UNL     1       1.332  14.832  22.363  0.00  0.00    +0.000 NA
ATOM     24  C   UNL     1       2.303  15.747  22.343  0.00  0.00    +0.000 A 
ATOM     25  N   UNL     1       2.144  16.917  23.077  0.00  0.00    +0.000 N 
ATOM     26  N   UNL     1       3.371  15.704  21.551  0.00  0.00    +0.000 NA
ATOM     27  C   UNL     1       3.350  14.745  20.576  0.00  0.00    +0.000 A 
ATOM     28  H   UNL     1      -0.125  13.043  22.463  0.00  0.00    +0.000 HD
ATOM     29  H   UNL     1       1.151  17.106  23.184  0.00  0.00    +0.000 HD
ATOM     30  H   UNL     1       2.671  17.657  22.624  0.00  0.00    +0.000 HD
BRANCH  27  31
ATOM     31  C   UNL     1       4.578  14.618  19.720  0.00  0.00    +0.000 C 
ATOM     32  F   UNL     1       4.554  15.487  18.667  0.00  0.00    +0.000 F 
ATOM     33  F   UNL     1       5.733  14.872  20.391  0.00  0.00    +0.000 F 
ENDBRANCH  27  31
BRANCH  20  35
ATOM     34  N   UNL     1       1.808  13.057  17.984  0.00  0.00    +0.000 NA
ATOM     35  C   UNL     1       2.006  13.397  19.089  0.00  0.00    +0.000 C 
ENDBRANCH  20  35
ENDBRANCH   1  22
BRANCH   1  36
ATOM     36  C   UNL     1       0.233  10.596  22.328  0.00  0.00    +0.000 C 
ATOM     37  C   UNL     1      -1.028  10.502  23.165  0.00  0.00    +0.000 C 
ATOM     38  C   UNL     1      -0.575   9.299  22.385  0.00  0.00    +0.000 C 
ENDBRANCH   1  36
TORSDOF 5
ENDMDL
MODEL 4
REMARK VINA RESULT:      -7.3      8.749     11.283
REMARK  Name = 
REMARK  5 active torsions:
REMARK  status: ('A' for Active; 'I' for Inactive)
REMARK    1  A    between atoms: C_2  and  C_3
REMARK    2  A    between atoms: N_5  and  C_6
REMARK    3  A    between atoms: C_6  and  C_7
REMARK    4  A    between atoms: C_6  and  C_24
REMARK    5  A    between atoms: C_31  and  C_32
REMARK                            x       y       z     vdW  Elec       q    Type
REMARK                         _______ _______ _______ _____ _____    ______ ____
ROOT
ATOM      1  C   UNL     1      -0.231  10.582  19.130  0.00  0.00    +0.000 C 
ENDROOT
BRANCH   1   2
ATOM      2  C   UNL     1       0.687  11.790  19.534  0.00  0.00    +0.000 A 
ATOM      3  N   UNL     1       1.544  12.211  18.651  0.00  0.00    +0.000 NA
ATOM      4  C   UNL     1       2.376  13.291  18.954  0.00  0.00    +0.000 A 
ATOM      5  C   UNL     1       3.377  13.597  18.024  0.00  0.00    +0.000 A 
ATOM      6  C   UNL     1       4.298  14.609  18.268  0.00  0.00    +0.000 A 
ATOM      7  C   UNL     1       4.189  15.367  19.428  0.00  0.00    +0.000 A 
ATOM      8  C   UNL     1       3.181  15.090  20.364  0.00  0.00    +0.000 A 
ATOM      9 CL   UNL     1       3.169  16.115  21.759  0.00  0.00    +0.000 Cl
ATOM     10  C   UNL     1       2.286  14.025  20.140  0.00  0.00    +0.000 A 
ATOM     11  C   UNL     1       1.284  13.550  21.129  0.00  0.00    +0.000 A 
ATOM     12  O   UNL     1       1.201  14.100  22.224  0.00  0.00    +0.000 OA
ATOM     13  N   UNL     1       0.537  12.418  20.756  0.00  0.00    +0.000 N 
ATOM     14  C   UNL     1      -0.279  11.875  21.761  0.00  0.00    +0.000 A 
ATOM     15  C   UNL     1      -1.228  12.582  22.550  0.00  0.00    +0.000 A 
ATOM     16  C   UNL     1      -1.727  11.663  23.439  0.00  0.00    +0.000 A 
ATOM     17  N   UNL     1      -1.066  10.503  23.179  0.00  0.00    +0.000 N 
ATOM     18  N   UNL     1      -0.252  10.580  22.113  0.00  0.00    +0.000 NA
ATOM     19  H   UNL     1      -1.130   9.621  23.678  0.00  0.00    +0.000 HD
ENDBRANCH   1   2
BRANCH   1  22
ATOM     20  C   UNL     1      -3.125  11.339  18.098  0.00  0.00    +0.000 A 
ATOM     21  C   UNL     1      -2.064  10.874  17.350  0.00  0.00    +0.000 A 
ATOM     22  N   UNL     1      -0.733  10.825  17.756  0.00  0.00    +0.000 N 
ATOM     23  N   UNL     1      -2.281  10.492  16.073  0.00  0.00    +0.000 NA
ATOM     24  C   UNL     1      -3.536  10.457  15.620  0.00  0.00    +0.000 A 
ATOM     25  N   UNL     1      -3.757  10.404  14.248  0.00  0.00    +0.000 N 
ATOM     26  N   UNL     1      -4.620  10.617  16.373  0.00  0.00    +0.000 NA
ATOM     27  C   UNL     1      -4.396  11.027  17.658  0.00  0.00    +0.000 A 
ATOM     28  H   UNL     1      -0.194  10.322  17.047  0.00  0.00    +0.000 HD
ATOM     29  H   UNL     1      -2.964  10.823  13.770  0.00  0.00    +0.000 HD
ATOM     30  H   UNL     1      -4.651  10.839  14.048  0.00  0.00    +0.000 HD
BRANCH  27  31
ATOM     31  C   UNL     1      -5.596  11.136  18.556  0.00  0.00    +0.000 C 
ATOM     32  F   UNL     1      -6.129  12.392  18.540  0.00  0.00    +0.000 F 
ATOM     33  F   UNL     1      -6.607  10.294  18.212  0.00  0.00    +0.000 F 
ENDBRANCH  27  31
BRANCH  20  35
ATOM     34  N   UNL     1      -2.942  13.093  20.003  0.00  0.00    +0.000 NA
ATOM     35  C   UNL     1      -2.979  12.266  19.172  0.00  0.00    +0.000 C 
ENDBRANCH  20  35
ENDBRANCH   1  22
BRANCH   1  36
ATOM     36  C   UNL     1       0.444   9.220  19.200  0.00  0.00    +0.000 C 
ATOM     37  C   UNL     1       1.682   8.868  18.400  0.00  0.00    +0.000 C 
ATOM     38  C   UNL     1       1.769   8.918  19.899  0.00  0.00    +0.000 C 
ENDBRANCH   1  36
TORSDOF 5
ENDMDL
MODEL 5
REMARK VINA RESULT:      -7.3      9.644     11.705
REMARK  Name = 
REMARK  5 active torsions:
REMARK  status: ('A' for Active; 'I' for Inactive)
REMARK    1  A    between atoms: C_2  and  C_3
REMARK    2  A    between atoms: N_5  and  C_6
REMARK    3  A    between atoms: C_6  and  C_7
REMARK    4  A    between atoms: C_6  and  C_24
REMARK    5  A    between atoms: C_31  and  C_32
REMARK                            x       y       z     vdW  Elec       q    Type
REMARK                         _______ _______ _______ _____ _____    ______ ____
ROOT
ATOM      1  C   UNL     1      -0.460  11.423  19.581  0.00  0.00    +0.000 C 
ENDROOT
BRANCH   1   2
ATOM      2  C   UNL     1       0.588  12.549  19.893  0.00  0.00    +0.000 A 
ATOM      3  N   UNL     1       1.548  12.726  19.033  0.00  0.00    +0.000 NA
ATOM      4  C   UNL     1       2.500  13.724  19.254  0.00  0.00    +0.000 A 
ATOM      5  C   UNL     1       3.588  13.763  18.375  0.00  0.00    +0.000 A 
ATOM      6  C   UNL     1       4.623  14.674  18.554  0.00  0.00    +0.000 A 
ATOM      7  C   UNL     1       4.548  15.597  19.590  0.00  0.00    +0.000 A 
ATOM      8  C   UNL     1       3.456  15.588  20.471  0.00  0.00    +0.000 A 
ATOM      9 CL   UNL     1       3.500  16.795  21.711  0.00  0.00    +0.000 Cl
ATOM     10  C   UNL     1       2.438  14.625  20.321  0.00  0.00    +0.000 A 
ATOM     11  C   UNL     1       1.322  14.428  21.281  0.00  0.00    +0.000 A 
ATOM     12  O   UNL     1       1.248  15.136  22.282  0.00  0.00    +0.000 OA
ATOM     13  N   UNL     1       0.451  13.359  21.003  0.00  0.00    +0.000 N 
ATOM     14  C   UNL     1      -0.492  13.074  22.004  0.00  0.00    +0.000 A 
ATOM     15  C   UNL     1      -1.381  14.003  22.613  0.00  0.00    +0.000 A 
ATOM     16  C   UNL     1      -2.056  13.291  23.574  0.00  0.00    +0.000 A 
ATOM     17  N   UNL     1      -1.546  12.031  23.525  0.00  0.00    +0.000 N 
ATOM     18  N   UNL     1      -0.666  11.850  22.527  0.00  0.00    +0.000 NA
ATOM     19  H   UNL     1      -1.761  11.246  24.130  0.00  0.00    +0.000 HD
ENDBRANCH   1   2
BRANCH   1  22
ATOM     20  C   UNL     1      -3.370  11.532  18.342  0.00  0.00    +0.000 A 
ATOM     21  C   UNL     1      -2.180  11.340  17.671  0.00  0.00    +0.000 A 
ATOM     22  N   UNL     1      -0.906  11.584  18.177  0.00  0.00    +0.000 N 
ATOM     23  N   UNL     1      -2.213  10.956  16.378  0.00  0.00    +0.000 NA
ATOM     24  C   UNL     1      -3.391  10.649  15.830  0.00  0.00    +0.000 A 
ATOM     25  N   UNL     1      -3.495  10.586  14.445  0.00  0.00    +0.000 N 
ATOM     26  N   UNL     1      -4.533  10.537  16.500  0.00  0.00    +0.000 NA
ATOM     27  C   UNL     1      -4.502  10.952  17.803  0.00  0.00    +0.000 A 
ATOM     28  H   UNL     1      -0.217  11.237  17.505  0.00  0.00    +0.000 HD
ATOM     29  H   UNL     1      -2.787  11.188  14.033  0.00  0.00    +0.000 HD
ATOM     30  H   UNL     1      -4.449  10.812  14.182  0.00  0.00    +0.000 HD
BRANCH  27  31
ATOM     31  C   UNL     1      -5.755  10.760  18.609  0.00  0.00    +0.000 C 
ATOM     32  F   UNL     1      -6.858  11.217  17.947  0.00  0.00    +0.000 F 
ATOM     33  F   UNL     1      -6.010   9.459  18.911  0.00  0.00    +0.000 F 
ENDBRANCH  27  31
BRANCH  20  35
ATOM     34  N   UNL     1      -3.737  13.126  20.357  0.00  0.00    +0.000 NA
ATOM     35  C   UNL     1      -3.516  12.437  19.434  0.00  0.00    +0.000 C 
ENDBRANCH  20  35
ENDBRANCH   1  22
BRANCH   1  36
ATOM     36  C   UNL     1       0.045  10.005  19.804  0.00  0.00    +0.000 C 
ATOM     37  C   UNL     1       1.069   9.648  20.862  0.00  0.00    +0.000 C 
ATOM     38  C   UNL     1      -0.326   9.102  20.980  0.00  0.00    +0.000 C 
ENDBRANCH   1  36
TORSDOF 5
ENDMDL
MODEL 6
REMARK VINA RESULT:      -7.2     11.495     13.647
REMARK  Name = 
REMARK  5 active torsions:
REMARK  status: ('A' for Active; 'I' for Inactive)
REMARK    1  A    between atoms: C_2  and  C_3
REMARK    2  A    between atoms: N_5  and  C_6
REMARK    3  A    between atoms: C_6  and  C_7
REMARK    4  A    between atoms: C_6  and  C_24
REMARK    5  A    between atoms: C_31  and  C_32
REMARK                            x       y       z     vdW  Elec       q    Type
REMARK                         _______ _______ _______ _____ _____    ______ ____
ROOT
ATOM      1  C   UNL     1      -2.547  13.627  21.207  0.00  0.00    +0.000 C 
ENDROOT
BRANCH   1   2
ATOM      2  C   UNL     1      -1.315  14.214  20.431  0.00  0.00    +0.000 A 
ATOM      3  N   UNL     1      -0.431  13.369  19.988  0.00  0.00    +0.000 NA
ATOM      4  C   UNL     1       0.678  13.836  19.279  0.00  0.00    +0.000 A 
ATOM      5  C   UNL     1       1.666  12.896  18.963  0.00  0.00    +0.000 A 
ATOM      6  C   UNL     1       2.840  13.277  18.322  0.00  0.00    +0.000 A 
ATOM      7  C   UNL     1       3.009  14.602  17.938  0.00  0.00    +0.000 A 
ATOM      8  C   UNL     1       2.023  15.556  18.228  0.00  0.00    +0.000 A 
ATOM      9 CL   UNL     1       2.373  17.164  17.691  0.00  0.00    +0.000 Cl
ATOM     10  C   UNL     1       0.862  15.177  18.930  0.00  0.00    +0.000 A 
ATOM     11  C   UNL     1      -0.170  16.128  19.420  0.00  0.00    +0.000 A 
ATOM     12  O   UNL     1      -0.035  17.331  19.215  0.00  0.00    +0.000 OA
ATOM     13  N   UNL     1      -1.215  15.568  20.176  0.00  0.00    +0.000 N 
ATOM     14  C   UNL     1      -2.086  16.490  20.779  0.00  0.00    +0.000 A 
ATOM     15  C   UNL     1      -2.759  17.563  20.129  0.00  0.00    +0.000 A 
ATOM     16  C   UNL     1      -3.433  18.230  21.122  0.00  0.00    +0.000 A 
ATOM     17  N   UNL     1      -3.127  17.579  22.276  0.00  0.00    +0.000 N 
ATOM     18  N   UNL     1      -2.389  16.473  22.086  0.00  0.00    +0.000 NA
ATOM     19  H   UNL     1      -3.396  17.826  23.223  0.00  0.00    +0.000 HD
ENDBRANCH   1   2
BRANCH   1  22
ATOM     20  C   UNL     1      -5.663  13.228  21.589  0.00  0.00    +0.000 A 
ATOM     21  C   UNL     1      -4.902  12.881  20.492  0.00  0.00    +0.000 A 
ATOM     22  N   UNL     1      -3.609  13.320  20.219  0.00  0.00    +0.000 N 
ATOM     23  N   UNL     1      -5.453  12.108  19.532  0.00  0.00    +0.000 NA
ATOM     24  C   UNL     1      -6.670  11.600  19.739  0.00  0.00    +0.000 A 
ATOM     25  N   UNL     1      -7.385  11.100  18.656  0.00  0.00    +0.000 N 
ATOM     26  N   UNL     1      -7.332  11.660  20.889  0.00  0.00    +0.000 NA
ATOM     27  C   UNL     1      -6.784  12.464  21.850  0.00  0.00    +0.000 A 
ATOM     28  H   UNL     1      -3.255  12.806  19.409  0.00  0.00    +0.000 HD
ATOM     29  H   UNL     1      -7.072  11.569  17.810  0.00  0.00    +0.000 HD
ATOM     30  H   UNL     1      -8.376  11.195  18.852  0.00  0.00    +0.000 HD
BRANCH  27  31
ATOM     31  C   UNL     1      -7.466  12.487  23.188  0.00  0.00    +0.000 C 
ATOM     32  F   UNL     1      -6.631  12.085  24.190  0.00  0.00    +0.000 F 
ATOM     33  F   UNL     1      -7.914  13.720  23.545  0.00  0.00    +0.000 F 
ENDBRANCH  27  31
BRANCH  20  35
ATOM     34  N   UNL     1      -5.398  15.439  22.921  0.00  0.00    +0.000 NA
ATOM     35  C   UNL     1      -5.458  14.424  22.338  0.00  0.00    +0.000 C 
ENDBRANCH  20  35
ENDBRANCH   1  22
BRANCH   1  36
ATOM     36  C   UNL     1      -2.244  12.390  22.040  0.00  0.00    +0.000 C 
ATOM     37  C   UNL     1      -1.274  12.394  23.205  0.00  0.00    +0.000 C 
ATOM     38  C   UNL     1      -2.732  12.136  23.466  0.00  0.00    +0.000 C 
ENDBRANCH   1  36
TORSDOF 5
ENDMDL
MODEL 7
REMARK VINA RESULT:      -7.2      9.829     12.452
REMARK  Name = 
REMARK  5 active torsions:
REMARK  status: ('A' for Active; 'I' for Inactive)
REMARK    1  A    between atoms: C_2  and  C_3
REMARK    2  A    between atoms: N_5  and  C_6
REMARK    3  A    between atoms: C_6  and  C_7
REMARK    4  A    between atoms: C_6  and  C_24
REMARK    5  A    between atoms: C_31  and  C_32
REMARK                            x       y       z     vdW  Elec       q    Type
REMARK                         _______ _______ _______ _____ _____    ______ ____
ROOT
ATOM      1  C   UNL     1      -1.092  11.481  20.345  0.00  0.00    +0.000 C 
ENDROOT
BRANCH   1   2
ATOM      2  C   UNL     1      -0.152  12.632  20.853  0.00  0.00    +0.000 A 
ATOM      3  N   UNL     1       0.956  12.829  20.201  0.00  0.00    +0.000 NA
ATOM      4  C   UNL     1       1.822  13.849  20.601  0.00  0.00    +0.000 A 
ATOM      5  C   UNL     1       3.063  13.911  19.957  0.00  0.00    +0.000 A 
ATOM      6  C   UNL     1       4.021  14.847  20.333  0.00  0.00    +0.000 A 
ATOM      7  C   UNL     1       3.720  15.770  21.327  0.00  0.00    +0.000 A 
ATOM      8  C   UNL     1       2.474  15.738  21.972  0.00  0.00    +0.000 A 
ATOM      9 CL   UNL     1       2.242  16.948  23.188  0.00  0.00    +0.000 Cl
ATOM     10  C   UNL     1       1.529  14.751  21.628  0.00  0.00    +0.000 A 
ATOM     11  C   UNL     1       0.247  14.531  22.346  0.00  0.00    +0.000 A 
ATOM     12  O   UNL     1      -0.041  15.238  23.308  0.00  0.00    +0.000 OA
ATOM     13  N   UNL     1      -0.526  13.441  21.908  0.00  0.00    +0.000 N 
ATOM     14  C   UNL     1      -1.644  13.136  22.701  0.00  0.00    +0.000 A 
ATOM     15  C   UNL     1      -2.657  14.046  23.114  0.00  0.00    +0.000 A 
ATOM     16  C   UNL     1      -3.494  13.321  23.926  0.00  0.00    +0.000 A 
ATOM     17  N   UNL     1      -2.957  12.073  23.988  0.00  0.00    +0.000 N 
ATOM     18  N   UNL     1      -1.891  11.910  23.188  0.00  0.00    +0.000 NA
ATOM     19  H   UNL     1      -3.272  11.284  24.544  0.00  0.00    +0.000 HD
ENDBRANCH   1   2
BRANCH   1  22
ATOM     20  C   UNL     1      -3.726  11.698  18.606  0.00  0.00    +0.000 A 
ATOM     21  C   UNL     1      -2.445  11.449  18.159  0.00  0.00    +0.000 A 
ATOM     22  N   UNL     1      -1.272  11.644  18.883  0.00  0.00    +0.000 N 
ATOM     23  N   UNL     1      -2.264  11.051  16.882  0.00  0.00    +0.000 NA
ATOM     24  C   UNL     1      -3.338  10.788  16.134  0.00  0.00    +0.000 A 
ATOM     25  N   UNL     1      -3.196  10.714  14.753  0.00  0.00    +0.000 N 
ATOM     26  N   UNL     1      -4.585  10.732  16.590  0.00  0.00    +0.000 NA
ATOM     27  C   UNL     1      -4.768  11.160  17.876  0.00  0.00    +0.000 A 
ATOM     28  H   UNL     1      -0.490  11.261  18.347  0.00  0.00    +0.000 HD
ATOM     29  H   UNL     1      -2.401  11.280  14.472  0.00  0.00    +0.000 HD
ATOM     30  H   UNL     1      -4.077  10.976  14.323  0.00  0.00    +0.000 HD
BRANCH  27  31
ATOM     31  C   UNL     1      -6.152  11.030  18.445  0.00  0.00    +0.000 C 
ATOM     32  F   UNL     1      -7.095  11.565  17.615  0.00  0.00    +0.000 F 
ATOM     33  F   UNL     1      -6.529   9.742  18.663  0.00  0.00    +0.000 F 
ENDBRANCH  27  31
BRANCH  20  35
ATOM     34  N   UNL     1      -4.340  13.437  20.433  0.00  0.00    +0.000 NA
ATOM     35  C   UNL     1      -4.025  12.621  19.651  0.00  0.00    +0.000 C 
ENDBRANCH  20  35
ENDBRANCH   1  22
BRANCH   1  36
ATOM     36  C   UNL     1      -0.597  10.075  20.651  0.00  0.00    +0.000 C 
ATOM     37  C   UNL     1       0.692   9.510  20.086  0.00  0.00    +0.000 C 
ATOM     38  C   UNL     1       0.574   9.724  21.569  0.00  0.00    +0.000 C 
ENDBRANCH   1  36
TORSDOF 5
ENDMDL
MODEL 8
REMARK VINA RESULT:      -7.2     10.124     13.048
REMARK  Name = 
REMARK  5 active torsions:
REMARK  status: ('A' for Active; 'I' for Inactive)
REMARK    1  A    between atoms: C_2  and  C_3
REMARK    2  A    between atoms: N_5  and  C_6
REMARK    3  A    between atoms: C_6  and  C_7
REMARK    4  A    between atoms: C_6  and  C_24
REMARK    5  A    between atoms: C_31  and  C_32
REMARK                            x       y       z     vdW  Elec       q    Type
REMARK                         _______ _______ _______ _____ _____    ______ ____
ROOT
ATOM      1  C   UNL     1       0.075  11.499  20.405  0.00  0.00    +0.000 C 
ENDROOT
BRANCH   1   2
ATOM      2  C   UNL     1      -1.403  11.884  20.770  0.00  0.00    +0.000 A 
ATOM      3  N   UNL     1      -1.629  12.307  21.978  0.00  0.00    +0.000 NA
ATOM      4  C   UNL     1      -2.923  12.676  22.351  0.00  0.00    +0.000 A 
ATOM      5  C   UNL     1      -3.128  12.976  23.703  0.00  0.00    +0.000 A 
ATOM      6  C   UNL     1      -4.395  13.285  24.185  0.00  0.00    +0.000 A 
ATOM      7  C   UNL     1      -5.465  13.353  23.301  0.00  0.00    +0.000 A 
ATOM      8  C   UNL     1      -5.277  13.075  21.938  0.00  0.00    +0.000 A 
ATOM      9 CL   UNL     1      -6.699  13.197  20.959  0.00  0.00    +0.000 Cl
ATOM     10  C   UNL     1      -4.003  12.704  21.464  0.00  0.00    +0.000 A 
ATOM     11  C   UNL     1      -3.724  12.244  20.080  0.00  0.00    +0.000 A 
ATOM     12  O   UNL     1      -4.642  12.171  19.267  0.00  0.00    +0.000 OA
ATOM     13  N   UNL     1      -2.404  11.836  19.819  0.00  0.00    +0.000 N 
ATOM     14  C   UNL     1      -2.193  11.242  18.565  0.00  0.00    +0.000 A 
ATOM     15  C   UNL     1      -2.569  11.780  17.302  0.00  0.00    +0.000 A 
ATOM     16  C   UNL     1      -2.228  10.825  16.377  0.00  0.00    +0.000 A 
ATOM     17  N   UNL     1      -1.713   9.788  17.091  0.00  0.00    +0.000 N 
ATOM     18  N   UNL     1      -1.597  10.049  18.404  0.00  0.00    +0.000 NA
ATOM     19  H   UNL     1      -1.410   8.882  16.749  0.00  0.00    +0.000 HD
ENDBRANCH   1   2
BRANCH   1  22
ATOM     20  C   UNL     1       1.807  14.018  19.588  0.00  0.00    +0.000 A 
ATOM     21  C   UNL     1       1.925  13.255  20.731  0.00  0.00    +0.000 A 
ATOM     22  N   UNL     1       0.984  12.347  21.211  0.00  0.00    +0.000 N 
ATOM     23  N   UNL     1       3.001  13.431  21.527  0.00  0.00    +0.000 NA
ATOM     24  C   UNL     1       3.977  14.243  21.116  0.00  0.00    +0.000 A 
ATOM     25  N   UNL     1       4.909  14.702  22.040  0.00  0.00    +0.000 N 
ATOM     26  N   UNL     1       4.056  14.780  19.902  0.00  0.00    +0.000 NA
ATOM     27  C   UNL     1       2.954  14.621  19.108  0.00  0.00    +0.000 A 
ATOM     28  H   UNL     1       1.392  11.843  22.002  0.00  0.00    +0.000 HD
ATOM     29  H   UNL     1       4.483  14.704  22.963  0.00  0.00    +0.000 HD
ATOM     30  H   UNL     1       5.255  15.603  21.730  0.00  0.00    +0.000 HD
BRANCH  27  31
ATOM     31  C   UNL     1       3.046  15.146  17.703  0.00  0.00    +0.000 C 
ATOM     32  F   UNL     1       2.587  16.427  17.609  0.00  0.00    +0.000 F 
ATOM     33  F   UNL     1       4.315  15.164  17.215  0.00  0.00    +0.000 F 
ENDBRANCH  27  31
BRANCH  20  35
ATOM     34  N   UNL     1      -0.451  14.563  18.432  0.00  0.00    +0.000 NA
ATOM     35  C   UNL     1       0.555  14.360  19.000  0.00  0.00    +0.000 C 
ENDBRANCH  20  35
ENDBRANCH   1  22
BRANCH   1  36
ATOM     36  C   UNL     1       0.419  10.031  20.612  0.00  0.00    +0.000 C 
ATOM     37  C   UNL     1       1.164   9.519  21.829  0.00  0.00    +0.000 C 
ATOM     38  C   UNL     1      -0.259   9.090  21.607  0.00  0.00    +0.000 C 
ENDBRANCH   1  36
TORSDOF 5
ENDMDL
MODEL 9
REMARK VINA RESULT:      -7.2      9.498     11.947
REMARK  Name = 
REMARK  5 active torsions:
REMARK  status: ('A' for Active; 'I' for Inactive)
REMARK    1  A    between atoms: C_2  and  C_3
REMARK    2  A    between atoms: N_5  and  C_6
REMARK    3  A    between atoms: C_6  and  C_7
REMARK    4  A    between atoms: C_6  and  C_24
REMARK    5  A    between atoms: C_31  and  C_32
REMARK                            x       y       z     vdW  Elec       q    Type
REMARK                         _______ _______ _______ _____ _____    ______ ____
ROOT
ATOM      1  C   UNL     1      -0.593  12.264  21.623  0.00  0.00    +0.000 C 
ENDROOT
BRANCH   1   2
ATOM      2  C   UNL     1       0.667  12.941  20.976  0.00  0.00    +0.000 A 
ATOM      3  N   UNL     1       1.211  13.930  21.621  0.00  0.00    +0.000 NA
ATOM      4  C   UNL     1       2.343  14.559  21.098  0.00  0.00    +0.000 A 
ATOM      5  C   UNL     1       2.787  15.710  21.760  0.00  0.00    +0.000 A 
ATOM      6  C   UNL     1       3.862  16.446  21.275  0.00  0.00    +0.000 A 
ATOM      7  C   UNL     1       4.542  16.001  20.148  0.00  0.00    +0.000 A 
ATOM      8  C   UNL     1       4.125  14.838  19.481  0.00  0.00    +0.000 A 
ATOM      9 CL   UNL     1       5.066  14.408  18.093  0.00  0.00    +0.000 Cl
ATOM     10  C   UNL     1       2.998  14.129  19.941  0.00  0.00    +0.000 A 
ATOM     11  C   UNL     1       2.382  12.980  19.229  0.00  0.00    +0.000 A 
ATOM     12  O   UNL     1       2.861  12.596  18.165  0.00  0.00    +0.000 OA
ATOM     13  N   UNL     1       1.210  12.455  19.803  0.00  0.00    +0.000 N 
ATOM     14  C   UNL     1       0.542  11.489  19.033  0.00  0.00    +0.000 A 
ATOM     15  C   UNL     1       1.117  10.320  18.462  0.00  0.00    +0.000 A 
ATOM     16  C   UNL     1       0.109   9.725  17.744  0.00  0.00    +0.000 A 
ATOM     17  N   UNL     1      -0.971  10.540  17.883  0.00  0.00    +0.000 N 
ATOM     18  N   UNL     1      -0.763  11.563  18.728  0.00  0.00    +0.000 NA
ATOM     19  H   UNL     1      -1.881  10.452  17.442  0.00  0.00    +0.000 HD
ENDBRANCH   1   2
BRANCH   1  22
ATOM     20  C   UNL     1      -3.506  13.091  22.542  0.00  0.00    +0.000 A 
ATOM     21  C   UNL     1      -3.099  12.725  21.276  0.00  0.00    +0.000 A 
ATOM     22  N   UNL     1      -1.783  12.649  20.827  0.00  0.00    +0.000 N 
ATOM     23  N   UNL     1      -4.034  12.483  20.332  0.00  0.00    +0.000 NA
ATOM     24  C   UNL     1      -5.320  12.482  20.690  0.00  0.00    +0.000 A 
ATOM     25  N   UNL     1      -6.295  12.577  19.704  0.00  0.00    +0.000 N 
ATOM     26  N   UNL     1      -5.759  12.543  21.943  0.00  0.00    +0.000 NA
ATOM     27  C   UNL     1      -4.813  12.812  22.893  0.00  0.00    +0.000 A 
ATOM     28  H   UNL     1      -1.780  12.235  19.892  0.00  0.00    +0.000 HD
ATOM     29  H   UNL     1      -5.903  13.057  18.898  0.00  0.00    +0.000 HD
ATOM     30  H   UNL     1      -7.116  13.019  20.103  0.00  0.00    +0.000 HD
BRANCH  27  31
ATOM     31  C   UNL     1      -5.265  12.805  24.325  0.00  0.00    +0.000 C 
ATOM     32  F   UNL     1      -6.589  12.494  24.438  0.00  0.00    +0.000 F 
ATOM     33  F   UNL     1      -4.600  11.906  25.098  0.00  0.00    +0.000 F 
ENDBRANCH  27  31
BRANCH  20  35
ATOM     34  N   UNL     1      -2.083  14.473  24.215  0.00  0.00    +0.000 NA
ATOM     35  C   UNL     1      -2.717  13.895  23.415  0.00  0.00    +0.000 C 
ENDBRANCH  20  35
ENDBRANCH   1  22
BRANCH   1  36
ATOM     36  C   UNL     1      -0.514  10.748  21.732  0.00  0.00    +0.000 C 
ATOM     37  C   UNL     1       0.654  10.024  22.372  0.00  0.00    +0.000 C 
ATOM     38  C   UNL     1      -0.702   9.937  23.015  0.00  0.00    +0.000 C 
ENDBRANCH   1  36
TORSDOF 5
ENDMDL
