MODEL 1
REMARK VINA RESULT:      -8.6      0.000      0.000
REMARK  Name = 
REMARK  10 active torsions:
REMARK  status: ('A' for Active; 'I' for Inactive)
REMARK    1  A    between atoms: C_1  and  C_2
REMARK    2  A    between atoms: C_2  and  C_3
REMARK    3  A    between atoms: C_3  and  C_4
REMARK    4  A    between atoms: C_4  and  C_5
REMARK    5  A    between atoms: C_4  and  N_21
REMARK    6  A    between atoms: N_9  and  C_10
REMARK    7  A    between atoms: C_10  and  S_11
REMARK    8  A    between atoms: S_11  and  C_14
REMARK    9  A    between atoms: C_17  and  C_18
REMARK   10  A    between atoms: N_24  and  C_25
REMARK                            x       y       z     vdW  Elec       q    Type
REMARK                         _______ _______ _______ _____ _____    ______ ____
ROOT
ATOM      1  C   UNL     1       2.507   5.819  19.776  0.00  0.00    +0.000 C 
ENDROOT
BRANCH   1   2
ATOM      2  N   UNL     1       1.772   7.083  19.438  0.00  0.00    +0.000 NA
ATOM      3  C   UNL     1       1.431   7.926  20.619  0.00  0.00    +0.000 C 
ATOM      4  C   UNL     1       1.077   9.437  20.462  0.00  0.00    +0.000 C 
ATOM      5  N   UNL     1       0.842   9.777  19.066  0.00  0.00    +0.000 N 
ATOM      6  C   UNL     1       1.935   9.355  18.192  0.00  0.00    +0.000 C 
ATOM      7  C   UNL     1       2.149   7.822  18.226  0.00  0.00    +0.000 C 
BRANCH   5   8
ATOM      8  C   UNL     1      -0.346  10.282  18.593  0.00  0.00    +0.000 A 
ATOM      9  C   UNL     1      -0.948  11.413  19.172  0.00  0.00    +0.000 A 
ATOM     10  C   UNL     1      -2.129  11.966  18.660  0.00  0.00    +0.000 A 
ATOM     11  C   UNL     1      -2.743  11.373  17.566  0.00  0.00    +0.000 A 
ATOM     12  F   UNL     1      -3.872  11.899  17.070  0.00  0.00    +0.000 F 
ATOM     13  C   UNL     1      -2.196  10.245  16.981  0.00  0.00    +0.000 A 
ATOM     14  C   UNL     1      -1.006   9.711  17.492  0.00  0.00    +0.000 A 
ENDBRANCH   5   8
ENDBRANCH   1   2
BRANCH   1  15
ATOM     15  C   UNL     1       2.632   4.787  18.651  0.00  0.00    +0.000 A 
ATOM     16  N   UNL     1       1.576   4.505  17.892  0.00  0.00    +0.000 NA
ATOM     17  N   UNL     1       1.906   3.479  17.075  0.00  0.00    +0.000 NA
ATOM     18  N   UNL     1       3.159   3.120  17.272  0.00  0.00    +0.000 NA
ATOM     19  N   UNL     1       3.665   3.999  18.164  0.00  0.00    +0.000 N 
BRANCH  19  20
ATOM     20  C   UNL     1       5.049   3.785  18.493  0.00  0.00    +0.000 C 
BRANCH  20  21
ATOM     21  S   UNL     1       6.265   4.872  17.777  0.00  0.00    +0.000 S 
ATOM     22  O   UNL     1       5.770   6.227  17.951  0.00  0.00    +0.000 OA
ATOM     23  O   UNL     1       7.553   4.521  18.351  0.00  0.00    +0.000 OA
BRANCH  21  24
ATOM     24  C   UNL     1       6.448   4.625  16.015  0.00  0.00    +0.000 A 
ATOM     25  C   UNL     1       7.398   5.389  15.324  0.00  0.00    +0.000 A 
ATOM     26  C   UNL     1       7.587   5.211  13.950  0.00  0.00    +0.000 A 
ATOM     27  C   UNL     1       6.839   4.259  13.250  0.00  0.00    +0.000 A 
ATOM     28  C   UNL     1       6.970   4.150  11.756  0.00  0.00    +0.000 C 
ATOM     29  C   UNL     1       5.917   3.469  13.957  0.00  0.00    +0.000 A 
ATOM     30  C   UNL     1       5.737   3.631  15.337  0.00  0.00    +0.000 A 
ENDBRANCH  21  24
ENDBRANCH  20  21
ENDBRANCH  19  20
ENDBRANCH   1  15
BRANCH   1  31
ATOM     31  C   UNL     1       1.976   5.310  21.127  0.00  0.00    +0.000 C 
BRANCH  31  33
ATOM     32  C   UNL     1       1.237   2.940  21.260  0.00  0.00    +0.000 C 
ATOM     33  C   UNL     1       2.395   3.899  21.526  0.00  0.00    +0.000 C 
ENDBRANCH  31  33
ENDBRANCH   1  31
TORSDOF 8
ENDMDL
MODEL 2
REMARK VINA RESULT:      -8.6      2.026      2.938
REMARK  Name = 
REMARK  10 active torsions:
REMARK  status: ('A' for Active; 'I' for Inactive)
REMARK    1  A    between atoms: C_1  and  C_2
REMARK    2  A    between atoms: C_2  and  C_3
REMARK    3  A    between atoms: C_3  and  C_4
REMARK    4  A    between atoms: C_4  and  C_5
REMARK    5  A    between atoms: C_4  and  N_21
REMARK    6  A    between atoms: N_9  and  C_10
REMARK    7  A    between atoms: C_10  and  S_11
REMARK    8  A    between atoms: S_11  and  C_14
REMARK    9  A    between atoms: C_17  and  C_18
REMARK   10  A    between atoms: N_24  and  C_25
REMARK                            x       y       z     vdW  Elec       q    Type
REMARK                         _______ _______ _______ _____ _____    ______ ____
ROOT
ATOM      1  C   UNL     1       2.565   5.736  19.721  0.00  0.00    +0.000 C 
ENDROOT
BRANCH   1   2
ATOM      2  N   UNL     1       1.821   7.006  19.430  0.00  0.00    +0.000 NA
ATOM      3  C   UNL     1       1.486   7.809  20.639  0.00  0.00    +0.000 C 
ATOM      4  C   UNL     1       1.123   9.322  20.533  0.00  0.00    +0.000 C 
ATOM      5  N   UNL     1       0.874   9.705  19.150  0.00  0.00    +0.000 N 
ATOM      6  C   UNL     1       1.962   9.316  18.254  0.00  0.00    +0.000 C 
ATOM      7  C   UNL     1       2.183   7.784  18.238  0.00  0.00    +0.000 C 
BRANCH   5   8
ATOM      8  C   UNL     1      -0.320  10.218  18.704  0.00  0.00    +0.000 A 
ATOM      9  C   UNL     1      -0.982  11.250  19.393  0.00  0.00    +0.000 A 
ATOM     10  C   UNL     1      -2.171  11.816  18.913  0.00  0.00    +0.000 A 
ATOM     11  C   UNL     1      -2.731  11.335  17.740  0.00  0.00    +0.000 A 
ATOM     12  F   UNL     1      -3.867  11.874  17.274  0.00  0.00    +0.000 F 
ATOM     13  C   UNL     1      -2.124  10.306  17.043  0.00  0.00    +0.000 A 
ATOM     14  C   UNL     1      -0.927   9.759  17.523  0.00  0.00    +0.000 A 
ENDBRANCH   5   8
ENDBRANCH   1   2
BRANCH   1  15
ATOM     15  C   UNL     1       2.718   4.757  18.553  0.00  0.00    +0.000 A 
ATOM     16  N   UNL     1       1.636   4.291  17.934  0.00  0.00    +0.000 NA
ATOM     17  N   UNL     1       2.032   3.354  17.043  0.00  0.00    +0.000 NA
ATOM     18  N   UNL     1       3.344   3.233  17.055  0.00  0.00    +0.000 NA
ATOM     19  N   UNL     1       3.800   4.182  17.901  0.00  0.00    +0.000 N 
BRANCH  19  20
ATOM     20  C   UNL     1       5.232   4.227  18.031  0.00  0.00    +0.000 C 
BRANCH  20  21
ATOM     21  S   UNL     1       6.163   5.118  16.803  0.00  0.00    +0.000 S 
ATOM     22  O   UNL     1       7.183   4.208  16.308  0.00  0.00    +0.000 OA
ATOM     23  O   UNL     1       5.211   5.680  15.859  0.00  0.00    +0.000 OA
BRANCH  21  24
ATOM     24  C   UNL     1       7.033   6.521  17.491  0.00  0.00    +0.000 A 
ATOM     25  C   UNL     1       7.843   6.325  18.618  0.00  0.00    +0.000 A 
ATOM     26  C   UNL     1       8.556   7.392  19.173  0.00  0.00    +0.000 A 
ATOM     27  C   UNL     1       8.481   8.667  18.602  0.00  0.00    +0.000 A 
ATOM     28  C   UNL     1       9.163   9.829  19.268  0.00  0.00    +0.000 C 
ATOM     29  C   UNL     1       7.699   8.847  17.448  0.00  0.00    +0.000 A 
ATOM     30  C   UNL     1       6.997   7.777  16.879  0.00  0.00    +0.000 A 
ENDBRANCH  21  24
ENDBRANCH  20  21
ENDBRANCH  19  20
ENDBRANCH   1  15
BRANCH   1  31
ATOM     31  C   UNL     1       2.020   5.159  21.039  0.00  0.00    +0.000 C 
BRANCH  31  33
ATOM     32  C   UNL     1       1.257   2.830  21.451  0.00  0.00    +0.000 C 
ATOM     33  C   UNL     1       2.475   3.749  21.396  0.00  0.00    +0.000 C 
ENDBRANCH  31  33
ENDBRANCH   1  31
TORSDOF 8
ENDMDL
MODEL 3
REMARK VINA RESULT:      -8.6      0.415      1.232
REMARK  Name = 
REMARK  10 active torsions:
REMARK  status: ('A' for Active; 'I' for Inactive)
REMARK    1  A    between atoms: C_1  and  C_2
REMARK    2  A    between atoms: C_2  and  C_3
REMARK    3  A    between atoms: C_3  and  C_4
REMARK    4  A    between atoms: C_4  and  C_5
REMARK    5  A    between atoms: C_4  and  N_21
REMARK    6  A    between atoms: N_9  and  C_10
REMARK    7  A    between atoms: C_10  and  S_11
REMARK    8  A    between atoms: S_11  and  C_14
REMARK    9  A    between atoms: C_17  and  C_18
REMARK   10  A    between atoms: N_24  and  C_25
REMARK                            x       y       z     vdW  Elec       q    Type
REMARK                         _______ _______ _______ _____ _____    ______ ____
ROOT
ATOM      1  C   UNL     1       2.562   5.830  19.716  0.00  0.00    +0.000 C 
ENDROOT
BRANCH   1   2
ATOM      2  N   UNL     1       1.862   7.104  19.343  0.00  0.00    +0.000 NA
ATOM      3  C   UNL     1       1.506   7.968  20.504  0.00  0.00    +0.000 C 
ATOM      4  C   UNL     1       1.187   9.483  20.319  0.00  0.00    +0.000 C 
ATOM      5  N   UNL     1       0.997   9.810  18.913  0.00  0.00    +0.000 N 
ATOM      6  C   UNL     1       2.104   9.356  18.075  0.00  0.00    +0.000 C 
ATOM      7  C   UNL     1       2.287   7.820  18.133  0.00  0.00    +0.000 C 
BRANCH   5   8
ATOM      8  C   UNL     1      -0.167  10.333  18.401  0.00  0.00    +0.000 A 
ATOM      9  C   UNL     1      -1.015   9.573  17.575  0.00  0.00    +0.000 A 
ATOM     10  C   UNL     1      -2.230  10.080  17.096  0.00  0.00    +0.000 A 
ATOM     11  C   UNL     1      -2.604  11.376  17.419  0.00  0.00    +0.000 A 
ATOM     12  F   UNL     1      -3.766  11.866  16.965  0.00  0.00    +0.000 F 
ATOM     13  C   UNL     1      -1.788  12.165  18.210  0.00  0.00    +0.000 A 
ATOM     14  C   UNL     1      -0.584  11.642  18.697  0.00  0.00    +0.000 A 
ENDBRANCH   5   8
ENDBRANCH   1   2
BRANCH   1  15
ATOM     15  C   UNL     1       2.761   4.812  18.590  0.00  0.00    +0.000 A 
ATOM     16  N   UNL     1       1.708   4.351  17.921  0.00  0.00    +0.000 NA
ATOM     17  N   UNL     1       2.133   3.377  17.084  0.00  0.00    +0.000 NA
ATOM     18  N   UNL     1       3.439   3.227  17.180  0.00  0.00    +0.000 NA
ATOM     19  N   UNL     1       3.866   4.192  18.023  0.00  0.00    +0.000 N 
BRANCH  19  20
ATOM     20  C   UNL     1       5.289   4.209  18.238  0.00  0.00    +0.000 C 
BRANCH  20  21
ATOM     21  S   UNL     1       6.268   5.377  17.319  0.00  0.00    +0.000 S 
ATOM     22  O   UNL     1       5.523   6.626  17.301  0.00  0.00    +0.000 OA
ATOM     23  O   UNL     1       7.604   5.370  17.891  0.00  0.00    +0.000 OA
BRANCH  21  24
ATOM     24  C   UNL     1       6.481   4.895  15.610  0.00  0.00    +0.000 A 
ATOM     25  C   UNL     1       5.505   4.085  15.013  0.00  0.00    +0.000 A 
ATOM     26  C   UNL     1       5.625   3.703  13.673  0.00  0.00    +0.000 A 
ATOM     27  C   UNL     1       6.712   4.137  12.907  0.00  0.00    +0.000 A 
ATOM     28  C   UNL     1       6.889   3.634  11.502  0.00  0.00    +0.000 C 
ATOM     29  C   UNL     1       7.665   4.981  13.501  0.00  0.00    +0.000 A 
ATOM     30  C   UNL     1       7.540   5.380  14.839  0.00  0.00    +0.000 A 
ENDBRANCH  21  24
ENDBRANCH  20  21
ENDBRANCH  19  20
ENDBRANCH   1  15
BRANCH   1  31
ATOM     31  C   UNL     1       1.931   5.307  21.018  0.00  0.00    +0.000 C 
BRANCH  31  33
ATOM     32  C   UNL     1       1.259   2.934  21.323  0.00  0.00    +0.000 C 
ATOM     33  C   UNL     1       2.400   3.935  21.489  0.00  0.00    +0.000 C 
ENDBRANCH  31  33
ENDBRANCH   1  31
TORSDOF 8
ENDMDL
MODEL 4
REMARK VINA RESULT:      -8.5      2.018      2.947
REMARK  Name = 
REMARK  10 active torsions:
REMARK  status: ('A' for Active; 'I' for Inactive)
REMARK    1  A    between atoms: C_1  and  C_2
REMARK    2  A    between atoms: C_2  and  C_3
REMARK    3  A    between atoms: C_3  and  C_4
REMARK    4  A    between atoms: C_4  and  C_5
REMARK    5  A    between atoms: C_4  and  N_21
REMARK    6  A    between atoms: N_9  and  C_10
REMARK    7  A    between atoms: C_10  and  S_11
REMARK    8  A    between atoms: S_11  and  C_14
REMARK    9  A    between atoms: C_17  and  C_18
REMARK   10  A    between atoms: N_24  and  C_25
REMARK                            x       y       z     vdW  Elec       q    Type
REMARK                         _______ _______ _______ _____ _____    ______ ____
ROOT
ATOM      1  C   UNL     1       2.475   5.622  19.621  0.00  0.00    +0.000 C 
ENDROOT
BRANCH   1   2
ATOM      2  N   UNL     1       1.801   6.928  19.321  0.00  0.00    +0.000 NA
ATOM      3  C   UNL     1       1.488   7.746  20.527  0.00  0.00    +0.000 C 
ATOM      4  C   UNL     1       1.203   9.276  20.418  0.00  0.00    +0.000 C 
ATOM      5  N   UNL     1       0.996   9.672  19.032  0.00  0.00    +0.000 N 
ATOM      6  C   UNL     1       2.076   9.230  18.153  0.00  0.00    +0.000 C 
ATOM      7  C   UNL     1       2.221   7.689  18.137  0.00  0.00    +0.000 C 
BRANCH   5   8
ATOM      8  C   UNL     1      -0.164  10.246  18.568  0.00  0.00    +0.000 A 
ATOM      9  C   UNL     1      -0.903   9.668  17.519  0.00  0.00    +0.000 A 
ATOM     10  C   UNL     1      -2.114  10.217  17.079  0.00  0.00    +0.000 A 
ATOM     11  C   UNL     1      -2.594  11.376  17.670  0.00  0.00    +0.000 A 
ATOM     12  F   UNL     1      -3.754  11.904  17.254  0.00  0.00    +0.000 F 
ATOM     13  C   UNL     1      -1.887  11.988  18.689  0.00  0.00    +0.000 A 
ATOM     14  C   UNL     1      -0.685  11.422  19.133  0.00  0.00    +0.000 A 
ENDBRANCH   5   8
ENDBRANCH   1   2
BRANCH   1  15
ATOM     15  C   UNL     1       2.517   4.603  18.479  0.00  0.00    +0.000 A 
ATOM     16  N   UNL     1       1.616   3.626  18.430  0.00  0.00    +0.000 NA
ATOM     17  N   UNL     1       1.950   2.794  17.417  0.00  0.00    +0.000 NA
ATOM     18  N   UNL     1       3.026   3.235  16.797  0.00  0.00    +0.000 NA
ATOM     19  N   UNL     1       3.327   4.423  17.366  0.00  0.00    +0.000 N 
BRANCH  19  20
ATOM     20  C   UNL     1       4.473   5.082  16.799  0.00  0.00    +0.000 C 
BRANCH  20  21
ATOM     21  S   UNL     1       6.069   4.772  17.525  0.00  0.00    +0.000 S 
ATOM     22  O   UNL     1       5.828   4.147  18.816  0.00  0.00    +0.000 OA
ATOM     23  O   UNL     1       6.863   4.055  16.541  0.00  0.00    +0.000 OA
BRANCH  21  24
ATOM     24  C   UNL     1       6.973   6.279  17.857  0.00  0.00    +0.000 A 
ATOM     25  C   UNL     1       6.631   7.439  17.148  0.00  0.00    +0.000 A 
ATOM     26  C   UNL     1       7.300   8.642  17.393  0.00  0.00    +0.000 A 
ATOM     27  C   UNL     1       8.309   8.708  18.359  0.00  0.00    +0.000 A 
ATOM     28  C   UNL     1       9.096   9.976  18.539  0.00  0.00    +0.000 C 
ATOM     29  C   UNL     1       8.619   7.551  19.094  0.00  0.00    +0.000 A 
ATOM     30  C   UNL     1       7.939   6.347  18.864  0.00  0.00    +0.000 A 
ENDBRANCH  21  24
ENDBRANCH  20  21
ENDBRANCH  19  20
ENDBRANCH   1  15
BRANCH   1  31
ATOM     31  C   UNL     1       1.951   5.119  20.978  0.00  0.00    +0.000 C 
BRANCH  31  33
ATOM     32  C   UNL     1       1.539   2.780  21.709  0.00  0.00    +0.000 C 
ATOM     33  C   UNL     1       2.606   3.856  21.526  0.00  0.00    +0.000 C 
ENDBRANCH  31  33
ENDBRANCH   1  31
TORSDOF 8
ENDMDL
MODEL 5
REMARK VINA RESULT:      -8.4      0.995      1.351
REMARK  Name = 
REMARK  10 active torsions:
REMARK  status: ('A' for Active; 'I' for Inactive)
REMARK    1  A    between atoms: C_1  and  C_2
REMARK    2  A    between atoms: C_2  and  C_3
REMARK    3  A    between atoms: C_3  and  C_4
REMARK    4  A    between atoms: C_4  and  C_5
REMARK    5  A    between atoms: C_4  and  N_21
REMARK    6  A    between atoms: N_9  and  C_10
REMARK    7  A    between atoms: C_10  and  S_11
REMARK    8  A    between atoms: S_11  and  C_14
REMARK    9  A    between atoms: C_17  and  C_18
REMARK   10  A    between atoms: N_24  and  C_25
REMARK                            x       y       z     vdW  Elec       q    Type
REMARK                         _______ _______ _______ _____ _____    ______ ____
ROOT
ATOM      1  C   UNL     1       2.705   5.816  19.570  0.00  0.00    +0.000 C 
ENDROOT
BRANCH   1   2
ATOM      2  N   UNL     1       1.920   7.077  19.361  0.00  0.00    +0.000 NA
ATOM      3  C   UNL     1       1.573   7.797  20.619  0.00  0.00    +0.000 C 
ATOM      4  C   UNL     1       1.164   9.302  20.606  0.00  0.00    +0.000 C 
ATOM      5  N   UNL     1       0.889   9.757  19.251  0.00  0.00    +0.000 N 
ATOM      6  C   UNL     1       1.978   9.457  18.324  0.00  0.00    +0.000 C 
ATOM      7  C   UNL     1       2.246   7.936  18.215  0.00  0.00    +0.000 C 
BRANCH   5   8
ATOM      8  C   UNL     1      -0.325  10.259  18.845  0.00  0.00    +0.000 A 
ATOM      9  C   UNL     1      -1.006  11.235  19.595  0.00  0.00    +0.000 A 
ATOM     10  C   UNL     1      -2.216  11.791  19.160  0.00  0.00    +0.000 A 
ATOM     11  C   UNL     1      -2.779  11.355  17.969  0.00  0.00    +0.000 A 
ATOM     12  F   UNL     1      -3.935  11.886  17.546  0.00  0.00    +0.000 F 
ATOM     13  C   UNL     1      -2.153  10.381  17.213  0.00  0.00    +0.000 A 
ATOM     14  C   UNL     1      -0.935   9.844  17.650  0.00  0.00    +0.000 A 
ENDBRANCH   5   8
ENDBRANCH   1   2
BRANCH   1  15
ATOM     15  C   UNL     1       2.930   4.945  18.330  0.00  0.00    +0.000 A 
ATOM     16  N   UNL     1       1.911   4.277  17.796  0.00  0.00    +0.000 NA
ATOM     17  N   UNL     1       2.394   3.488  16.810  0.00  0.00    +0.000 NA
ATOM     18  N   UNL     1       3.693   3.661  16.678  0.00  0.00    +0.000 NA
ATOM     19  N   UNL     1       4.029   4.651  17.534  0.00  0.00    +0.000 N 
BRANCH  19  20
ATOM     20  C   UNL     1       5.423   5.007  17.519  0.00  0.00    +0.000 C 
BRANCH  20  21
ATOM     21  S   UNL     1       6.026   5.998  16.168  0.00  0.00    +0.000 S 
ATOM     22  O   UNL     1       4.971   6.943  15.838  0.00  0.00    +0.000 OA
ATOM     23  O   UNL     1       7.329   6.514  16.555  0.00  0.00    +0.000 OA
BRANCH  21  24
ATOM     24  C   UNL     1       6.317   5.034  14.690  0.00  0.00    +0.000 A 
ATOM     25  C   UNL     1       5.292   4.205  14.214  0.00  0.00    +0.000 A 
ATOM     26  C   UNL     1       5.474   3.451  13.051  0.00  0.00    +0.000 A 
ATOM     27  C   UNL     1       6.675   3.526  12.338  0.00  0.00    +0.000 A 
ATOM     28  C   UNL     1       6.902   2.631  11.152  0.00  0.00    +0.000 C 
ATOM     29  C   UNL     1       7.683   4.389  12.799  0.00  0.00    +0.000 A 
ATOM     30  C   UNL     1       7.499   5.160  13.955  0.00  0.00    +0.000 A 
ENDBRANCH  21  24
ENDBRANCH  20  21
ENDBRANCH  19  20
ENDBRANCH   1  15
BRANCH   1  31
ATOM     31  C   UNL     1       2.145   5.111  20.817  0.00  0.00    +0.000 C 
BRANCH  31  33
ATOM     32  C   UNL     1       1.490   2.790  21.417  0.00  0.00    +0.000 C 
ATOM     33  C   UNL     1       1.127   4.004  20.566  0.00  0.00    +0.000 C 
ENDBRANCH  31  33
ENDBRANCH   1  31
TORSDOF 8
ENDMDL
MODEL 6
REMARK VINA RESULT:      -8.0      5.438     10.863
REMARK  Name = 
REMARK  10 active torsions:
REMARK  status: ('A' for Active; 'I' for Inactive)
REMARK    1  A    between atoms: C_1  and  C_2
REMARK    2  A    between atoms: C_2  and  C_3
REMARK    3  A    between atoms: C_3  and  C_4
REMARK    4  A    between atoms: C_4  and  C_5
REMARK    5  A    between atoms: C_4  and  N_21
REMARK    6  A    between atoms: N_9  and  C_10
REMARK    7  A    between atoms: C_10  and  S_11
REMARK    8  A    between atoms: S_11  and  C_14
REMARK    9  A    between atoms: C_17  and  C_18
REMARK   10  A    between atoms: N_24  and  C_25
REMARK                            x       y       z     vdW  Elec       q    Type
REMARK                         _______ _______ _______ _____ _____    ______ ____
ROOT
ATOM      1  C   UNL     1       0.193  10.851  18.820  0.00  0.00    +0.000 C 
ENDROOT
BRANCH   1   2
ATOM      2  N   UNL     1       0.716   9.454  18.981  0.00  0.00    +0.000 NA
ATOM      3  C   UNL     1       1.794   9.090  18.019  0.00  0.00    +0.000 C 
ATOM      4  C   UNL     1       2.751   7.888  18.290  0.00  0.00    +0.000 C 
ATOM      5  N   UNL     1       2.255   7.060  19.380  0.00  0.00    +0.000 N 
ATOM      6  C   UNL     1       1.959   7.834  20.584  0.00  0.00    +0.000 C 
ATOM      7  C   UNL     1       0.869   8.904  20.334  0.00  0.00    +0.000 C 
BRANCH   5   8
ATOM      8  C   UNL     1       1.937   5.730  19.245  0.00  0.00    +0.000 A 
ATOM      9  C   UNL     1       1.471   4.969  20.332  0.00  0.00    +0.000 A 
ATOM     10  C   UNL     1       1.092   3.628  20.189  0.00  0.00    +0.000 A 
ATOM     11  C   UNL     1       1.201   3.017  18.948  0.00  0.00    +0.000 A 
ATOM     12  F   UNL     1       0.837   1.734  18.805  0.00  0.00    +0.000 F 
ATOM     13  C   UNL     1       1.676   3.723  17.858  0.00  0.00    +0.000 A 
ATOM     14  C   UNL     1       2.036   5.068  18.009  0.00  0.00    +0.000 A 
ENDBRANCH   5   8
ENDBRANCH   1   2
BRANCH   1  15
ATOM     15  C   UNL     1       0.837  11.921  19.706  0.00  0.00    +0.000 A 
ATOM     16  N   UNL     1       1.948  12.533  19.304  0.00  0.00    +0.000 NA
ATOM     17  N   UNL     1       2.383  13.323  20.312  0.00  0.00    +0.000 NA
ATOM     18  N   UNL     1       1.558  13.255  21.337  0.00  0.00    +0.000 NA
ATOM     19  N   UNL     1       0.525  12.481  20.937  0.00  0.00    +0.000 N 
BRANCH  19  20
ATOM     20  C   UNL     1      -0.507  12.307  21.924  0.00  0.00    +0.000 C 
BRANCH  20  21
ATOM     21  S   UNL     1      -1.398  13.746  22.477  0.00  0.00    +0.000 S 
ATOM     22  O   UNL     1      -0.754  14.192  23.702  0.00  0.00    +0.000 OA
ATOM     23  O   UNL     1      -1.475  14.667  21.355  0.00  0.00    +0.000 OA
BRANCH  21  24
ATOM     24  C   UNL     1      -3.094  13.376  22.905  0.00  0.00    +0.000 A 
ATOM     25  C   UNL     1      -4.070  13.435  21.901  0.00  0.00    +0.000 A 
ATOM     26  C   UNL     1      -5.404  13.133  22.191  0.00  0.00    +0.000 A 
ATOM     27  C   UNL     1      -5.780  12.754  23.484  0.00  0.00    +0.000 A 
ATOM     28  C   UNL     1      -7.231  12.538  23.811  0.00  0.00    +0.000 C 
ATOM     29  C   UNL     1      -4.790  12.659  24.476  0.00  0.00    +0.000 A 
ATOM     30  C   UNL     1      -3.449  12.944  24.186  0.00  0.00    +0.000 A 
ENDBRANCH  21  24
ENDBRANCH  20  21
ENDBRANCH  19  20
ENDBRANCH   1  15
BRANCH   1  31
ATOM     31  C   UNL     1      -1.344  10.785  18.821  0.00  0.00    +0.000 C 
BRANCH  31  33
ATOM     32  C   UNL     1      -3.416  11.360  17.576  0.00  0.00    +0.000 C 
ATOM     33  C   UNL     1      -2.018  10.761  17.454  0.00  0.00    +0.000 C 
ENDBRANCH  31  33
ENDBRANCH   1  31
TORSDOF 8
ENDMDL
MODEL 7
REMARK VINA RESULT:      -8.0      5.414     10.396
REMARK  Name = 
REMARK  10 active torsions:
REMARK  status: ('A' for Active; 'I' for Inactive)
REMARK    1  A    between atoms: C_1  and  C_2
REMARK    2  A    between atoms: C_2  and  C_3
REMARK    3  A    between atoms: C_3  and  C_4
REMARK    4  A    between atoms: C_4  and  C_5
REMARK    5  A    between atoms: C_4  and  N_21
REMARK    6  A    between atoms: N_9  and  C_10
REMARK    7  A    between atoms: C_10  and  S_11
REMARK    8  A    between atoms: S_11  and  C_14
REMARK    9  A    between atoms: C_17  and  C_18
REMARK   10  A    between atoms: N_24  and  C_25
REMARK                            x       y       z     vdW  Elec       q    Type
REMARK                         _______ _______ _______ _____ _____    ______ ____
ROOT
ATOM      1  C   UNL     1       0.371  10.930  18.740  0.00  0.00    +0.000 C 
ENDROOT
BRANCH   1   2
ATOM      2  N   UNL     1       0.853   9.518  18.902  0.00  0.00    +0.000 NA
ATOM      3  C   UNL     1       1.946   9.134  17.966  0.00  0.00    +0.000 C 
ATOM      4  C   UNL     1       2.864   7.906  18.251  0.00  0.00    +0.000 C 
ATOM      5  N   UNL     1       2.319   7.082  19.320  0.00  0.00    +0.000 N 
ATOM      6  C   UNL     1       2.011   7.853  20.523  0.00  0.00    +0.000 C 
ATOM      7  C   UNL     1       0.956   8.954  20.254  0.00  0.00    +0.000 C 
BRANCH   5   8
ATOM      8  C   UNL     1       1.970   5.762  19.164  0.00  0.00    +0.000 A 
ATOM      9  C   UNL     1       1.398   5.022  20.215  0.00  0.00    +0.000 A 
ATOM     10  C   UNL     1       0.990   3.693  20.047  0.00  0.00    +0.000 A 
ATOM     11  C   UNL     1       1.172   3.072  18.820  0.00  0.00    +0.000 A 
ATOM     12  F   UNL     1       0.781   1.800  18.653  0.00  0.00    +0.000 F 
ATOM     13  C   UNL     1       1.752   3.757  17.767  0.00  0.00    +0.000 A 
ATOM     14  C   UNL     1       2.141   5.090  17.942  0.00  0.00    +0.000 A 
ENDBRANCH   5   8
ENDBRANCH   1   2
BRANCH   1  15
ATOM     15  C   UNL     1       0.749  11.907  19.857  0.00  0.00    +0.000 A 
ATOM     16  N   UNL     1       1.840  12.660  19.737  0.00  0.00    +0.000 NA
ATOM     17  N   UNL     1       2.023  13.325  20.900  0.00  0.00    +0.000 NA
ATOM     18  N   UNL     1       1.056  13.041  21.749  0.00  0.00    +0.000 NA
ATOM     19  N   UNL     1       0.188  12.253  21.078  0.00  0.00    +0.000 N 
BRANCH  19  20
ATOM     20  C   UNL     1      -0.965  11.853  21.840  0.00  0.00    +0.000 C 
BRANCH  20  21
ATOM     21  S   UNL     1      -2.213  13.074  22.187  0.00  0.00    +0.000 S 
ATOM     22  O   UNL     1      -2.565  12.927  23.590  0.00  0.00    +0.000 OA
ATOM     23  O   UNL     1      -1.706  14.357  21.727  0.00  0.00    +0.000 OA
BRANCH  21  24
ATOM     24  C   UNL     1      -3.716  12.798  21.259  0.00  0.00    +0.000 A 
ATOM     25  C   UNL     1      -4.948  13.037  21.885  0.00  0.00    +0.000 A 
ATOM     26  C   UNL     1      -6.145  12.852  21.187  0.00  0.00    +0.000 A 
ATOM     27  C   UNL     1      -6.130  12.442  19.851  0.00  0.00    +0.000 A 
ATOM     28  C   UNL     1      -7.421  12.141  19.142  0.00  0.00    +0.000 C 
ATOM     29  C   UNL     1      -4.891  12.243  19.217  0.00  0.00    +0.000 A 
ATOM     30  C   UNL     1      -3.688  12.443  19.908  0.00  0.00    +0.000 A 
ENDBRANCH  21  24
ENDBRANCH  20  21
ENDBRANCH  19  20
ENDBRANCH   1  15
BRANCH   1  31
ATOM     31  C   UNL     1      -1.113  10.881  18.338  0.00  0.00    +0.000 C 
BRANCH  31  33
ATOM     32  C   UNL     1      -2.845  10.158  16.708  0.00  0.00    +0.000 C 
ATOM     33  C   UNL     1      -1.504   9.795  17.341  0.00  0.00    +0.000 C 
ENDBRANCH  31  33
ENDBRANCH   1  31
TORSDOF 8
ENDMDL
MODEL 8
REMARK VINA RESULT:      -8.0      5.396     10.878
REMARK  Name = 
REMARK  10 active torsions:
REMARK  status: ('A' for Active; 'I' for Inactive)
REMARK    1  A    between atoms: C_1  and  C_2
REMARK    2  A    between atoms: C_2  and  C_3
REMARK    3  A    between atoms: C_3  and  C_4
REMARK    4  A    between atoms: C_4  and  C_5
REMARK    5  A    between atoms: C_4  and  N_21
REMARK    6  A    between atoms: N_9  and  C_10
REMARK    7  A    between atoms: C_10  and  S_11
REMARK    8  A    between atoms: S_11  and  C_14
REMARK    9  A    between atoms: C_17  and  C_18
REMARK   10  A    between atoms: N_24  and  C_25
REMARK                            x       y       z     vdW  Elec       q    Type
REMARK                         _______ _______ _______ _____ _____    ______ ____
ROOT
ATOM      1  C   UNL     1       0.262  10.746  18.676  0.00  0.00    +0.000 C 
ENDROOT
BRANCH   1   2
ATOM      2  N   UNL     1       0.773   9.348  18.861  0.00  0.00    +0.000 NA
ATOM      3  C   UNL     1       1.825   8.948  17.885  0.00  0.00    +0.000 C 
ATOM      4  C   UNL     1       2.775   7.742  18.164  0.00  0.00    +0.000 C 
ATOM      5  N   UNL     1       2.295   6.948  19.286  0.00  0.00    +0.000 N 
ATOM      6  C   UNL     1       2.034   7.754  20.476  0.00  0.00    +0.000 C 
ATOM      7  C   UNL     1       0.951   8.831  20.224  0.00  0.00    +0.000 C 
BRANCH   5   8
ATOM      8  C   UNL     1       1.960   5.618  19.191  0.00  0.00    +0.000 A 
ATOM      9  C   UNL     1       2.079   4.912  17.980  0.00  0.00    +0.000 A 
ATOM     10  C   UNL     1       1.792   3.544  17.890  0.00  0.00    +0.000 A 
ATOM     11  C   UNL     1       1.354   2.863  19.015  0.00  0.00    +0.000 A 
ATOM     12  F   UNL     1       1.080   1.552  18.936  0.00  0.00    +0.000 F 
ATOM     13  C   UNL     1       1.201   3.524  20.221  0.00  0.00    +0.000 A 
ATOM     14  C   UNL     1       1.507   4.888  20.303  0.00  0.00    +0.000 A 
ENDBRANCH   5   8
ENDBRANCH   1   2
BRANCH   1  15
ATOM     15  C   UNL     1       0.863  11.814  19.595  0.00  0.00    +0.000 A 
ATOM     16  N   UNL     1       1.970  12.456  19.229  0.00  0.00    +0.000 NA
ATOM     17  N   UNL     1       2.365  13.236  20.260  0.00  0.00    +0.000 NA
ATOM     18  N   UNL     1       1.519  13.133  21.265  0.00  0.00    +0.000 NA
ATOM     19  N   UNL     1       0.512  12.345  20.828  0.00  0.00    +0.000 N 
BRANCH  19  20
ATOM     20  C   UNL     1      -0.538  12.132  21.788  0.00  0.00    +0.000 C 
BRANCH  20  21
ATOM     21  S   UNL     1      -1.369  13.555  22.460  0.00  0.00    +0.000 S 
ATOM     22  O   UNL     1      -0.744  13.841  23.741  0.00  0.00    +0.000 OA
ATOM     23  O   UNL     1      -1.363  14.586  21.435  0.00  0.00    +0.000 OA
BRANCH  21  24
ATOM     24  C   UNL     1      -3.096  13.239  22.803  0.00  0.00    +0.000 A 
ATOM     25  C   UNL     1      -3.486  13.005  24.128  0.00  0.00    +0.000 A 
ATOM     26  C   UNL     1      -4.830  12.774  24.441  0.00  0.00    +0.000 A 
ATOM     27  C   UNL     1      -5.803  12.789  23.437  0.00  0.00    +0.000 A 
ATOM     28  C   UNL     1      -7.226  12.433  23.764  0.00  0.00    +0.000 C 
ATOM     29  C   UNL     1      -5.410  13.064  22.116  0.00  0.00    +0.000 A 
ATOM     30  C   UNL     1      -4.067  13.313  21.801  0.00  0.00    +0.000 A 
ENDBRANCH  21  24
ENDBRANCH  20  21
ENDBRANCH  19  20
ENDBRANCH   1  15
BRANCH   1  31
ATOM     31  C   UNL     1      -1.273  10.683  18.600  0.00  0.00    +0.000 C 
BRANCH  31  33
ATOM     32  C   UNL     1      -3.409  11.444  17.583  0.00  0.00    +0.000 C 
ATOM     33  C   UNL     1      -1.958  11.827  17.861  0.00  0.00    +0.000 C 
ENDBRANCH  31  33
ENDBRANCH   1  31
TORSDOF 8
ENDMDL
MODEL 9
REMARK VINA RESULT:      -7.9      2.834      3.926
REMARK  Name = 
REMARK  10 active torsions:
REMARK  status: ('A' for Active; 'I' for Inactive)
REMARK    1  A    between atoms: C_1  and  C_2
REMARK    2  A    between atoms: C_2  and  C_3
REMARK    3  A    between atoms: C_3  and  C_4
REMARK    4  A    between atoms: C_4  and  C_5
REMARK    5  A    between atoms: C_4  and  N_21
REMARK    6  A    between atoms: N_9  and  C_10
REMARK    7  A    between atoms: C_10  and  S_11
REMARK    8  A    between atoms: S_11  and  C_14
REMARK    9  A    between atoms: C_17  and  C_18
REMARK   10  A    between atoms: N_24  and  C_25
REMARK                            x       y       z     vdW  Elec       q    Type
REMARK                         _______ _______ _______ _____ _____    ______ ____
ROOT
ATOM      1  C   UNL     1       2.780   5.852  19.836  0.00  0.00    +0.000 C 
ENDROOT
BRANCH   1   2
ATOM      2  N   UNL     1       2.393   7.286  19.629  0.00  0.00    +0.000 NA
ATOM      3  C   UNL     1       2.253   7.681  18.199  0.00  0.00    +0.000 C 
ATOM      4  C   UNL     1       1.455   8.955  17.783  0.00  0.00    +0.000 C 
ATOM      5  N   UNL     1       1.169   9.793  18.938  0.00  0.00    +0.000 N 
ATOM      6  C   UNL     1       0.533   9.054  20.027  0.00  0.00    +0.000 C 
ATOM      7  C   UNL     1       1.427   7.902  20.548  0.00  0.00    +0.000 C 
BRANCH   5   8
ATOM      8  C   UNL     1       1.600  11.092  19.065  0.00  0.00    +0.000 A 
ATOM      9  C   UNL     1       2.368  11.714  18.064  0.00  0.00    +0.000 A 
ATOM     10  C   UNL     1       2.764  13.054  18.161  0.00  0.00    +0.000 A 
ATOM     11  C   UNL     1       2.414  13.790  19.284  0.00  0.00    +0.000 A 
ATOM     12  F   UNL     1       2.788  15.074  19.381  0.00  0.00    +0.000 F 
ATOM     13  C   UNL     1       1.679  13.210  20.301  0.00  0.00    +0.000 A 
ATOM     14  C   UNL     1       1.274  11.874  20.186  0.00  0.00    +0.000 A 
ENDBRANCH   5   8
ENDBRANCH   1   2
BRANCH   1  15
ATOM     15  C   UNL     1       2.875   4.987  18.576  0.00  0.00    +0.000 A 
ATOM     16  N   UNL     1       1.767   4.642  17.924  0.00  0.00    +0.000 NA
ATOM     17  N   UNL     1       2.108   3.777  16.941  0.00  0.00    +0.000 NA
ATOM     18  N   UNL     1       3.412   3.588  16.929  0.00  0.00    +0.000 NA
ATOM     19  N   UNL     1       3.922   4.422  17.860  0.00  0.00    +0.000 N 
BRANCH  19  20
ATOM     20  C   UNL     1       5.355   4.379  17.980  0.00  0.00    +0.000 C 
BRANCH  20  21
ATOM     21  S   UNL     1       6.329   5.274  16.789  0.00  0.00    +0.000 S 
ATOM     22  O   UNL     1       7.345   4.355  16.303  0.00  0.00    +0.000 OA
ATOM     23  O   UNL     1       5.409   5.866  15.831  0.00  0.00    +0.000 OA
BRANCH  21  24
ATOM     24  C   UNL     1       7.204   6.652  17.518  0.00  0.00    +0.000 A 
ATOM     25  C   UNL     1       7.021   7.930  16.974  0.00  0.00    +0.000 A 
ATOM     26  C   UNL     1       7.671   9.037  17.529  0.00  0.00    +0.000 A 
ATOM     27  C   UNL     1       8.502   8.885  18.644  0.00  0.00    +0.000 A 
ATOM     28  C   UNL     1       9.281  10.059  19.166  0.00  0.00    +0.000 C 
ATOM     29  C   UNL     1       8.649   7.607  19.209  0.00  0.00    +0.000 A 
ATOM     30  C   UNL     1       7.986   6.498  18.667  0.00  0.00    +0.000 A 
ENDBRANCH  21  24
ENDBRANCH  20  21
ENDBRANCH  19  20
ENDBRANCH   1  15
BRANCH   1  31
ATOM     31  C   UNL     1       1.933   5.296  20.994  0.00  0.00    +0.000 C 
BRANCH  31  33
ATOM     32  C   UNL     1       1.231   2.916  21.139  0.00  0.00    +0.000 C 
ATOM     33  C   UNL     1       2.323   3.915  21.511  0.00  0.00    +0.000 C 
ENDBRANCH  31  33
ENDBRANCH   1  31
TORSDOF 8
ENDMDL
