MODEL 1
REMARK VINA RESULT:      -9.4      0.000      0.000
REMARK  Name = 
REMARK  6 active torsions:
REMARK  status: ('A' for Active; 'I' for Inactive)
REMARK    1  A    between atoms: C_2  and  C_3
REMARK    2  A    between atoms: C_3  and  C_4
REMARK    3  A    between atoms: C_4  and  N_5
REMARK    4  A    between atoms: C_7  and  C_8
REMARK    5  A    between atoms: N_12  and  C_13
REMARK    6  A    between atoms: N_24  and  C_25
REMARK                            x       y       z     vdW  Elec       q    Type
REMARK                         _______ _______ _______ _____ _____    ______ ____
ROOT
ATOM      1  C   UNL     1       5.542   4.843  16.907  0.00  0.00    +0.000 C 
ATOM      2  C   UNL     1       6.962   4.880  17.575  0.00  0.00    +0.000 C 
ATOM      3  N   UNL     1       6.985   6.307  17.311  0.00  0.00    +0.000 N 
ATOM      4  C   UNL     1       7.746   7.241  17.950  0.00  0.00    +0.000 C 
ATOM      5  O   UNL     1       8.597   6.863  18.756  0.00  0.00    +0.000 OA
ATOM      6  N   UNL     1       7.494   8.557  17.616  0.00  0.00    +0.000 N 
ATOM      7  C   UNL     1       5.918   6.273  16.346  0.00  0.00    +0.000 C 
ATOM      8  H   UNL     1       6.621   8.733  17.143  0.00  0.00    +0.000 HD
ENDROOT
BRANCH   6   9
ATOM      9  C   UNL     1       8.211   9.673  18.121  0.00  0.00    +0.000 A 
ATOM     10  C   UNL     1       8.997   9.590  19.280  0.00  0.00    +0.000 A 
ATOM     11  C   UNL     1       9.678  10.699  19.783  0.00  0.00    +0.000 A 
ATOM     12  C   UNL     1       9.585  11.911  19.122  0.00  0.00    +0.000 A 
ATOM     13  F   UNL     1      10.242  12.974  19.606  0.00  0.00    +0.000 F 
ATOM     14  C   UNL     1       8.822  12.013  17.965  0.00  0.00    +0.000 A 
ATOM     15  F   UNL     1       8.729  13.193  17.336  0.00  0.00    +0.000 F 
ATOM     16  C   UNL     1       8.143  10.902  17.451  0.00  0.00    +0.000 A 
ENDBRANCH   6   9
BRANCH   1  17
ATOM     17  N   UNL     1       4.488   4.934  17.912  0.00  0.00    +0.000 N 
ATOM     18  C   UNL     1       3.976   3.880  18.614  0.00  0.00    +0.000 A 
ATOM     19  C   UNL     1       3.195   4.415  19.622  0.00  0.00    +0.000 A 
ATOM     20  C   UNL     1       3.200   5.815  19.355  0.00  0.00    +0.000 A 
ATOM     21  N   UNL     1       2.543   6.759  20.074  0.00  0.00    +0.000 N 
ATOM     22  N   UNL     1       3.927   6.089  18.266  0.00  0.00    +0.000 NA
ATOM     23  H   UNL     1       2.322   6.580  21.051  0.00  0.00    +0.000 HD
BRANCH  21  24
ATOM     24  C   UNL     1       1.960   7.956  19.585  0.00  0.00    +0.000 A 
ATOM     25  C   UNL     1       2.189   8.416  18.284  0.00  0.00    +0.000 A 
ATOM     26  C   UNL     1       1.652   9.610  17.813  0.00  0.00    +0.000 A 
ATOM     27  C   UNL     1       0.894  10.404  18.669  0.00  0.00    +0.000 A 
ATOM     28  C   UNL     1       0.675   9.988  19.981  0.00  0.00    +0.000 A 
ATOM     29  C   UNL     1       1.209   8.776  20.437  0.00  0.00    +0.000 A 
ENDBRANCH  21  24
BRANCH  19  30
ATOM     30  C   UNL     1       2.551   3.663  20.676  0.00  0.00    +0.000 C 
ATOM     31  N   UNL     1       3.183   2.516  21.077  0.00  0.00    +0.000 N 
ATOM     32  O   UNL     1       1.511   4.024  21.219  0.00  0.00    +0.000 OA
ATOM     33  H   UNL     1       4.067   2.191  20.713  0.00  0.00    +0.000 HD
ATOM     34  H   UNL     1       2.765   1.999  21.837  0.00  0.00    +0.000 HD
ENDBRANCH  19  30
ENDBRANCH   1  17
BRANCH   1  35
ATOM     35  C   UNL     1       5.299   3.692  15.929  0.00  0.00    +0.000 C 
BRANCH  35  37
ATOM     36  N   UNL     1       6.719   4.283  13.611  0.00  0.00    +0.000 NA
ATOM     37  C   UNL     1       6.075   4.015  14.662  0.00  0.00    +0.000 C 
ENDBRANCH  35  37
ENDBRANCH   1  35
TORSDOF 6
ENDMDL
MODEL 2
REMARK VINA RESULT:      -9.1      0.452      1.149
REMARK  Name = 
REMARK  6 active torsions:
REMARK  status: ('A' for Active; 'I' for Inactive)
REMARK    1  A    between atoms: C_2  and  C_3
REMARK    2  A    between atoms: C_3  and  C_4
REMARK    3  A    between atoms: C_4  and  N_5
REMARK    4  A    between atoms: C_7  and  C_8
REMARK    5  A    between atoms: N_12  and  C_13
REMARK    6  A    between atoms: N_24  and  C_25
REMARK                            x       y       z     vdW  Elec       q    Type
REMARK                         _______ _______ _______ _____ _____    ______ ____
ROOT
ATOM      1  C   UNL     1       5.632   4.809  16.959  0.00  0.00    +0.000 C 
ATOM      2  C   UNL     1       7.037   4.925  17.650  0.00  0.00    +0.000 C 
ATOM      3  N   UNL     1       7.017   6.339  17.322  0.00  0.00    +0.000 N 
ATOM      4  C   UNL     1       7.733   7.326  17.932  0.00  0.00    +0.000 C 
ATOM      5  O   UNL     1       8.580   7.014  18.769  0.00  0.00    +0.000 OA
ATOM      6  N   UNL     1       7.443   8.616  17.534  0.00  0.00    +0.000 N 
ATOM      7  C   UNL     1       5.970   6.225  16.341  0.00  0.00    +0.000 C 
ATOM      8  H   UNL     1       6.573   8.741  17.038  0.00  0.00    +0.000 HD
ENDROOT
BRANCH   6   9
ATOM      9  C   UNL     1       8.111   9.778  18.000  0.00  0.00    +0.000 A 
ATOM     10  C   UNL     1       7.993  11.015  17.351  0.00  0.00    +0.000 A 
ATOM     11  C   UNL     1       8.674  12.147  17.801  0.00  0.00    +0.000 A 
ATOM     12  C   UNL     1       9.483  12.052  18.921  0.00  0.00    +0.000 A 
ATOM     13  F   UNL     1      10.134  13.141  19.352  0.00  0.00    +0.000 F 
ATOM     14  C   UNL     1       9.605  10.840  19.587  0.00  0.00    +0.000 A 
ATOM     15  F   UNL     1      10.398  10.754  20.665  0.00  0.00    +0.000 F 
ATOM     16  C   UNL     1       8.917   9.703  19.144  0.00  0.00    +0.000 A 
ENDBRANCH   6   9
BRANCH   1  17
ATOM     17  N   UNL     1       4.557   4.908  17.941  0.00  0.00    +0.000 N 
ATOM     18  C   UNL     1       4.020   3.857  18.629  0.00  0.00    +0.000 A 
ATOM     19  C   UNL     1       3.220   4.397  19.620  0.00  0.00    +0.000 A 
ATOM     20  C   UNL     1       3.244   5.798  19.356  0.00  0.00    +0.000 A 
ATOM     21  N   UNL     1       2.580   6.747  20.061  0.00  0.00    +0.000 N 
ATOM     22  N   UNL     1       3.998   6.067  18.284  0.00  0.00    +0.000 NA
ATOM     23  H   UNL     1       2.335   6.568  21.033  0.00  0.00    +0.000 HD
BRANCH  21  24
ATOM     24  C   UNL     1       2.019   7.950  19.562  0.00  0.00    +0.000 A 
ATOM     25  C   UNL     1       2.270   8.403  18.262  0.00  0.00    +0.000 A 
ATOM     26  C   UNL     1       1.755   9.603  17.781  0.00  0.00    +0.000 A 
ATOM     27  C   UNL     1       0.996  10.409  18.625  0.00  0.00    +0.000 A 
ATOM     28  C   UNL     1       0.755   9.999  19.935  0.00  0.00    +0.000 A 
ATOM     29  C   UNL     1       1.267   8.782  20.401  0.00  0.00    +0.000 A 
ENDBRANCH  21  24
BRANCH  19  30
ATOM     30  C   UNL     1       2.546   3.650  20.658  0.00  0.00    +0.000 C 
ATOM     31  N   UNL     1       3.219   2.569  21.162  0.00  0.00    +0.000 N 
ATOM     32  O   UNL     1       1.444   3.960  21.101  0.00  0.00    +0.000 OA
ATOM     33  H   UNL     1       4.149   2.291  20.884  0.00  0.00    +0.000 HD
ATOM     34  H   UNL     1       2.778   2.058  21.913  0.00  0.00    +0.000 HD
ENDBRANCH  19  30
ENDBRANCH   1  17
BRANCH   1  35
ATOM     35  C   UNL     1       5.447   3.608  16.030  0.00  0.00    +0.000 C 
BRANCH  35  37
ATOM     36  N   UNL     1       6.691   4.244  13.625  0.00  0.00    +0.000 NA
ATOM     37  C   UNL     1       6.127   3.955  14.716  0.00  0.00    +0.000 C 
ENDBRANCH  35  37
ENDBRANCH   1  35
TORSDOF 6
ENDMDL
MODEL 3
REMARK VINA RESULT:      -8.7      1.834      3.678
REMARK  Name = 
REMARK  6 active torsions:
REMARK  status: ('A' for Active; 'I' for Inactive)
REMARK    1  A    between atoms: C_2  and  C_3
REMARK    2  A    between atoms: C_3  and  C_4
REMARK    3  A    between atoms: C_4  and  N_5
REMARK    4  A    between atoms: C_7  and  C_8
REMARK    5  A    between atoms: N_12  and  C_13
REMARK    6  A    between atoms: N_24  and  C_25
REMARK                            x       y       z     vdW  Elec       q    Type
REMARK                         _______ _______ _______ _____ _____    ______ ____
ROOT
ATOM      1  C   UNL     1       5.758   6.217  16.654  0.00  0.00    +0.000 C 
ATOM      2  C   UNL     1       6.978   5.930  17.600  0.00  0.00    +0.000 C 
ATOM      3  N   UNL     1       7.382   7.310  17.402  0.00  0.00    +0.000 N 
ATOM      4  C   UNL     1       8.186   8.048  18.218  0.00  0.00    +0.000 C 
ATOM      5  O   UNL     1       8.741   7.491  19.166  0.00  0.00    +0.000 OA
ATOM      6  N   UNL     1       8.317   9.383  17.892  0.00  0.00    +0.000 N 
ATOM      7  C   UNL     1       6.559   7.516  16.238  0.00  0.00    +0.000 C 
ATOM      8  H   UNL     1       7.624   9.753  17.257  0.00  0.00    +0.000 HD
ENDROOT
BRANCH   6   9
ATOM      9  C   UNL     1       9.149  10.308  18.575  0.00  0.00    +0.000 A 
ATOM     10  C   UNL     1       9.093  10.470  19.967  0.00  0.00    +0.000 A 
ATOM     11  C   UNL     1       9.898  11.400  20.629  0.00  0.00    +0.000 A 
ATOM     12  C   UNL     1      10.779  12.178  19.897  0.00  0.00    +0.000 A 
ATOM     13  F   UNL     1      11.551  13.067  20.535  0.00  0.00    +0.000 F 
ATOM     14  C   UNL     1      10.859  12.024  18.519  0.00  0.00    +0.000 A 
ATOM     15  F   UNL     1      11.708  12.788  17.817  0.00  0.00    +0.000 F 
ATOM     16  C   UNL     1      10.061  11.088  17.851  0.00  0.00    +0.000 A 
ENDBRANCH   6   9
BRANCH   1  17
ATOM     17  N   UNL     1       4.568   6.560  17.427  0.00  0.00    +0.000 N 
ATOM     18  C   UNL     1       4.085   7.825  17.609  0.00  0.00    +0.000 A 
ATOM     19  C   UNL     1       2.830   7.694  18.175  0.00  0.00    +0.000 A 
ATOM     20  C   UNL     1       2.705   6.294  18.414  0.00  0.00    +0.000 A 
ATOM     21  N   UNL     1       1.638   5.682  18.985  0.00  0.00    +0.000 N 
ATOM     22  N   UNL     1       3.807   5.644  18.023  0.00  0.00    +0.000 NA
ATOM     23  H   UNL     1       0.721   6.121  18.930  0.00  0.00    +0.000 HD
BRANCH  21  24
ATOM     24  C   UNL     1       1.653   4.535  19.818  0.00  0.00    +0.000 A 
ATOM     25  C   UNL     1       1.018   3.342  19.453  0.00  0.00    +0.000 A 
ATOM     26  C   UNL     1       0.996   2.227  20.285  0.00  0.00    +0.000 A 
ATOM     27  C   UNL     1       1.586   2.301  21.544  0.00  0.00    +0.000 A 
ATOM     28  C   UNL     1       2.199   3.485  21.948  0.00  0.00    +0.000 A 
ATOM     29  C   UNL     1       2.228   4.595  21.095  0.00  0.00    +0.000 A 
ENDBRANCH  21  24
BRANCH  19  30
ATOM     30  C   UNL     1       1.907   8.776  18.435  0.00  0.00    +0.000 C 
ATOM     31  N   UNL     1       1.876   9.782  17.506  0.00  0.00    +0.000 N 
ATOM     32  O   UNL     1       1.162   8.803  19.409  0.00  0.00    +0.000 OA
ATOM     33  H   UNL     1       2.420   9.796  16.656  0.00  0.00    +0.000 HD
ATOM     34  H   UNL     1       1.211  10.528  17.654  0.00  0.00    +0.000 HD
ENDBRANCH  19  30
ENDBRANCH   1  17
BRANCH   1  35
ATOM     35  C   UNL     1       5.467   5.145  15.603  0.00  0.00    +0.000 C 
BRANCH  35  37
ATOM     36  N   UNL     1       7.633   5.107  13.858  0.00  0.00    +0.000 NA
ATOM     37  C   UNL     1       6.651   5.125  14.650  0.00  0.00    +0.000 C 
ENDBRANCH  35  37
ENDBRANCH   1  35
TORSDOF 6
ENDMDL
MODEL 4
REMARK VINA RESULT:      -8.7      1.898      3.836
REMARK  Name = 
REMARK  6 active torsions:
REMARK  status: ('A' for Active; 'I' for Inactive)
REMARK    1  A    between atoms: C_2  and  C_3
REMARK    2  A    between atoms: C_3  and  C_4
REMARK    3  A    between atoms: C_4  and  N_5
REMARK    4  A    between atoms: C_7  and  C_8
REMARK    5  A    between atoms: N_12  and  C_13
REMARK    6  A    between atoms: N_24  and  C_25
REMARK                            x       y       z     vdW  Elec       q    Type
REMARK                         _______ _______ _______ _____ _____    ______ ____
ROOT
ATOM      1  C   UNL     1       5.725   6.156  16.701  0.00  0.00    +0.000 C 
ATOM      2  C   UNL     1       6.951   5.894  17.645  0.00  0.00    +0.000 C 
ATOM      3  N   UNL     1       7.353   7.269  17.407  0.00  0.00    +0.000 N 
ATOM      4  C   UNL     1       8.163   8.028  18.198  0.00  0.00    +0.000 C 
ATOM      5  O   UNL     1       8.725   7.497  19.157  0.00  0.00    +0.000 OA
ATOM      6  N   UNL     1       8.292   9.354  17.835  0.00  0.00    +0.000 N 
ATOM      7  C   UNL     1       6.523   7.443  16.245  0.00  0.00    +0.000 C 
ATOM      8  H   UNL     1       7.595   9.707  17.195  0.00  0.00    +0.000 HD
ENDROOT
BRANCH   6   9
ATOM      9  C   UNL     1       9.129  10.296  18.487  0.00  0.00    +0.000 A 
ATOM     10  C   UNL     1      10.145  10.985  17.808  0.00  0.00    +0.000 A 
ATOM     11  C   UNL     1      10.980  11.891  18.463  0.00  0.00    +0.000 A 
ATOM     12  C   UNL     1      10.801  12.124  19.816  0.00  0.00    +0.000 A 
ATOM     13  F   UNL     1      11.602  12.997  20.442  0.00  0.00    +0.000 F 
ATOM     14  C   UNL     1       9.793  11.463  20.505  0.00  0.00    +0.000 A 
ATOM     15  F   UNL     1       9.631  11.687  21.818  0.00  0.00    +0.000 F 
ATOM     16  C   UNL     1       8.946  10.559  19.852  0.00  0.00    +0.000 A 
ENDBRANCH   6   9
BRANCH   1  17
ATOM     17  N   UNL     1       4.539   6.520  17.472  0.00  0.00    +0.000 N 
ATOM     18  C   UNL     1       4.075   7.793  17.646  0.00  0.00    +0.000 A 
ATOM     19  C   UNL     1       2.818   7.683  18.214  0.00  0.00    +0.000 A 
ATOM     20  C   UNL     1       2.674   6.286  18.462  0.00  0.00    +0.000 A 
ATOM     21  N   UNL     1       1.599   5.692  19.038  0.00  0.00    +0.000 N 
ATOM     22  N   UNL     1       3.767   5.619  18.074  0.00  0.00    +0.000 NA
ATOM     23  H   UNL     1       0.688   6.144  18.980  0.00  0.00    +0.000 HD
BRANCH  21  24
ATOM     24  C   UNL     1       1.599   4.551  19.878  0.00  0.00    +0.000 A 
ATOM     25  C   UNL     1       2.190   4.562  21.147  0.00  0.00    +0.000 A 
ATOM     26  C   UNL     1       2.228   3.433  21.959  0.00  0.00    +0.000 A 
ATOM     27  C   UNL     1       1.701   2.233  21.488  0.00  0.00    +0.000 A 
ATOM     28  C   UNL     1       1.135   2.183  20.216  0.00  0.00    +0.000 A 
ATOM     29  C   UNL     1       1.089   3.331  19.415  0.00  0.00    +0.000 A 
ENDBRANCH  21  24
BRANCH  19  30
ATOM     30  C   UNL     1       1.910   8.779  18.467  0.00  0.00    +0.000 C 
ATOM     31  N   UNL     1       1.829   9.737  17.491  0.00  0.00    +0.000 N 
ATOM     32  O   UNL     1       1.218   8.858  19.477  0.00  0.00    +0.000 OA
ATOM     33  H   UNL     1       2.326   9.706  16.614  0.00  0.00    +0.000 HD
ATOM     34  H   UNL     1       1.172  10.491  17.637  0.00  0.00    +0.000 HD
ENDBRANCH  19  30
ENDBRANCH   1  17
BRANCH   1  35
ATOM     35  C   UNL     1       5.426   5.056  15.681  0.00  0.00    +0.000 C 
BRANCH  35  37
ATOM     36  N   UNL     1       7.520   5.054  13.851  0.00  0.00    +0.000 NA
ATOM     37  C   UNL     1       6.571   5.055  14.681  0.00  0.00    +0.000 C 
ENDBRANCH  35  37
ENDBRANCH   1  35
TORSDOF 6
ENDMDL
MODEL 5
REMARK VINA RESULT:      -8.7      3.709      7.407
REMARK  Name = 
REMARK  6 active torsions:
REMARK  status: ('A' for Active; 'I' for Inactive)
REMARK    1  A    between atoms: C_2  and  C_3
REMARK    2  A    between atoms: C_3  and  C_4
REMARK    3  A    between atoms: C_4  and  N_5
REMARK    4  A    between atoms: C_7  and  C_8
REMARK    5  A    between atoms: N_12  and  C_13
REMARK    6  A    between atoms: N_24  and  C_25
REMARK                            x       y       z     vdW  Elec       q    Type
REMARK                         _______ _______ _______ _____ _____    ______ ____
ROOT
ATOM      1  C   UNL     1       3.418   4.083  18.794  0.00  0.00    +0.000 C 
ATOM      2  C   UNL     1       2.247   4.845  18.080  0.00  0.00    +0.000 C 
ATOM      3  N   UNL     1       2.151   5.685  19.260  0.00  0.00    +0.000 N 
ATOM      4  C   UNL     1       1.604   6.932  19.330  0.00  0.00    +0.000 C 
ATOM      5  O   UNL     1       1.017   7.379  18.343  0.00  0.00    +0.000 OA
ATOM      6  N   UNL     1       1.753   7.591  20.534  0.00  0.00    +0.000 N 
ATOM      7  C   UNL     1       2.901   4.796  20.108  0.00  0.00    +0.000 C 
ATOM      8  H   UNL     1       2.456   7.222  21.156  0.00  0.00    +0.000 HD
ENDROOT
BRANCH   6   9
ATOM      9  C   UNL     1       1.210   8.868  20.832  0.00  0.00    +0.000 A 
ATOM     10  C   UNL     1       1.392   9.970  19.984  0.00  0.00    +0.000 A 
ATOM     11  C   UNL     1       0.876  11.228  20.297  0.00  0.00    +0.000 A 
ATOM     12  C   UNL     1       0.161  11.396  21.471  0.00  0.00    +0.000 A 
ATOM     13  F   UNL     1      -0.335  12.605  21.768  0.00  0.00    +0.000 F 
ATOM     14  C   UNL     1      -0.042  10.315  22.320  0.00  0.00    +0.000 A 
ATOM     15  F   UNL     1      -0.727  10.489  23.459  0.00  0.00    +0.000 F 
ATOM     16  C   UNL     1       0.467   9.049  22.006  0.00  0.00    +0.000 A 
ENDBRANCH   6   9
BRANCH   1  17
ATOM     17  N   UNL     1       4.715   4.615  18.385  0.00  0.00    +0.000 N 
ATOM     18  C   UNL     1       5.519   5.407  19.155  0.00  0.00    +0.000 A 
ATOM     19  C   UNL     1       6.739   5.482  18.508  0.00  0.00    +0.000 A 
ATOM     20  C   UNL     1       6.519   4.796  17.278  0.00  0.00    +0.000 A 
ATOM     21  N   UNL     1       7.435   4.628  16.292  0.00  0.00    +0.000 N 
ATOM     22  N   UNL     1       5.260   4.353  17.199  0.00  0.00    +0.000 NA
ATOM     23  H   UNL     1       8.426   4.645  16.522  0.00  0.00    +0.000 HD
BRANCH  21  24
ATOM     24  C   UNL     1       7.192   4.582  14.896  0.00  0.00    +0.000 A 
ATOM     25  C   UNL     1       6.242   3.721  14.335  0.00  0.00    +0.000 A 
ATOM     26  C   UNL     1       6.029   3.643  12.962  0.00  0.00    +0.000 A 
ATOM     27  C   UNL     1       6.810   4.412  12.103  0.00  0.00    +0.000 A 
ATOM     28  C   UNL     1       7.786   5.256  12.631  0.00  0.00    +0.000 A 
ATOM     29  C   UNL     1       7.979   5.336  14.015  0.00  0.00    +0.000 A 
ENDBRANCH  21  24
BRANCH  19  30
ATOM     30  C   UNL     1       7.927   6.125  19.024  0.00  0.00    +0.000 C 
ATOM     31  N   UNL     1       8.610   5.445  19.997  0.00  0.00    +0.000 N 
ATOM     32  O   UNL     1       8.338   7.205  18.613  0.00  0.00    +0.000 OA
ATOM     33  H   UNL     1       8.360   4.530  20.342  0.00  0.00    +0.000 HD
ATOM     34  H   UNL     1       9.462   5.864  20.343  0.00  0.00    +0.000 HD
ENDBRANCH  19  30
ENDBRANCH   1  17
BRANCH   1  35
ATOM     35  C   UNL     1       3.372   2.558  18.699  0.00  0.00    +0.000 C 
BRANCH  35  37
ATOM     36  N   UNL     1       5.102   1.569  20.641  0.00  0.00    +0.000 NA
ATOM     37  C   UNL     1       4.318   2.018  19.760  0.00  0.00    +0.000 C 
ENDBRANCH  35  37
ENDBRANCH   1  35
TORSDOF 6
ENDMDL
MODEL 6
REMARK VINA RESULT:      -8.5      3.747      7.423
REMARK  Name = 
REMARK  6 active torsions:
REMARK  status: ('A' for Active; 'I' for Inactive)
REMARK    1  A    between atoms: C_2  and  C_3
REMARK    2  A    between atoms: C_3  and  C_4
REMARK    3  A    between atoms: C_4  and  N_5
REMARK    4  A    between atoms: C_7  and  C_8
REMARK    5  A    between atoms: N_12  and  C_13
REMARK    6  A    between atoms: N_24  and  C_25
REMARK                            x       y       z     vdW  Elec       q    Type
REMARK                         _______ _______ _______ _____ _____    ______ ____
ROOT
ATOM      1  C   UNL     1       3.259   4.186  18.613  0.00  0.00    +0.000 C 
ATOM      2  C   UNL     1       2.137   5.031  17.911  0.00  0.00    +0.000 C 
ATOM      3  N   UNL     1       2.051   5.819  19.128  0.00  0.00    +0.000 N 
ATOM      4  C   UNL     1       1.557   7.084  19.245  0.00  0.00    +0.000 C 
ATOM      5  O   UNL     1       1.011   7.601  18.269  0.00  0.00    +0.000 OA
ATOM      6  N   UNL     1       1.707   7.679  20.482  0.00  0.00    +0.000 N 
ATOM      7  C   UNL     1       2.744   4.859  19.947  0.00  0.00    +0.000 C 
ATOM      8  H   UNL     1       2.380   7.251  21.100  0.00  0.00    +0.000 HD
ENDROOT
BRANCH   6   9
ATOM      9  C   UNL     1       1.213   8.963  20.829  0.00  0.00    +0.000 A 
ATOM     10  C   UNL     1       1.450  10.092  20.031  0.00  0.00    +0.000 A 
ATOM     11  C   UNL     1       0.981  11.356  20.393  0.00  0.00    +0.000 A 
ATOM     12  C   UNL     1       0.259  11.503  21.565  0.00  0.00    +0.000 A 
ATOM     13  F   UNL     1      -0.192  12.717  21.908  0.00  0.00    +0.000 F 
ATOM     14  C   UNL     1       0.002  10.396  22.364  0.00  0.00    +0.000 A 
ATOM     15  F   UNL     1      -0.690  10.549  23.502  0.00  0.00    +0.000 F 
ATOM     16  C   UNL     1       0.462   9.124  22.001  0.00  0.00    +0.000 A 
ENDBRANCH   6   9
BRANCH   1  17
ATOM     17  N   UNL     1       4.586   4.680  18.254  0.00  0.00    +0.000 N 
ATOM     18  C   UNL     1       5.384   5.443  19.058  0.00  0.00    +0.000 A 
ATOM     19  C   UNL     1       6.630   5.483  18.458  0.00  0.00    +0.000 A 
ATOM     20  C   UNL     1       6.435   4.809  17.216  0.00  0.00    +0.000 A 
ATOM     21  N   UNL     1       7.382   4.616  16.264  0.00  0.00    +0.000 N 
ATOM     22  N   UNL     1       5.166   4.405  17.088  0.00  0.00    +0.000 NA
ATOM     23  H   UNL     1       8.364   4.601  16.532  0.00  0.00    +0.000 HD
BRANCH  21  24
ATOM     24  C   UNL     1       7.190   4.583  14.860  0.00  0.00    +0.000 A 
ATOM     25  C   UNL     1       6.283   3.707  14.254  0.00  0.00    +0.000 A 
ATOM     26  C   UNL     1       6.120   3.643  12.874  0.00  0.00    +0.000 A 
ATOM     27  C   UNL     1       6.912   4.442  12.054  0.00  0.00    +0.000 A 
ATOM     28  C   UNL     1       7.848   5.301  12.627  0.00  0.00    +0.000 A 
ATOM     29  C   UNL     1       7.989   5.368  14.018  0.00  0.00    +0.000 A 
ENDBRANCH  21  24
BRANCH  19  30
ATOM     30  C   UNL     1       7.817   6.087  19.021  0.00  0.00    +0.000 C 
ATOM     31  N   UNL     1       8.426   5.396  20.034  0.00  0.00    +0.000 N 
ATOM     32  O   UNL     1       8.290   7.144  18.615  0.00  0.00    +0.000 OA
ATOM     33  H   UNL     1       8.123   4.496  20.379  0.00  0.00    +0.000 HD
ATOM     34  H   UNL     1       9.277   5.786  20.414  0.00  0.00    +0.000 HD
ENDBRANCH  19  30
ENDBRANCH   1  17
BRANCH   1  35
ATOM     35  C   UNL     1       3.150   2.670  18.445  0.00  0.00    +0.000 C 
BRANCH  35  37
ATOM     36  N   UNL     1       0.470   2.007  18.786  0.00  0.00    +0.000 NA
ATOM     37  C   UNL     1       1.686   2.307  18.631  0.00  0.00    +0.000 C 
ENDBRANCH  35  37
ENDBRANCH   1  35
TORSDOF 6
ENDMDL
MODEL 7
REMARK VINA RESULT:      -8.4      3.376      7.116
REMARK  Name = 
REMARK  6 active torsions:
REMARK  status: ('A' for Active; 'I' for Inactive)
REMARK    1  A    between atoms: C_2  and  C_3
REMARK    2  A    between atoms: C_3  and  C_4
REMARK    3  A    between atoms: C_4  and  N_5
REMARK    4  A    between atoms: C_7  and  C_8
REMARK    5  A    between atoms: N_12  and  C_13
REMARK    6  A    between atoms: N_24  and  C_25
REMARK                            x       y       z     vdW  Elec       q    Type
REMARK                         _______ _______ _______ _____ _____    ______ ____
ROOT
ATOM      1  C   UNL     1       3.256   4.422  18.743  0.00  0.00    +0.000 C 
ATOM      2  C   UNL     1       2.176   5.149  17.866  0.00  0.00    +0.000 C 
ATOM      3  N   UNL     1       2.058   6.131  18.929  0.00  0.00    +0.000 N 
ATOM      4  C   UNL     1       1.581   7.403  18.813  0.00  0.00    +0.000 C 
ATOM      5  O   UNL     1       1.081   7.754  17.744  0.00  0.00    +0.000 OA
ATOM      6  N   UNL     1       1.695   8.196  19.938  0.00  0.00    +0.000 N 
ATOM      7  C   UNL     1       2.703   5.315  19.925  0.00  0.00    +0.000 C 
ATOM      8  H   UNL     1       2.338   7.871  20.645  0.00  0.00    +0.000 HD
ENDROOT
BRANCH   6   9
ATOM      9  C   UNL     1       1.210   9.525  20.045  0.00  0.00    +0.000 A 
ATOM     10  C   UNL     1       0.390   9.935  21.107  0.00  0.00    +0.000 A 
ATOM     11  C   UNL     1      -0.103  11.237  21.191  0.00  0.00    +0.000 A 
ATOM     12  C   UNL     1       0.228  12.154  20.208  0.00  0.00    +0.000 A 
ATOM     13  F   UNL     1      -0.245  13.405  20.293  0.00  0.00    +0.000 F 
ATOM     14  C   UNL     1       1.049  11.773  19.154  0.00  0.00    +0.000 A 
ATOM     15  F   UNL     1       1.357  12.664  18.200  0.00  0.00    +0.000 F 
ATOM     16  C   UNL     1       1.553  10.470  19.068  0.00  0.00    +0.000 A 
ENDBRANCH   6   9
BRANCH   1  17
ATOM     17  N   UNL     1       4.604   4.835  18.361  0.00  0.00    +0.000 N 
ATOM     18  C   UNL     1       5.456   5.561  19.143  0.00  0.00    +0.000 A 
ATOM     19  C   UNL     1       6.693   5.522  18.525  0.00  0.00    +0.000 A 
ATOM     20  C   UNL     1       6.443   4.845  17.296  0.00  0.00    +0.000 A 
ATOM     21  N   UNL     1       7.363   4.587  16.334  0.00  0.00    +0.000 N 
ATOM     22  N   UNL     1       5.151   4.513  17.190  0.00  0.00    +0.000 NA
ATOM     23  H   UNL     1       8.346   4.519  16.588  0.00  0.00    +0.000 HD
BRANCH  21  24
ATOM     24  C   UNL     1       7.150   4.547  14.933  0.00  0.00    +0.000 A 
ATOM     25  C   UNL     1       6.229   3.672  14.345  0.00  0.00    +0.000 A 
ATOM     26  C   UNL     1       6.046   3.601  12.968  0.00  0.00    +0.000 A 
ATOM     27  C   UNL     1       6.828   4.393  12.132  0.00  0.00    +0.000 A 
ATOM     28  C   UNL     1       7.776   5.251  12.686  0.00  0.00    +0.000 A 
ATOM     29  C   UNL     1       7.939   5.324  14.075  0.00  0.00    +0.000 A 
ENDBRANCH  21  24
BRANCH  19  30
ATOM     30  C   UNL     1       7.920   6.064  19.065  0.00  0.00    +0.000 C 
ATOM     31  N   UNL     1       8.542   5.314  20.027  0.00  0.00    +0.000 N 
ATOM     32  O   UNL     1       8.414   7.119  18.680  0.00  0.00    +0.000 OA
ATOM     33  H   UNL     1       8.222   4.413  20.350  0.00  0.00    +0.000 HD
ATOM     34  H   UNL     1       9.420   5.661  20.389  0.00  0.00    +0.000 HD
ENDBRANCH  19  30
ENDBRANCH   1  17
BRANCH   1  35
ATOM     35  C   UNL     1       3.128   2.901  18.827  0.00  0.00    +0.000 C 
BRANCH  35  37
ATOM     36  N   UNL     1       4.875   2.047  20.816  0.00  0.00    +0.000 NA
ATOM     37  C   UNL     1       4.082   2.434  19.914  0.00  0.00    +0.000 C 
ENDBRANCH  35  37
ENDBRANCH   1  35
TORSDOF 6
ENDMDL
MODEL 8
REMARK VINA RESULT:      -8.4      3.627      7.237
REMARK  Name = 
REMARK  6 active torsions:
REMARK  status: ('A' for Active; 'I' for Inactive)
REMARK    1  A    between atoms: C_2  and  C_3
REMARK    2  A    between atoms: C_3  and  C_4
REMARK    3  A    between atoms: C_4  and  N_5
REMARK    4  A    between atoms: C_7  and  C_8
REMARK    5  A    between atoms: N_12  and  C_13
REMARK    6  A    between atoms: N_24  and  C_25
REMARK                            x       y       z     vdW  Elec       q    Type
REMARK                         _______ _______ _______ _____ _____    ______ ____
ROOT
ATOM      1  C   UNL     1       3.258   4.416  18.646  0.00  0.00    +0.000 C 
ATOM      2  C   UNL     1       2.182   5.185  17.801  0.00  0.00    +0.000 C 
ATOM      3  N   UNL     1       2.071   6.123  18.904  0.00  0.00    +0.000 N 
ATOM      4  C   UNL     1       1.602   7.401  18.841  0.00  0.00    +0.000 C 
ATOM      5  O   UNL     1       1.105   7.800  17.787  0.00  0.00    +0.000 OA
ATOM      6  N   UNL     1       1.721   8.146  19.998  0.00  0.00    +0.000 N 
ATOM      7  C   UNL     1       2.710   5.262  19.864  0.00  0.00    +0.000 C 
ATOM      8  H   UNL     1       2.362   7.788  20.690  0.00  0.00    +0.000 HD
ENDROOT
BRANCH   6   9
ATOM      9  C   UNL     1       1.245   9.473  20.160  0.00  0.00    +0.000 A 
ATOM     10  C   UNL     1       1.426  10.454  19.174  0.00  0.00    +0.000 A 
ATOM     11  C   UNL     1       0.976  11.763  19.353  0.00  0.00    +0.000 A 
ATOM     12  C   UNL     1       0.330  12.105  20.528  0.00  0.00    +0.000 A 
ATOM     13  F   UNL     1      -0.102  13.362  20.696  0.00  0.00    +0.000 F 
ATOM     14  C   UNL     1       0.130  11.146  21.513  0.00  0.00    +0.000 A 
ATOM     15  F   UNL     1      -0.489  11.488  22.653  0.00  0.00    +0.000 F 
ATOM     16  C   UNL     1       0.571   9.829  21.336  0.00  0.00    +0.000 A 
ENDBRANCH   6   9
BRANCH   1  17
ATOM     17  N   UNL     1       4.608   4.834  18.281  0.00  0.00    +0.000 N 
ATOM     18  C   UNL     1       5.435   5.591  19.061  0.00  0.00    +0.000 A 
ATOM     19  C   UNL     1       6.685   5.552  18.470  0.00  0.00    +0.000 A 
ATOM     20  C   UNL     1       6.468   4.841  17.254  0.00  0.00    +0.000 A 
ATOM     21  N   UNL     1       7.411   4.570  16.317  0.00  0.00    +0.000 N 
ATOM     22  N   UNL     1       5.183   4.490  17.131  0.00  0.00    +0.000 NA
ATOM     23  H   UNL     1       8.390   4.520  16.594  0.00  0.00    +0.000 HD
BRANCH  21  24
ATOM     24  C   UNL     1       7.227   4.492  14.914  0.00  0.00    +0.000 A 
ATOM     25  C   UNL     1       7.958   5.286  14.023  0.00  0.00    +0.000 A 
ATOM     26  C   UNL     1       7.753   5.243  12.648  0.00  0.00    +0.000 A 
ATOM     27  C   UNL     1       6.760   4.415  12.130  0.00  0.00    +0.000 A 
ATOM     28  C   UNL     1       5.994   3.636  12.995  0.00  0.00    +0.000 A 
ATOM     29  C   UNL     1       6.222   3.678  14.376  0.00  0.00    +0.000 A 
ENDBRANCH  21  24
BRANCH  19  30
ATOM     30  C   UNL     1       7.894   6.122  19.020  0.00  0.00    +0.000 C 
ATOM     31  N   UNL     1       8.523   5.390  19.993  0.00  0.00    +0.000 N 
ATOM     32  O   UNL     1       8.369   7.187  18.637  0.00  0.00    +0.000 OA
ATOM     33  H   UNL     1       8.218   4.483  20.315  0.00  0.00    +0.000 HD
ATOM     34  H   UNL     1       9.388   5.757  20.362  0.00  0.00    +0.000 HD
ENDBRANCH  19  30
ENDBRANCH   1  17
BRANCH   1  35
ATOM     35  C   UNL     1       3.120   2.893  18.667  0.00  0.00    +0.000 C 
BRANCH  35  37
ATOM     36  N   UNL     1       4.964   1.936  20.517  0.00  0.00    +0.000 NA
ATOM     37  C   UNL     1       4.128   2.369  19.678  0.00  0.00    +0.000 C 
ENDBRANCH  35  37
ENDBRANCH   1  35
TORSDOF 6
ENDMDL
MODEL 9
REMARK VINA RESULT:      -8.4      3.446      7.154
REMARK  Name = 
REMARK  6 active torsions:
REMARK  status: ('A' for Active; 'I' for Inactive)
REMARK    1  A    between atoms: C_2  and  C_3
REMARK    2  A    between atoms: C_3  and  C_4
REMARK    3  A    between atoms: C_4  and  N_5
REMARK    4  A    between atoms: C_7  and  C_8
REMARK    5  A    between atoms: N_12  and  C_13
REMARK    6  A    between atoms: N_24  and  C_25
REMARK                            x       y       z     vdW  Elec       q    Type
REMARK                         _______ _______ _______ _____ _____    ______ ____
ROOT
ATOM      1  C   UNL     1       3.232   4.429  18.700  0.00  0.00    +0.000 C 
ATOM      2  C   UNL     1       2.153   5.176  17.839  0.00  0.00    +0.000 C 
ATOM      3  N   UNL     1       2.039   6.138  18.921  0.00  0.00    +0.000 N 
ATOM      4  C   UNL     1       1.567   7.413  18.831  0.00  0.00    +0.000 C 
ATOM      5  O   UNL     1       1.067   7.787  17.769  0.00  0.00    +0.000 OA
ATOM      6  N   UNL     1       1.684   8.183  19.971  0.00  0.00    +0.000 N 
ATOM      7  C   UNL     1       2.682   5.300  19.900  0.00  0.00    +0.000 C 
ATOM      8  H   UNL     1       2.326   7.842  20.671  0.00  0.00    +0.000 HD
ENDROOT
BRANCH   6   9
ATOM      9  C   UNL     1       1.204   9.512  20.105  0.00  0.00    +0.000 A 
ATOM     10  C   UNL     1       0.481   9.931  21.231  0.00  0.00    +0.000 A 
ATOM     11  C   UNL     1      -0.009  11.233  21.343  0.00  0.00    +0.000 A 
ATOM     12  C   UNL     1       0.226  12.138  20.323  0.00  0.00    +0.000 A 
ATOM     13  F   UNL     1      -0.243  13.388  20.434  0.00  0.00    +0.000 F 
ATOM     14  C   UNL     1       0.951  11.748  19.204  0.00  0.00    +0.000 A 
ATOM     15  F   UNL     1       1.167  12.628  18.215  0.00  0.00    +0.000 F 
ATOM     16  C   UNL     1       1.452  10.445  19.089  0.00  0.00    +0.000 A 
ENDBRANCH   6   9
BRANCH   1  17
ATOM     17  N   UNL     1       4.580   4.844  18.324  0.00  0.00    +0.000 N 
ATOM     18  C   UNL     1       5.425   5.575  19.110  0.00  0.00    +0.000 A 
ATOM     19  C   UNL     1       6.666   5.538  18.500  0.00  0.00    +0.000 A 
ATOM     20  C   UNL     1       6.425   4.857  17.270  0.00  0.00    +0.000 A 
ATOM     21  N   UNL     1       7.352   4.599  16.315  0.00  0.00    +0.000 N 
ATOM     22  N   UNL     1       5.135   4.520  17.159  0.00  0.00    +0.000 NA
ATOM     23  H   UNL     1       8.334   4.535  16.575  0.00  0.00    +0.000 HD
BRANCH  21  24
ATOM     24  C   UNL     1       7.147   4.554  14.913  0.00  0.00    +0.000 A 
ATOM     25  C   UNL     1       6.225   3.682  14.323  0.00  0.00    +0.000 A 
ATOM     26  C   UNL     1       6.050   3.607  12.945  0.00  0.00    +0.000 A 
ATOM     27  C   UNL     1       6.842   4.390  12.110  0.00  0.00    +0.000 A 
ATOM     28  C   UNL     1       7.791   5.245  12.667  0.00  0.00    +0.000 A 
ATOM     29  C   UNL     1       7.946   5.323  14.056  0.00  0.00    +0.000 A 
ENDBRANCH  21  24
BRANCH  19  30
ATOM     30  C   UNL     1       7.888   6.085  19.045  0.00  0.00    +0.000 C 
ATOM     31  N   UNL     1       8.497   5.349  20.026  0.00  0.00    +0.000 N 
ATOM     32  O   UNL     1       8.390   7.133  18.649  0.00  0.00    +0.000 OA
ATOM     33  H   UNL     1       8.171   4.454  20.359  0.00  0.00    +0.000 HD
ATOM     34  H   UNL     1       9.371   5.700  20.392  0.00  0.00    +0.000 HD
ENDBRANCH  19  30
ENDBRANCH   1  17
BRANCH   1  35
ATOM     35  C   UNL     1       3.098   2.906  18.754  0.00  0.00    +0.000 C 
BRANCH  35  37
ATOM     36  N   UNL     1       0.387   2.322  18.544  0.00  0.00    +0.000 NA
ATOM     37  C   UNL     1       1.617   2.586  18.639  0.00  0.00    +0.000 C 
ENDBRANCH  35  37
ENDBRANCH   1  35
TORSDOF 6
ENDMDL
