MODEL 1
REMARK VINA RESULT:      -8.5      0.000      0.000
REMARK  Name = 
REMARK  8 active torsions:
REMARK  status: ('A' for Active; 'I' for Inactive)
REMARK    1  A    between atoms: C_1  and  C_2
REMARK    2  A    between atoms: C_3  and  C_4
REMARK    3  A    between atoms: C_4  and  C_5
REMARK    4  A    between atoms: N_7  and  C_8
REMARK    5  A    between atoms: C_8  and  C_9
REMARK    6  A    between atoms: N_25  and  C_26
REMARK    7  A    between atoms: C_26  and  C_27
REMARK    8  A    between atoms: C_27  and  N_28
REMARK                            x       y       z     vdW  Elec       q    Type
REMARK                         _______ _______ _______ _____ _____    ______ ____
ROOT
ATOM      1  C   UNL     1       6.606   3.931  16.108  0.00  0.00    +0.000 C 
ATOM      2  C   UNL     1       5.557   4.887  16.591  0.00  0.00    +0.000 A 
ATOM      3  C   UNL     1       5.612   6.266  16.715  0.00  0.00    +0.000 A 
ATOM      4  C   UNL     1       4.354   6.702  17.231  0.00  0.00    +0.000 A 
ATOM      5  C   UNL     1       3.832   7.976  17.544  0.00  0.00    +0.000 A 
ATOM      6  C   UNL     1       2.538   8.088  18.051  0.00  0.00    +0.000 A 
ATOM      7 CL   UNL     1       1.896   9.642  18.416  0.00  0.00    +0.000 Cl
ATOM      8  C   UNL     1       1.763   6.961  18.270  0.00  0.00    +0.000 A 
ATOM      9  C   UNL     1       2.264   5.690  17.981  0.00  0.00    +0.000 A 
ATOM     10  C   UNL     1       3.563   5.567  17.452  0.00  0.00    +0.000 A 
ATOM     11  N   UNL     1       4.320   4.468  17.076  0.00  0.00    +0.000 N 
ENDROOT
BRANCH   3  12
ATOM     12  C   UNL     1       6.770   7.160  16.389  0.00  0.00    +0.000 C 
BRANCH  12  13
ATOM     13  C   UNL     1       7.590   7.537  17.612  0.00  0.00    +0.000 C 
ATOM     14  O   UNL     1       7.799   6.728  18.516  0.00  0.00    +0.000 OA
ATOM     15  N   UNL     1       8.013   8.847  17.678  0.00  0.00    +0.000 N 
ATOM     16  H   UNL     1       7.654   9.510  17.006  0.00  0.00    +0.000 HD
BRANCH  15  17
ATOM     17  C   UNL     1       8.716   9.348  18.831  0.00  0.00    +0.000 C 
BRANCH  17  18
ATOM     18  C   UNL     1       9.236  10.755  18.654  0.00  0.00    +0.000 A 
ATOM     19  C   UNL     1       8.652  11.679  17.753  0.00  0.00    +0.000 A 
ATOM     20  C   UNL     1       9.160  12.977  17.615  0.00  0.00    +0.000 A 
ATOM     21  C   UNL     1      10.247  13.320  18.393  0.00  0.00    +0.000 A 
ATOM     22  C   UNL     1      10.847  12.414  19.237  0.00  0.00    +0.000 A 
ATOM     23  C   UNL     1      10.378  11.129  19.377  0.00  0.00    +0.000 A 
ATOM     24  O   UNL     1      11.902  12.947  19.912  0.00  0.00    +0.000 OA
ATOM     25  C   UNL     1      11.709  14.339  19.599  0.00  0.00    +0.000 C 
ATOM     26  O   UNL     1      10.847  14.542  18.458  0.00  0.00    +0.000 OA
ENDBRANCH  17  18
ENDBRANCH  15  17
ENDBRANCH  12  13
ENDBRANCH   3  12
BRANCH  11  27
ATOM     27  C   UNL     1       3.992   3.059  17.261  0.00  0.00    +0.000 C 
BRANCH  27  28
ATOM     28  C   UNL     1       4.179   2.429  18.648  0.00  0.00    +0.000 C 
BRANCH  28  29
ATOM     29  N   UNL     1       3.094   2.852  19.531  0.00  0.00    +0.000 NA
ATOM     30  C   UNL     1       1.800   2.205  19.231  0.00  0.00    +0.000 C 
ATOM     31  C   UNL     1       0.710   2.875  20.075  0.00  0.00    +0.000 C 
ATOM     32  O   UNL     1       0.995   2.780  21.479  0.00  0.00    +0.000 OA
ATOM     33  C   UNL     1       2.291   3.328  21.775  0.00  0.00    +0.000 C 
ATOM     34  C   UNL     1       3.388   2.629  20.958  0.00  0.00    +0.000 C 
ENDBRANCH  28  29
ENDBRANCH  27  28
ENDBRANCH  11  27
TORSDOF 7
ENDMDL
MODEL 2
REMARK VINA RESULT:      -8.5      2.315      3.524
REMARK  Name = 
REMARK  8 active torsions:
REMARK  status: ('A' for Active; 'I' for Inactive)
REMARK    1  A    between atoms: C_1  and  C_2
REMARK    2  A    between atoms: C_3  and  C_4
REMARK    3  A    between atoms: C_4  and  C_5
REMARK    4  A    between atoms: N_7  and  C_8
REMARK    5  A    between atoms: C_8  and  C_9
REMARK    6  A    between atoms: N_25  and  C_26
REMARK    7  A    between atoms: C_26  and  C_27
REMARK    8  A    between atoms: C_27  and  N_28
REMARK                            x       y       z     vdW  Elec       q    Type
REMARK                         _______ _______ _______ _____ _____    ______ ____
ROOT
ATOM      1  C   UNL     1       5.557   4.507  19.557  0.00  0.00    +0.000 C 
ATOM      2  C   UNL     1       5.884   4.525  18.095  0.00  0.00    +0.000 A 
ATOM      3  C   UNL     1       6.839   5.263  17.415  0.00  0.00    +0.000 A 
ATOM      4  C   UNL     1       6.742   4.922  16.031  0.00  0.00    +0.000 A 
ATOM      5  C   UNL     1       7.454   5.338  14.886  0.00  0.00    +0.000 A 
ATOM      6  C   UNL     1       7.117   4.820  13.636  0.00  0.00    +0.000 A 
ATOM      7 CL   UNL     1       7.998   5.313  12.242  0.00  0.00    +0.000 Cl
ATOM      8  C   UNL     1       6.078   3.915  13.501  0.00  0.00    +0.000 A 
ATOM      9  C   UNL     1       5.350   3.500  14.618  0.00  0.00    +0.000 A 
ATOM     10  C   UNL     1       5.693   4.004  15.887  0.00  0.00    +0.000 A 
ATOM     11  N   UNL     1       5.168   3.789  17.153  0.00  0.00    +0.000 N 
ENDROOT
BRANCH   3  12
ATOM     12  C   UNL     1       7.801   6.255  17.996  0.00  0.00    +0.000 C 
BRANCH  12  13
ATOM     13  C   UNL     1       7.444   7.694  17.659  0.00  0.00    +0.000 C 
ATOM     14  O   UNL     1       6.468   7.962  16.958  0.00  0.00    +0.000 OA
ATOM     15  N   UNL     1       8.315   8.658  18.117  0.00  0.00    +0.000 N 
ATOM     16  H   UNL     1       9.195   8.369  18.521  0.00  0.00    +0.000 HD
BRANCH  15  17
ATOM     17  C   UNL     1       8.136  10.048  17.783  0.00  0.00    +0.000 C 
BRANCH  17  18
ATOM     18  C   UNL     1       9.161  10.956  18.417  0.00  0.00    +0.000 A 
ATOM     19  C   UNL     1       9.784  10.661  19.655  0.00  0.00    +0.000 A 
ATOM     20  C   UNL     1      10.733  11.527  20.214  0.00  0.00    +0.000 A 
ATOM     21  C   UNL     1      11.038  12.674  19.510  0.00  0.00    +0.000 A 
ATOM     22  C   UNL     1      10.405  12.989  18.330  0.00  0.00    +0.000 A 
ATOM     23  C   UNL     1       9.459  12.164  17.769  0.00  0.00    +0.000 A 
ATOM     24  O   UNL     1      10.847  14.160  17.795  0.00  0.00    +0.000 OA
ATOM     25  C   UNL     1      12.003  14.382  18.625  0.00  0.00    +0.000 C 
ATOM     26  O   UNL     1      11.974  13.607  19.843  0.00  0.00    +0.000 OA
ENDBRANCH  17  18
ENDBRANCH  15  17
ENDBRANCH  12  13
ENDBRANCH   3  12
BRANCH  11  27
ATOM     27  C   UNL     1       3.969   3.034  17.500  0.00  0.00    +0.000 C 
BRANCH  27  28
ATOM     28  C   UNL     1       2.615   3.756  17.508  0.00  0.00    +0.000 C 
BRANCH  28  29
ATOM     29  N   UNL     1       2.532   4.634  18.674  0.00  0.00    +0.000 NA
ATOM     30  C   UNL     1       2.279   6.049  18.333  0.00  0.00    +0.000 C 
ATOM     31  C   UNL     1       2.420   6.892  19.606  0.00  0.00    +0.000 C 
ATOM     32  O   UNL     1       1.510   6.461  20.629  0.00  0.00    +0.000 OA
ATOM     33  C   UNL     1       1.684   5.062  20.911  0.00  0.00    +0.000 C 
ATOM     34  C   UNL     1       1.503   4.215  19.643  0.00  0.00    +0.000 C 
ENDBRANCH  28  29
ENDBRANCH  27  28
ENDBRANCH  11  27
TORSDOF 7
ENDMDL
MODEL 3
REMARK VINA RESULT:      -8.1      1.083      1.195
REMARK  Name = 
REMARK  8 active torsions:
REMARK  status: ('A' for Active; 'I' for Inactive)
REMARK    1  A    between atoms: C_1  and  C_2
REMARK    2  A    between atoms: C_3  and  C_4
REMARK    3  A    between atoms: C_4  and  C_5
REMARK    4  A    between atoms: N_7  and  C_8
REMARK    5  A    between atoms: C_8  and  C_9
REMARK    6  A    between atoms: N_25  and  C_26
REMARK    7  A    between atoms: C_26  and  C_27
REMARK    8  A    between atoms: C_27  and  N_28
REMARK                            x       y       z     vdW  Elec       q    Type
REMARK                         _______ _______ _______ _____ _____    ______ ____
ROOT
ATOM      1  C   UNL     1       7.629   4.424  17.410  0.00  0.00    +0.000 C 
ATOM      2  C   UNL     1       6.380   5.244  17.526  0.00  0.00    +0.000 A 
ATOM      3  C   UNL     1       6.189   6.596  17.290  0.00  0.00    +0.000 A 
ATOM      4  C   UNL     1       4.816   6.889  17.554  0.00  0.00    +0.000 A 
ATOM      5  C   UNL     1       4.053   8.074  17.473  0.00  0.00    +0.000 A 
ATOM      6  C   UNL     1       2.699   8.049  17.809  0.00  0.00    +0.000 A 
ATOM      7 CL   UNL     1       1.765   9.489  17.694  0.00  0.00    +0.000 Cl
ATOM      8  C   UNL     1       2.098   6.878  18.239  0.00  0.00    +0.000 A 
ATOM      9  C   UNL     1       2.836   5.697  18.339  0.00  0.00    +0.000 A 
ATOM     10  C   UNL     1       4.199   5.708  17.987  0.00  0.00    +0.000 A 
ATOM     11  N   UNL     1       5.173   4.720  17.983  0.00  0.00    +0.000 N 
ENDROOT
BRANCH   3  12
ATOM     12  C   UNL     1       7.218   7.594  16.854  0.00  0.00    +0.000 C 
BRANCH  12  13
ATOM     13  C   UNL     1       8.082   8.095  18.001  0.00  0.00    +0.000 C 
ATOM     14  O   UNL     1       8.450   7.338  18.901  0.00  0.00    +0.000 OA
ATOM     15  N   UNL     1       8.357   9.445  18.009  0.00  0.00    +0.000 N 
ATOM     16  H   UNL     1       7.874  10.045  17.356  0.00  0.00    +0.000 HD
BRANCH  15  17
ATOM     17  C   UNL     1       9.085  10.053  19.093  0.00  0.00    +0.000 C 
BRANCH  17  18
ATOM     18  C   UNL     1       9.687  11.391  18.737  0.00  0.00    +0.000 A 
ATOM     19  C   UNL     1      10.643  11.551  17.705  0.00  0.00    +0.000 A 
ATOM     20  C   UNL     1      11.180  12.808  17.401  0.00  0.00    +0.000 A 
ATOM     21  C   UNL     1      10.737  13.884  18.143  0.00  0.00    +0.000 A 
ATOM     22  C   UNL     1       9.841  13.730  19.176  0.00  0.00    +0.000 A 
ATOM     23  C   UNL     1       9.314  12.504  19.505  0.00  0.00    +0.000 A 
ATOM     24  O   UNL     1       9.534  14.910  19.782  0.00  0.00    +0.000 OA
ATOM     25  C   UNL     1      10.120  15.825  18.837  0.00  0.00    +0.000 C 
ATOM     26  O   UNL     1      11.080  15.191  17.966  0.00  0.00    +0.000 OA
ENDBRANCH  17  18
ENDBRANCH  15  17
ENDBRANCH  12  13
ENDBRANCH   3  12
BRANCH  11  27
ATOM     27  C   UNL     1       5.058   3.359  18.496  0.00  0.00    +0.000 C 
BRANCH  27  28
ATOM     28  C   UNL     1       3.748   2.591  18.272  0.00  0.00    +0.000 C 
BRANCH  28  29
ATOM     29  N   UNL     1       2.797   2.922  19.332  0.00  0.00    +0.000 NA
ATOM     30  C   UNL     1       1.481   2.269  19.171  0.00  0.00    +0.000 C 
ATOM     31  C   UNL     1       0.515   2.849  20.210  0.00  0.00    +0.000 C 
ATOM     32  O   UNL     1       1.001   2.657  21.548  0.00  0.00    +0.000 OA
ATOM     33  C   UNL     1       2.319   3.211  21.696  0.00  0.00    +0.000 C 
ATOM     34  C   UNL     1       3.295   2.600  20.681  0.00  0.00    +0.000 C 
ENDBRANCH  28  29
ENDBRANCH  27  28
ENDBRANCH  11  27
TORSDOF 7
ENDMDL
MODEL 4
REMARK VINA RESULT:      -8.1      2.370      3.305
REMARK  Name = 
REMARK  8 active torsions:
REMARK  status: ('A' for Active; 'I' for Inactive)
REMARK    1  A    between atoms: C_1  and  C_2
REMARK    2  A    between atoms: C_3  and  C_4
REMARK    3  A    between atoms: C_4  and  C_5
REMARK    4  A    between atoms: N_7  and  C_8
REMARK    5  A    between atoms: C_8  and  C_9
REMARK    6  A    between atoms: N_25  and  C_26
REMARK    7  A    between atoms: C_26  and  C_27
REMARK    8  A    between atoms: C_27  and  N_28
REMARK                            x       y       z     vdW  Elec       q    Type
REMARK                         _______ _______ _______ _____ _____    ______ ____
ROOT
ATOM      1  C   UNL     1       4.827   5.206  19.522  0.00  0.00    +0.000 C 
ATOM      2  C   UNL     1       5.311   5.052  18.112  0.00  0.00    +0.000 A 
ATOM      3  C   UNL     1       6.437   5.582  17.504  0.00  0.00    +0.000 A 
ATOM      4  C   UNL     1       6.439   5.143  16.145  0.00  0.00    +0.000 A 
ATOM      5  C   UNL     1       7.329   5.351  15.068  0.00  0.00    +0.000 A 
ATOM      6  C   UNL     1       7.054   4.783  13.825  0.00  0.00    +0.000 A 
ATOM      7 CL   UNL     1       8.147   5.022  12.517  0.00  0.00    +0.000 Cl
ATOM      8  C   UNL     1       5.908   4.030  13.627  0.00  0.00    +0.000 A 
ATOM      9  C   UNL     1       5.007   3.823  14.674  0.00  0.00    +0.000 A 
ATOM     10  C   UNL     1       5.284   4.378  15.938  0.00  0.00    +0.000 A 
ATOM     11  N   UNL     1       4.597   4.351  17.143  0.00  0.00    +0.000 N 
ENDROOT
BRANCH   3  12
ATOM     12  C   UNL     1       7.471   6.470  18.128  0.00  0.00    +0.000 C 
BRANCH  12  13
ATOM     13  C   UNL     1       7.370   7.914  17.665  0.00  0.00    +0.000 C 
ATOM     14  O   UNL     1       6.479   8.278  16.897  0.00  0.00    +0.000 OA
ATOM     15  N   UNL     1       8.371   8.759  18.091  0.00  0.00    +0.000 N 
ATOM     16  H   UNL     1       9.175   8.366  18.560  0.00  0.00    +0.000 HD
BRANCH  15  17
ATOM     17  C   UNL     1       8.437  10.127  17.643  0.00  0.00    +0.000 C 
BRANCH  17  18
ATOM     18  C   UNL     1       9.030  11.067  18.665  0.00  0.00    +0.000 A 
ATOM     19  C   UNL     1       9.394  10.649  19.969  0.00  0.00    +0.000 A 
ATOM     20  C   UNL     1       9.943  11.549  20.892  0.00  0.00    +0.000 A 
ATOM     21  C   UNL     1      10.119  12.854  20.479  0.00  0.00    +0.000 A 
ATOM     22  C   UNL     1       9.727  13.276  19.229  0.00  0.00    +0.000 A 
ATOM     23  C   UNL     1       9.170  12.417  18.312  0.00  0.00    +0.000 A 
ATOM     24  O   UNL     1       9.985  14.596  19.018  0.00  0.00    +0.000 OA
ATOM     25  C   UNL     1      10.821  14.863  20.161  0.00  0.00    +0.000 C 
ATOM     26  O   UNL     1      10.693  13.862  21.193  0.00  0.00    +0.000 OA
ENDBRANCH  17  18
ENDBRANCH  15  17
ENDBRANCH  12  13
ENDBRANCH   3  12
BRANCH  11  27
ATOM     27  C   UNL     1       3.266   3.811  17.393  0.00  0.00    +0.000 C 
BRANCH  27  28
ATOM     28  C   UNL     1       3.134   2.366  17.893  0.00  0.00    +0.000 C 
BRANCH  28  29
ATOM     29  N   UNL     1       2.561   2.361  19.238  0.00  0.00    +0.000 NA
ATOM     30  C   UNL     1       3.575   2.406  20.313  0.00  0.00    +0.000 C 
ATOM     31  C   UNL     1       2.872   2.186  21.658  0.00  0.00    +0.000 C 
ATOM     32  O   UNL     1       1.860   3.177  21.893  0.00  0.00    +0.000 OA
ATOM     33  C   UNL     1       0.913   3.205  20.811  0.00  0.00    +0.000 C 
ATOM     34  C   UNL     1       1.613   3.465  19.469  0.00  0.00    +0.000 C 
ENDBRANCH  28  29
ENDBRANCH  27  28
ENDBRANCH  11  27
TORSDOF 7
ENDMDL
MODEL 5
REMARK VINA RESULT:      -8.0      7.296     10.650
REMARK  Name = 
REMARK  8 active torsions:
REMARK  status: ('A' for Active; 'I' for Inactive)
REMARK    1  A    between atoms: C_1  and  C_2
REMARK    2  A    between atoms: C_3  and  C_4
REMARK    3  A    between atoms: C_4  and  C_5
REMARK    4  A    between atoms: N_7  and  C_8
REMARK    5  A    between atoms: C_8  and  C_9
REMARK    6  A    between atoms: N_25  and  C_26
REMARK    7  A    between atoms: C_26  and  C_27
REMARK    8  A    between atoms: C_27  and  N_28
REMARK                            x       y       z     vdW  Elec       q    Type
REMARK                         _______ _______ _______ _____ _____    ______ ____
ROOT
ATOM      1  C   UNL     1      -1.787  12.314  21.567  0.00  0.00    +0.000 C 
ATOM      2  C   UNL     1      -2.147  11.883  20.177  0.00  0.00    +0.000 A 
ATOM      3  C   UNL     1      -1.377  11.223  19.233  0.00  0.00    +0.000 A 
ATOM      4  C   UNL     1      -2.181  11.053  18.064  0.00  0.00    +0.000 A 
ATOM      5  C   UNL     1      -1.941  10.449  16.811  0.00  0.00    +0.000 A 
ATOM      6  C   UNL     1      -2.944  10.444  15.843  0.00  0.00    +0.000 A 
ATOM      7 CL   UNL     1      -2.658   9.693  14.321  0.00  0.00    +0.000 Cl
ATOM      8  C   UNL     1      -4.169  11.042  16.088  0.00  0.00    +0.000 A 
ATOM      9  C   UNL     1      -4.424  11.657  17.316  0.00  0.00    +0.000 A 
ATOM     10  C   UNL     1      -3.424  11.653  18.306  0.00  0.00    +0.000 A 
ATOM     11  N   UNL     1      -3.377  12.172  19.592  0.00  0.00    +0.000 N 
ENDROOT
BRANCH   3  12
ATOM     12  C   UNL     1       0.045  10.772  19.377  0.00  0.00    +0.000 C 
BRANCH  12  13
ATOM     13  C   UNL     1       0.192   9.548  20.266  0.00  0.00    +0.000 C 
ATOM     14  O   UNL     1      -0.586   9.338  21.197  0.00  0.00    +0.000 OA
ATOM     15  N   UNL     1       1.281   8.742  20.015  0.00  0.00    +0.000 N 
ATOM     16  H   UNL     1       1.987   9.064  19.367  0.00  0.00    +0.000 HD
BRANCH  15  17
ATOM     17  C   UNL     1       1.580   7.606  20.848  0.00  0.00    +0.000 C 
BRANCH  17  18
ATOM     18  C   UNL     1       2.216   6.461  20.099  0.00  0.00    +0.000 A 
ATOM     19  C   UNL     1       2.138   5.118  20.544  0.00  0.00    +0.000 A 
ATOM     20  C   UNL     1       2.740   4.079  19.822  0.00  0.00    +0.000 A 
ATOM     21  C   UNL     1       3.406   4.415  18.661  0.00  0.00    +0.000 A 
ATOM     22  C   UNL     1       3.523   5.721  18.246  0.00  0.00    +0.000 A 
ATOM     23  C   UNL     1       2.957   6.760  18.946  0.00  0.00    +0.000 A 
ATOM     24  O   UNL     1       4.216   5.840  17.081  0.00  0.00    +0.000 OA
ATOM     25  C   UNL     1       4.269   4.455  16.690  0.00  0.00    +0.000 C 
ATOM     26  O   UNL     1       3.998   3.554  17.786  0.00  0.00    +0.000 OA
ENDBRANCH  17  18
ENDBRANCH  15  17
ENDBRANCH  12  13
ENDBRANCH   3  12
BRANCH  11  27
ATOM     27  C   UNL     1      -4.371  13.018  20.244  0.00  0.00    +0.000 C 
BRANCH  27  28
ATOM     28  C   UNL     1      -5.825  12.533  20.317  0.00  0.00    +0.000 C 
BRANCH  28  29
ATOM     29  N   UNL     1      -6.197  12.302  21.712  0.00  0.00    +0.000 NA
ATOM     30  C   UNL     1      -5.572  13.251  22.656  0.00  0.00    +0.000 C 
ATOM     31  C   UNL     1      -5.867  12.785  24.087  0.00  0.00    +0.000 C 
ATOM     32  O   UNL     1      -7.278  12.700  24.334  0.00  0.00    +0.000 OA
ATOM     33  C   UNL     1      -7.916  11.847  23.368  0.00  0.00    +0.000 C 
ATOM     34  C   UNL     1      -7.653  12.338  21.937  0.00  0.00    +0.000 C 
ENDBRANCH  28  29
ENDBRANCH  27  28
ENDBRANCH  11  27
TORSDOF 7
ENDMDL
MODEL 6
REMARK VINA RESULT:      -7.8      2.182      3.185
REMARK  Name = 
REMARK  8 active torsions:
REMARK  status: ('A' for Active; 'I' for Inactive)
REMARK    1  A    between atoms: C_1  and  C_2
REMARK    2  A    between atoms: C_3  and  C_4
REMARK    3  A    between atoms: C_4  and  C_5
REMARK    4  A    between atoms: N_7  and  C_8
REMARK    5  A    between atoms: C_8  and  C_9
REMARK    6  A    between atoms: N_25  and  C_26
REMARK    7  A    between atoms: C_26  and  C_27
REMARK    8  A    between atoms: C_27  and  N_28
REMARK                            x       y       z     vdW  Elec       q    Type
REMARK                         _______ _______ _______ _____ _____    ______ ____
ROOT
ATOM      1  C   UNL     1       3.682   5.958  18.691  0.00  0.00    +0.000 C 
ATOM      2  C   UNL     1       4.449   5.612  17.451  0.00  0.00    +0.000 A 
ATOM      3  C   UNL     1       5.382   6.361  16.754  0.00  0.00    +0.000 A 
ATOM      4  C   UNL     1       5.812   5.583  15.636  0.00  0.00    +0.000 A 
ATOM      5  C   UNL     1       6.744   5.818  14.602  0.00  0.00    +0.000 A 
ATOM      6  C   UNL     1       6.950   4.846  13.623  0.00  0.00    +0.000 A 
ATOM      7 CL   UNL     1       8.098   5.125  12.372  0.00  0.00    +0.000 Cl
ATOM      8  C   UNL     1       6.237   3.659  13.643  0.00  0.00    +0.000 A 
ATOM      9  C   UNL     1       5.301   3.411  14.649  0.00  0.00    +0.000 A 
ATOM     10  C   UNL     1       5.097   4.378  15.651  0.00  0.00    +0.000 A 
ATOM     11  N   UNL     1       4.255   4.422  16.753  0.00  0.00    +0.000 N 
ENDROOT
BRANCH   3  12
ATOM     12  C   UNL     1       5.860   7.744  17.080  0.00  0.00    +0.000 C 
BRANCH  12  13
ATOM     13  C   UNL     1       7.223   7.757  17.755  0.00  0.00    +0.000 C 
ATOM     14  O   UNL     1       7.759   6.714  18.131  0.00  0.00    +0.000 OA
ATOM     15  N   UNL     1       7.775   8.998  17.984  0.00  0.00    +0.000 N 
ATOM     16  H   UNL     1       7.208   9.820  17.828  0.00  0.00    +0.000 HD
BRANCH  15  17
ATOM     17  C   UNL     1       9.016   9.144  18.699  0.00  0.00    +0.000 C 
BRANCH  17  18
ATOM     18  C   UNL     1       9.374  10.580  18.997  0.00  0.00    +0.000 A 
ATOM     19  C   UNL     1       9.692  11.517  17.983  0.00  0.00    +0.000 A 
ATOM     20  C   UNL     1      10.018  12.842  18.295  0.00  0.00    +0.000 A 
ATOM     21  C   UNL     1      10.013  13.200  19.628  0.00  0.00    +0.000 A 
ATOM     22  C   UNL     1       9.749  12.286  20.622  0.00  0.00    +0.000 A 
ATOM     23  C   UNL     1       9.443  10.975  20.342  0.00  0.00    +0.000 A 
ATOM     24  O   UNL     1       9.796  12.836  21.866  0.00  0.00    +0.000 OA
ATOM     25  C   UNL     1       9.842  14.231  21.509  0.00  0.00    +0.000 C 
ATOM     26  O   UNL     1      10.236  14.445  20.137  0.00  0.00    +0.000 OA
ENDBRANCH  17  18
ENDBRANCH  15  17
ENDBRANCH  12  13
ENDBRANCH   3  12
BRANCH  11  27
ATOM     27  C   UNL     1       3.208   3.471  17.107  0.00  0.00    +0.000 C 
BRANCH  27  28
ATOM     28  C   UNL     1       3.568   2.267  17.988  0.00  0.00    +0.000 C 
BRANCH  28  29
ATOM     29  N   UNL     1       2.758   2.288  19.206  0.00  0.00    +0.000 NA
ATOM     30  C   UNL     1       3.509   2.704  20.408  0.00  0.00    +0.000 C 
ATOM     31  C   UNL     1       2.620   2.487  21.639  0.00  0.00    +0.000 C 
ATOM     32  O   UNL     1       1.394   3.227  21.542  0.00  0.00    +0.000 OA
ATOM     33  C   UNL     1       0.693   2.897  20.331  0.00  0.00    +0.000 C 
ATOM     34  C   UNL     1       1.570   3.153  19.097  0.00  0.00    +0.000 C 
ENDBRANCH  28  29
ENDBRANCH  27  28
ENDBRANCH  11  27
TORSDOF 7
ENDMDL
MODEL 7
REMARK VINA RESULT:      -7.8      6.806     10.652
REMARK  Name = 
REMARK  8 active torsions:
REMARK  status: ('A' for Active; 'I' for Inactive)
REMARK    1  A    between atoms: C_1  and  C_2
REMARK    2  A    between atoms: C_3  and  C_4
REMARK    3  A    between atoms: C_4  and  C_5
REMARK    4  A    between atoms: N_7  and  C_8
REMARK    5  A    between atoms: C_8  and  C_9
REMARK    6  A    between atoms: N_25  and  C_26
REMARK    7  A    between atoms: C_26  and  C_27
REMARK    8  A    between atoms: C_27  and  N_28
REMARK                            x       y       z     vdW  Elec       q    Type
REMARK                         _______ _______ _______ _____ _____    ______ ____
ROOT
ATOM      1  C   UNL     1      -0.435   9.988  17.995  0.00  0.00    +0.000 C 
ATOM      2  C   UNL     1      -0.918  10.883  19.096  0.00  0.00    +0.000 A 
ATOM      3  C   UNL     1      -0.394  11.084  20.363  0.00  0.00    +0.000 A 
ATOM      4  C   UNL     1      -1.230  12.029  21.030  0.00  0.00    +0.000 A 
ATOM      5  C   UNL     1      -1.184  12.617  22.313  0.00  0.00    +0.000 A 
ATOM      6  C   UNL     1      -2.171  13.527  22.692  0.00  0.00    +0.000 A 
ATOM      7 CL   UNL     1      -2.105  14.256  24.249  0.00  0.00    +0.000 Cl
ATOM      8  C   UNL     1      -3.208  13.847  21.832  0.00  0.00    +0.000 A 
ATOM      9  C   UNL     1      -3.281  13.268  20.564  0.00  0.00    +0.000 A 
ATOM     10  C   UNL     1      -2.281  12.361  20.165  0.00  0.00    +0.000 A 
ATOM     11  N   UNL     1      -2.086  11.636  18.998  0.00  0.00    +0.000 N 
ENDROOT
BRANCH   3  12
ATOM     12  C   UNL     1       0.818  10.430  20.956  0.00  0.00    +0.000 C 
BRANCH  12  13
ATOM     13  C   UNL     1       0.604   8.957  21.268  0.00  0.00    +0.000 C 
ATOM     14  O   UNL     1      -0.352   8.580  21.946  0.00  0.00    +0.000 OA
ATOM     15  N   UNL     1       1.577   8.094  20.813  0.00  0.00    +0.000 N 
ATOM     16  H   UNL     1       2.430   8.477  20.430  0.00  0.00    +0.000 HD
BRANCH  15  17
ATOM     17  C   UNL     1       1.535   6.688  21.127  0.00  0.00    +0.000 C 
BRANCH  17  18
ATOM     18  C   UNL     1       2.053   5.808  20.015  0.00  0.00    +0.000 A 
ATOM     19  C   UNL     1       2.695   6.327  18.864  0.00  0.00    +0.000 A 
ATOM     20  C   UNL     1       3.165   5.481  17.851  0.00  0.00    +0.000 A 
ATOM     21  C   UNL     1       2.981   4.124  18.022  0.00  0.00    +0.000 A 
ATOM     22  C   UNL     1       2.319   3.616  19.116  0.00  0.00    +0.000 A 
ATOM     23  C   UNL     1       1.834   4.426  20.114  0.00  0.00    +0.000 A 
ATOM     24  O   UNL     1       2.242   2.257  19.096  0.00  0.00    +0.000 OA
ATOM     25  C   UNL     1       3.162   1.980  18.022  0.00  0.00    +0.000 C 
ATOM     26  O   UNL     1       3.418   3.134  17.194  0.00  0.00    +0.000 OA
ENDBRANCH  17  18
ENDBRANCH  15  17
ENDBRANCH  12  13
ENDBRANCH   3  12
BRANCH  11  27
ATOM     27  C   UNL     1      -2.992  11.526  17.860  0.00  0.00    +0.000 C 
BRANCH  27  28
ATOM     28  C   UNL     1      -4.082  10.445  17.883  0.00  0.00    +0.000 C 
BRANCH  28  29
ATOM     29  N   UNL     1      -5.401  11.076  17.906  0.00  0.00    +0.000 NA
ATOM     30  C   UNL     1      -5.929  11.294  19.268  0.00  0.00    +0.000 C 
ATOM     31  C   UNL     1      -7.386  11.761  19.159  0.00  0.00    +0.000 C 
ATOM     32  O   UNL     1      -7.497  12.966  18.387  0.00  0.00    +0.000 OA
ATOM     33  C   UNL     1      -6.907  12.797  17.087  0.00  0.00    +0.000 C 
ATOM     34  C   UNL     1      -5.437  12.368  17.198  0.00  0.00    +0.000 C 
ENDBRANCH  28  29
ENDBRANCH  27  28
ENDBRANCH  11  27
TORSDOF 7
ENDMDL
MODEL 8
REMARK VINA RESULT:      -7.8      3.577      4.964
REMARK  Name = 
REMARK  8 active torsions:
REMARK  status: ('A' for Active; 'I' for Inactive)
REMARK    1  A    between atoms: C_1  and  C_2
REMARK    2  A    between atoms: C_3  and  C_4
REMARK    3  A    between atoms: C_4  and  C_5
REMARK    4  A    between atoms: N_7  and  C_8
REMARK    5  A    between atoms: C_8  and  C_9
REMARK    6  A    between atoms: N_25  and  C_26
REMARK    7  A    between atoms: C_26  and  C_27
REMARK    8  A    between atoms: C_27  and  N_28
REMARK                            x       y       z     vdW  Elec       q    Type
REMARK                         _______ _______ _______ _____ _____    ______ ____
ROOT
ATOM      1  C   UNL     1       2.749   9.210  17.876  0.00  0.00    +0.000 C 
ATOM      2  C   UNL     1       2.929   7.814  18.392  0.00  0.00    +0.000 A 
ATOM      3  C   UNL     1       3.727   6.791  17.906  0.00  0.00    +0.000 A 
ATOM      4  C   UNL     1       3.533   5.656  18.751  0.00  0.00    +0.000 A 
ATOM      5  C   UNL     1       4.081   4.355  18.754  0.00  0.00    +0.000 A 
ATOM      6  C   UNL     1       3.683   3.439  19.728  0.00  0.00    +0.000 A 
ATOM      7 CL   UNL     1       4.364   1.859  19.743  0.00  0.00    +0.000 Cl
ATOM      8  C   UNL     1       2.741   3.785  20.683  0.00  0.00    +0.000 A 
ATOM      9  C   UNL     1       2.176   5.062  20.690  0.00  0.00    +0.000 A 
ATOM     10  C   UNL     1       2.583   5.999  19.721  0.00  0.00    +0.000 A 
ATOM     11  N   UNL     1       2.210   7.312  19.474  0.00  0.00    +0.000 N 
ENDROOT
BRANCH   3  12
ATOM     12  C   UNL     1       4.625   6.834  16.707  0.00  0.00    +0.000 C 
BRANCH  12  13
ATOM     13  C   UNL     1       6.101   6.830  17.071  0.00  0.00    +0.000 C 
ATOM     14  O   UNL     1       6.734   5.778  17.163  0.00  0.00    +0.000 OA
ATOM     15  N   UNL     1       6.656   8.057  17.363  0.00  0.00    +0.000 N 
ATOM     16  H   UNL     1       6.048   8.858  17.457  0.00  0.00    +0.000 HD
BRANCH  15  17
ATOM     17  C   UNL     1       8.020   8.173  17.812  0.00  0.00    +0.000 C 
BRANCH  17  18
ATOM     18  C   UNL     1       8.420   9.585  18.165  0.00  0.00    +0.000 A 
ATOM     19  C   UNL     1       8.045  10.705  17.383  0.00  0.00    +0.000 A 
ATOM     20  C   UNL     1       8.432  12.002  17.740  0.00  0.00    +0.000 A 
ATOM     21  C   UNL     1       9.189  12.146  18.885  0.00  0.00    +0.000 A 
ATOM     22  C   UNL     1       9.594  11.059  19.626  0.00  0.00    +0.000 A 
ATOM     23  C   UNL     1       9.242   9.775  19.286  0.00  0.00    +0.000 A 
ATOM     24  O   UNL     1      10.332  11.413  20.713  0.00  0.00    +0.000 OA
ATOM     25  C   UNL     1      10.100  12.834  20.709  0.00  0.00    +0.000 C 
ATOM     26  O   UNL     1       9.610  13.317  19.440  0.00  0.00    +0.000 OA
ENDBRANCH  17  18
ENDBRANCH  15  17
ENDBRANCH  12  13
ENDBRANCH   3  12
BRANCH  11  27
ATOM     27  C   UNL     1       1.141   8.067  20.118  0.00  0.00    +0.000 C 
BRANCH  27  28
ATOM     28  C   UNL     1       1.371   8.620  21.532  0.00  0.00    +0.000 C 
BRANCH  28  29
ATOM     29  N   UNL     1       0.583   9.837  21.719  0.00  0.00    +0.000 NA
ATOM     30  C   UNL     1      -0.017  10.351  20.470  0.00  0.00    +0.000 C 
ATOM     31  C   UNL     1      -0.635  11.725  20.754  0.00  0.00    +0.000 C 
ATOM     32  O   UNL     1      -1.630  11.654  21.787  0.00  0.00    +0.000 OA
ATOM     33  C   UNL     1      -1.083  11.073  22.983  0.00  0.00    +0.000 C 
ATOM     34  C   UNL     1      -0.500   9.680  22.706  0.00  0.00    +0.000 C 
ENDBRANCH  28  29
ENDBRANCH  27  28
ENDBRANCH  11  27
TORSDOF 7
ENDMDL
MODEL 9
REMARK VINA RESULT:      -7.7      4.464      7.626
REMARK  Name = 
REMARK  8 active torsions:
REMARK  status: ('A' for Active; 'I' for Inactive)
REMARK    1  A    between atoms: C_1  and  C_2
REMARK    2  A    between atoms: C_3  and  C_4
REMARK    3  A    between atoms: C_4  and  C_5
REMARK    4  A    between atoms: N_7  and  C_8
REMARK    5  A    between atoms: C_8  and  C_9
REMARK    6  A    between atoms: N_25  and  C_26
REMARK    7  A    between atoms: C_26  and  C_27
REMARK    8  A    between atoms: C_27  and  N_28
REMARK                            x       y       z     vdW  Elec       q    Type
REMARK                         _______ _______ _______ _____ _____    ______ ____
ROOT
ATOM      1  C   UNL     1       1.706   4.615  17.360  0.00  0.00    +0.000 C 
ATOM      2  C   UNL     1       3.099   5.146  17.519  0.00  0.00    +0.000 A 
ATOM      3  C   UNL     1       3.553   6.454  17.486  0.00  0.00    +0.000 A 
ATOM      4  C   UNL     1       4.968   6.424  17.680  0.00  0.00    +0.000 A 
ATOM      5  C   UNL     1       5.950   7.435  17.754  0.00  0.00    +0.000 A 
ATOM      6  C   UNL     1       7.286   7.088  17.949  0.00  0.00    +0.000 A 
ATOM      7 CL   UNL     1       8.481   8.322  18.057  0.00  0.00    +0.000 Cl
ATOM      8  C   UNL     1       7.665   5.761  18.053  0.00  0.00    +0.000 A 
ATOM      9  C   UNL     1       6.713   4.743  17.969  0.00  0.00    +0.000 A 
ATOM     10  C   UNL     1       5.359   5.083  17.789  0.00  0.00    +0.000 A 
ATOM     11  N   UNL     1       4.209   4.317  17.668  0.00  0.00    +0.000 N 
ENDROOT
BRANCH   3  12
ATOM     12  C   UNL     1       2.735   7.692  17.272  0.00  0.00    +0.000 C 
BRANCH  12  13
ATOM     13  C   UNL     1       2.140   8.239  18.560  0.00  0.00    +0.000 C 
ATOM     14  O   UNL     1       2.204   7.605  19.613  0.00  0.00    +0.000 OA
ATOM     15  N   UNL     1       1.467   9.437  18.456  0.00  0.00    +0.000 N 
ATOM     16  H   UNL     1       1.283   9.815  17.537  0.00  0.00    +0.000 HD
BRANCH  15  17
ATOM     17  C   UNL     1       0.781  10.010  19.585  0.00  0.00    +0.000 C 
BRANCH  17  18
ATOM     18  C   UNL     1      -0.586  10.555  19.246  0.00  0.00    +0.000 A 
ATOM     19  C   UNL     1      -1.281  10.198  18.064  0.00  0.00    +0.000 A 
ATOM     20  C   UNL     1      -2.548  10.721  17.781  0.00  0.00    +0.000 A 
ATOM     21  C   UNL     1      -3.094  11.594  18.700  0.00  0.00    +0.000 A 
ATOM     22  C   UNL     1      -2.407  11.980  19.828  0.00  0.00    +0.000 A 
ATOM     23  C   UNL     1      -1.155  11.493  20.120  0.00  0.00    +0.000 A 
ATOM     24  O   UNL     1      -3.117  12.845  20.603  0.00  0.00    +0.000 OA
ATOM     25  C   UNL     1      -4.407  12.729  19.973  0.00  0.00    +0.000 C 
ATOM     26  O   UNL     1      -4.333  12.160  18.649  0.00  0.00    +0.000 OA
ENDBRANCH  17  18
ENDBRANCH  15  17
ENDBRANCH  12  13
ENDBRANCH   3  12
BRANCH  11  27
ATOM     27  C   UNL     1       4.117   2.865  17.564  0.00  0.00    +0.000 C 
BRANCH  27  28
ATOM     28  C   UNL     1       4.018   2.034  18.851  0.00  0.00    +0.000 C 
BRANCH  28  29
ATOM     29  N   UNL     1       2.983   2.593  19.718  0.00  0.00    +0.000 NA
ATOM     30  C   UNL     1       1.654   1.976  19.526  0.00  0.00    +0.000 C 
ATOM     31  C   UNL     1       0.622   2.776  20.330  0.00  0.00    +0.000 C 
ATOM     32  O   UNL     1       0.952   2.813  21.726  0.00  0.00    +0.000 OA
ATOM     33  C   UNL     1       2.278   3.330  21.924  0.00  0.00    +0.000 C 
ATOM     34  C   UNL     1       3.316   2.503  21.151  0.00  0.00    +0.000 C 
ENDBRANCH  28  29
ENDBRANCH  27  28
ENDBRANCH  11  27
TORSDOF 7
ENDMDL
