MODEL 1
REMARK VINA RESULT:      -6.3      0.000      0.000
REMARK  Name = 
REMARK  17 active torsions:
REMARK  status: ('A' for Active; 'I' for Inactive)
REMARK    1  A    between atoms: C_1  and  O_2
REMARK    2  A    between atoms: O_2  and  C_3
REMARK    3  A    between atoms: C_4  and  O_5
REMARK    4  A    between atoms: O_5  and  C_6
REMARK    5  A    between atoms: C_9  and  C_10
REMARK    6  A    between atoms: C_10  and  C_11
REMARK    7  A    between atoms: C_11  and  C_12
REMARK    8  A    between atoms: C_12  and  C_13
REMARK    9  A    between atoms: C_13  and  C_14
REMARK   10  A    between atoms: C_14  and  C_15
REMARK   11  A    between atoms: C_15  and  C_16
REMARK   12  A    between atoms: C_16  and  C_17
REMARK   13  A    between atoms: C_17  and  C_18
REMARK   14  A    between atoms: C_18  and  C_19
REMARK   15  A    between atoms: C_18  and  C_20
REMARK   16  A    between atoms: C_18  and  C_21
REMARK   17  A    between atoms: C_22  and  C_23
REMARK                            x       y       z     vdW  Elec       q    Type
REMARK                         _______ _______ _______ _____ _____    ______ ____
ROOT
ATOM      1  C   UNL     1       0.824  10.210  19.251  0.00  0.00    +0.000 C 
ATOM      2  C   UNL     1       0.409   9.570  20.360  0.00  0.00    +0.000 C 
ATOM      3  C   UNL     1       0.894   8.190  20.648  0.00  0.00    +0.000 C 
ATOM      4  O   UNL     1       0.472   7.597  21.634  0.00  0.00    +0.000 OA
ATOM      5  C   UNL     1       1.879   7.536  19.730  0.00  0.00    +0.000 C 
ATOM      6  C   UNL     1       2.267   8.175  18.610  0.00  0.00    +0.000 C 
ATOM      7  C   UNL     1       3.242   7.646  17.576  0.00  0.00    +0.000 C 
ATOM      8  C   UNL     1       1.747   9.534  18.289  0.00  0.00    +0.000 C 
ATOM      9  O   UNL     1       2.106  10.086  17.259  0.00  0.00    +0.000 OA
ENDROOT
BRANCH   1  11
ATOM     10  C   UNL     1       1.119  12.599  19.439  0.00  0.00    +0.000 C 
ATOM     11  O   UNL     1       0.448  11.488  18.860  0.00  0.00    +0.000 OA
ENDBRANCH   1  11
BRANCH   2  12
ATOM     12  O   UNL     1      -0.561  10.148  21.170  0.00  0.00    +0.000 OA
ATOM     13  C   UNL     1      -0.174  10.691  22.426  0.00  0.00    +0.000 C 
ENDBRANCH   2  12
BRANCH   5  14
ATOM     14  C   UNL     1       2.393   6.158  20.123  0.00  0.00    +0.000 C 
BRANCH  14  15
ATOM     15  C   UNL     1       1.383   5.070  20.522  0.00  0.00    +0.000 C 
BRANCH  15  16
ATOM     16  C   UNL     1       1.438   3.841  19.624  0.00  0.00    +0.000 C 
BRANCH  16  17
ATOM     17  C   UNL     1       1.663   4.268  18.183  0.00  0.00    +0.000 C 
BRANCH  17  18
ATOM     18  C   UNL     1       2.719   3.408  17.547  0.00  0.00    +0.000 C 
BRANCH  18  19
ATOM     19  C   UNL     1       3.927   4.259  17.197  0.00  0.00    +0.000 C 
BRANCH  19  20
ATOM     20  C   UNL     1       5.056   3.977  18.167  0.00  0.00    +0.000 C 
BRANCH  20  21
ATOM     21  C   UNL     1       5.648   5.260  18.770  0.00  0.00    +0.000 C 
BRANCH  21  22
ATOM     22  C   UNL     1       7.028   5.642  18.200  0.00  0.00    +0.000 C 
ATOM     23  C   UNL     1       6.941   6.970  17.427  0.00  0.00    +0.000 C 
ATOM     24  C   UNL     1       8.016   5.816  19.369  0.00  0.00    +0.000 C 
ATOM     25  C   UNL     1       7.531   4.525  17.279  0.00  0.00    +0.000 C 
ENDBRANCH  21  22
ENDBRANCH  20  21
ENDBRANCH  19  20
ENDBRANCH  18  19
ENDBRANCH  17  18
ENDBRANCH  16  17
ENDBRANCH  15  16
ENDBRANCH  14  15
ENDBRANCH   5  14
TORSDOF 11
ENDMDL
MODEL 2
REMARK VINA RESULT:      -5.9      2.594      7.574
REMARK  Name = 
REMARK  17 active torsions:
REMARK  status: ('A' for Active; 'I' for Inactive)
REMARK    1  A    between atoms: C_1  and  O_2
REMARK    2  A    between atoms: O_2  and  C_3
REMARK    3  A    between atoms: C_4  and  O_5
REMARK    4  A    between atoms: O_5  and  C_6
REMARK    5  A    between atoms: C_9  and  C_10
REMARK    6  A    between atoms: C_10  and  C_11
REMARK    7  A    between atoms: C_11  and  C_12
REMARK    8  A    between atoms: C_12  and  C_13
REMARK    9  A    between atoms: C_13  and  C_14
REMARK   10  A    between atoms: C_14  and  C_15
REMARK   11  A    between atoms: C_15  and  C_16
REMARK   12  A    between atoms: C_16  and  C_17
REMARK   13  A    between atoms: C_17  and  C_18
REMARK   14  A    between atoms: C_18  and  C_19
REMARK   15  A    between atoms: C_18  and  C_20
REMARK   16  A    between atoms: C_18  and  C_21
REMARK   17  A    between atoms: C_22  and  C_23
REMARK                            x       y       z     vdW  Elec       q    Type
REMARK                         _______ _______ _______ _____ _____    ______ ____
ROOT
ATOM      1  C   UNL     1       4.655   4.985  18.175  0.00  0.00    +0.000 C 
ATOM      2  C   UNL     1       4.224   4.344  19.278  0.00  0.00    +0.000 C 
ATOM      3  C   UNL     1       3.126   4.929  20.099  0.00  0.00    +0.000 C 
ATOM      4  O   UNL     1       2.776   4.363  21.128  0.00  0.00    +0.000 OA
ATOM      5  C   UNL     1       2.471   6.205  19.669  0.00  0.00    +0.000 C 
ATOM      6  C   UNL     1       2.926   6.851  18.580  0.00  0.00    +0.000 C 
ATOM      7  C   UNL     1       2.383   8.153  18.025  0.00  0.00    +0.000 C 
ATOM      8  C   UNL     1       4.058   6.297  17.784  0.00  0.00    +0.000 C 
ATOM      9  O   UNL     1       4.460   6.911  16.806  0.00  0.00    +0.000 OA
ENDROOT
BRANCH   1  11
ATOM     10  C   UNL     1       7.016   4.814  17.701  0.00  0.00    +0.000 C 
ATOM     11  O   UNL     1       5.668   4.557  17.329  0.00  0.00    +0.000 OA
ENDBRANCH   1  11
BRANCH   2  12
ATOM     12  O   UNL     1       4.884   3.201  19.715  0.00  0.00    +0.000 OA
ATOM     13  C   UNL     1       4.278   1.932  19.501  0.00  0.00    +0.000 C 
ENDBRANCH   2  12
BRANCH   5  14
ATOM     14  C   UNL     1       1.304   6.707  20.509  0.00  0.00    +0.000 C 
BRANCH  14  15
ATOM     15  C   UNL     1       1.430   8.060  21.228  0.00  0.00    +0.000 C 
BRANCH  15  16
ATOM     16  C   UNL     1       0.087   8.727  21.493  0.00  0.00    +0.000 C 
BRANCH  16  17
ATOM     17  C   UNL     1       0.218   9.702  22.652  0.00  0.00    +0.000 C 
BRANCH  17  18
ATOM     18  C   UNL     1      -1.123  10.293  22.985  0.00  0.00    +0.000 C 
BRANCH  18  19
ATOM     19  C   UNL     1      -1.022  11.808  23.004  0.00  0.00    +0.000 C 
BRANCH  19  20
ATOM     20  C   UNL     1      -0.284  12.293  21.774  0.00  0.00    +0.000 C 
BRANCH  20  21
ATOM     21  C   UNL     1      -1.201  12.409  20.545  0.00  0.00    +0.000 C 
BRANCH  21  22
ATOM     22  C   UNL     1      -0.596  11.825  19.255  0.00  0.00    +0.000 C 
ATOM     23  C   UNL     1       0.904  11.538  19.448  0.00  0.00    +0.000 C 
ATOM     24  C   UNL     1      -1.312  10.502  18.927  0.00  0.00    +0.000 C 
ATOM     25  C   UNL     1      -0.802  12.809  18.098  0.00  0.00    +0.000 C 
ENDBRANCH  21  22
ENDBRANCH  20  21
ENDBRANCH  19  20
ENDBRANCH  18  19
ENDBRANCH  17  18
ENDBRANCH  16  17
ENDBRANCH  15  16
ENDBRANCH  14  15
ENDBRANCH   5  14
TORSDOF 11
ENDMDL
MODEL 3
REMARK VINA RESULT:      -5.9      0.901      1.288
REMARK  Name = 
REMARK  17 active torsions:
REMARK  status: ('A' for Active; 'I' for Inactive)
REMARK    1  A    between atoms: C_1  and  O_2
REMARK    2  A    between atoms: O_2  and  C_3
REMARK    3  A    between atoms: C_4  and  O_5
REMARK    4  A    between atoms: O_5  and  C_6
REMARK    5  A    between atoms: C_9  and  C_10
REMARK    6  A    between atoms: C_10  and  C_11
REMARK    7  A    between atoms: C_11  and  C_12
REMARK    8  A    between atoms: C_12  and  C_13
REMARK    9  A    between atoms: C_13  and  C_14
REMARK   10  A    between atoms: C_14  and  C_15
REMARK   11  A    between atoms: C_15  and  C_16
REMARK   12  A    between atoms: C_16  and  C_17
REMARK   13  A    between atoms: C_17  and  C_18
REMARK   14  A    between atoms: C_18  and  C_19
REMARK   15  A    between atoms: C_18  and  C_20
REMARK   16  A    between atoms: C_18  and  C_21
REMARK   17  A    between atoms: C_22  and  C_23
REMARK                            x       y       z     vdW  Elec       q    Type
REMARK                         _______ _______ _______ _____ _____    ______ ____
ROOT
ATOM      1  C   UNL     1       1.194  10.571  19.466  0.00  0.00    +0.000 C 
ATOM      2  C   UNL     1       0.984  10.183  20.737  0.00  0.00    +0.000 C 
ATOM      3  C   UNL     1       1.227   8.766  21.133  0.00  0.00    +0.000 C 
ATOM      4  O   UNL     1       0.985   8.412  22.282  0.00  0.00    +0.000 OA
ATOM      5  C   UNL     1       1.751   7.789  20.128  0.00  0.00    +0.000 C 
ATOM      6  C   UNL     1       1.932   8.181  18.853  0.00  0.00    +0.000 C 
ATOM      7  C   UNL     1       2.440   7.312  17.718  0.00  0.00    +0.000 C 
ATOM      8  C   UNL     1       1.642   9.582  18.439  0.00  0.00    +0.000 C 
ATOM      9  O   UNL     1       1.804   9.908  17.271  0.00  0.00    +0.000 OA
ENDROOT
BRANCH   1  11
ATOM     10  C   UNL     1       2.107  12.743  18.939  0.00  0.00    +0.000 C 
ATOM     11  O   UNL     1       1.002  11.851  18.964  0.00  0.00    +0.000 OA
ENDBRANCH   1  11
BRANCH   2  12
ATOM     12  O   UNL     1       0.427  11.073  21.649  0.00  0.00    +0.000 OA
ATOM     13  C   UNL     1      -0.985  11.235  21.677  0.00  0.00    +0.000 C 
ENDBRANCH   2  12
BRANCH   5  14
ATOM     14  C   UNL     1       2.051   6.378  20.617  0.00  0.00    +0.000 C 
BRANCH  14  15
ATOM     15  C   UNL     1       0.997   5.277  20.415  0.00  0.00    +0.000 C 
BRANCH  15  16
ATOM     16  C   UNL     1       1.531   3.878  20.687  0.00  0.00    +0.000 C 
BRANCH  16  17
ATOM     17  C   UNL     1       1.933   3.219  19.377  0.00  0.00    +0.000 C 
BRANCH  17  18
ATOM     18  C   UNL     1       3.360   2.752  19.450  0.00  0.00    +0.000 C 
BRANCH  18  19
ATOM     19  C   UNL     1       4.050   3.014  18.123  0.00  0.00    +0.000 C 
BRANCH  19  20
ATOM     20  C   UNL     1       4.409   4.481  18.007  0.00  0.00    +0.000 C 
BRANCH  20  21
ATOM     21  C   UNL     1       5.605   4.866  18.893  0.00  0.00    +0.000 C 
BRANCH  21  22
ATOM     22  C   UNL     1       6.778   5.498  18.120  0.00  0.00    +0.000 C 
ATOM     23  C   UNL     1       7.324   4.511  17.072  0.00  0.00    +0.000 C 
ATOM     24  C   UNL     1       6.271   6.757  17.393  0.00  0.00    +0.000 C 
ATOM     25  C   UNL     1       7.886   5.896  19.101  0.00  0.00    +0.000 C 
ENDBRANCH  21  22
ENDBRANCH  20  21
ENDBRANCH  19  20
ENDBRANCH  18  19
ENDBRANCH  17  18
ENDBRANCH  16  17
ENDBRANCH  15  16
ENDBRANCH  14  15
ENDBRANCH   5  14
TORSDOF 11
ENDMDL
MODEL 4
REMARK VINA RESULT:      -5.8      4.051      6.788
REMARK  Name = 
REMARK  17 active torsions:
REMARK  status: ('A' for Active; 'I' for Inactive)
REMARK    1  A    between atoms: C_1  and  O_2
REMARK    2  A    between atoms: O_2  and  C_3
REMARK    3  A    between atoms: C_4  and  O_5
REMARK    4  A    between atoms: O_5  and  C_6
REMARK    5  A    between atoms: C_9  and  C_10
REMARK    6  A    between atoms: C_10  and  C_11
REMARK    7  A    between atoms: C_11  and  C_12
REMARK    8  A    between atoms: C_12  and  C_13
REMARK    9  A    between atoms: C_13  and  C_14
REMARK   10  A    between atoms: C_14  and  C_15
REMARK   11  A    between atoms: C_15  and  C_16
REMARK   12  A    between atoms: C_16  and  C_17
REMARK   13  A    between atoms: C_17  and  C_18
REMARK   14  A    between atoms: C_18  and  C_19
REMARK   15  A    between atoms: C_18  and  C_20
REMARK   16  A    between atoms: C_18  and  C_21
REMARK   17  A    between atoms: C_22  and  C_23
REMARK                            x       y       z     vdW  Elec       q    Type
REMARK                         _______ _______ _______ _____ _____    ______ ____
ROOT
ATOM      1  C   UNL     1       2.427   4.489  18.321  0.00  0.00    +0.000 C 
ATOM      2  C   UNL     1       2.535   5.830  18.327  0.00  0.00    +0.000 C 
ATOM      3  C   UNL     1       3.647   6.492  17.588  0.00  0.00    +0.000 C 
ATOM      4  O   UNL     1       3.764   7.711  17.642  0.00  0.00    +0.000 OA
ATOM      5  C   UNL     1       4.617   5.667  16.801  0.00  0.00    +0.000 C 
ATOM      6  C   UNL     1       4.517   4.324  16.823  0.00  0.00    +0.000 C 
ATOM      7  C   UNL     1       5.423   3.352  16.094  0.00  0.00    +0.000 C 
ATOM      8  C   UNL     1       3.437   3.654  17.601  0.00  0.00    +0.000 C 
ATOM      9  O   UNL     1       3.376   2.433  17.614  0.00  0.00    +0.000 OA
ENDROOT
BRANCH   1  11
ATOM     10  C   UNL     1       1.655   3.394  20.330  0.00  0.00    +0.000 C 
ATOM     11  O   UNL     1       1.449   3.748  18.969  0.00  0.00    +0.000 OA
ENDBRANCH   1  11
BRANCH   2  12
ATOM     12  O   UNL     1       1.679   6.588  19.119  0.00  0.00    +0.000 OA
ATOM     13  C   UNL     1       2.113   6.987  20.414  0.00  0.00    +0.000 C 
ENDBRANCH   2  12
BRANCH   5  14
ATOM     14  C   UNL     1       5.682   6.410  16.007  0.00  0.00    +0.000 C 
BRANCH  14  15
ATOM     15  C   UNL     1       7.106   6.509  16.579  0.00  0.00    +0.000 C 
BRANCH  15  16
ATOM     16  C   UNL     1       7.150   6.430  18.098  0.00  0.00    +0.000 C 
BRANCH  16  17
ATOM     17  C   UNL     1       8.258   7.326  18.627  0.00  0.00    +0.000 C 
BRANCH  17  18
ATOM     18  C   UNL     1       8.099   8.719  18.086  0.00  0.00    +0.000 C 
BRANCH  18  19
ATOM     19  C   UNL     1       9.048   9.659  18.810  0.00  0.00    +0.000 C 
BRANCH  19  20
ATOM     20  C   UNL     1       9.131  10.979  18.072  0.00  0.00    +0.000 C 
BRANCH  20  21
ATOM     21  C   UNL     1      10.579  11.457  17.882  0.00  0.00    +0.000 C 
BRANCH  21  22
ATOM     22  C   UNL     1      11.011  12.554  18.874  0.00  0.00    +0.000 C 
ATOM     23  C   UNL     1      11.772  13.672  18.138  0.00  0.00    +0.000 C 
ATOM     24  C   UNL     1       9.751  13.159  19.521  0.00  0.00    +0.000 C 
ATOM     25  C   UNL     1      11.894  11.943  19.966  0.00  0.00    +0.000 C 
ENDBRANCH  21  22
ENDBRANCH  20  21
ENDBRANCH  19  20
ENDBRANCH  18  19
ENDBRANCH  17  18
ENDBRANCH  16  17
ENDBRANCH  15  16
ENDBRANCH  14  15
ENDBRANCH   5  14
TORSDOF 11
ENDMDL
MODEL 5
REMARK VINA RESULT:      -5.8      3.907      8.590
REMARK  Name = 
REMARK  17 active torsions:
REMARK  status: ('A' for Active; 'I' for Inactive)
REMARK    1  A    between atoms: C_1  and  O_2
REMARK    2  A    between atoms: O_2  and  C_3
REMARK    3  A    between atoms: C_4  and  O_5
REMARK    4  A    between atoms: O_5  and  C_6
REMARK    5  A    between atoms: C_9  and  C_10
REMARK    6  A    between atoms: C_10  and  C_11
REMARK    7  A    between atoms: C_11  and  C_12
REMARK    8  A    between atoms: C_12  and  C_13
REMARK    9  A    between atoms: C_13  and  C_14
REMARK   10  A    between atoms: C_14  and  C_15
REMARK   11  A    between atoms: C_15  and  C_16
REMARK   12  A    between atoms: C_16  and  C_17
REMARK   13  A    between atoms: C_17  and  C_18
REMARK   14  A    between atoms: C_18  and  C_19
REMARK   15  A    between atoms: C_18  and  C_20
REMARK   16  A    between atoms: C_18  and  C_21
REMARK   17  A    between atoms: C_22  and  C_23
REMARK                            x       y       z     vdW  Elec       q    Type
REMARK                         _______ _______ _______ _____ _____    ______ ____
ROOT
ATOM      1  C   UNL     1       3.620   3.882  18.815  0.00  0.00    +0.000 C 
ATOM      2  C   UNL     1       2.802   4.470  19.707  0.00  0.00    +0.000 C 
ATOM      3  C   UNL     1       2.514   5.930  19.604  0.00  0.00    +0.000 C 
ATOM      4  O   UNL     1       1.807   6.465  20.451  0.00  0.00    +0.000 OA
ATOM      5  C   UNL     1       3.099   6.729  18.482  0.00  0.00    +0.000 C 
ATOM      6  C   UNL     1       3.937   6.137  17.611  0.00  0.00    +0.000 C 
ATOM      7  C   UNL     1       4.619   6.808  16.435  0.00  0.00    +0.000 C 
ATOM      8  C   UNL     1       4.269   4.690  17.738  0.00  0.00    +0.000 C 
ATOM      9  O   UNL     1       5.043   4.180  16.941  0.00  0.00    +0.000 OA
ENDROOT
BRANCH   1  11
ATOM     10  C   UNL     1       3.138   1.625  18.105  0.00  0.00    +0.000 C 
ATOM     11  O   UNL     1       3.976   2.540  18.799  0.00  0.00    +0.000 OA
ENDBRANCH   1  11
BRANCH   2  12
ATOM     12  O   UNL     1       2.321   3.743  20.789  0.00  0.00    +0.000 OA
ATOM     13  C   UNL     1       1.003   3.213  20.731  0.00  0.00    +0.000 C 
ENDBRANCH   2  12
BRANCH   5  14
ATOM     14  C   UNL     1       2.703   8.197  18.391  0.00  0.00    +0.000 C 
BRANCH  14  15
ATOM     15  C   UNL     1       1.369   8.571  17.725  0.00  0.00    +0.000 C 
BRANCH  15  16
ATOM     16  C   UNL     1       0.949  10.011  17.988  0.00  0.00    +0.000 C 
BRANCH  16  17
ATOM     17  C   UNL     1      -0.301  10.031  18.851  0.00  0.00    +0.000 C 
BRANCH  17  18
ATOM     18  C   UNL     1      -1.405  10.766  18.146  0.00  0.00    +0.000 C 
BRANCH  18  19
ATOM     19  C   UNL     1      -2.210   9.793  17.303  0.00  0.00    +0.000 C 
BRANCH  19  20
ATOM     20  C   UNL     1      -3.691  10.020  17.523  0.00  0.00    +0.000 C 
BRANCH  20  21
ATOM     21  C   UNL     1      -4.070  11.510  17.489  0.00  0.00    +0.000 C 
BRANCH  21  22
ATOM     22  C   UNL     1      -5.246  11.878  18.414  0.00  0.00    +0.000 C 
ATOM     23  C   UNL     1      -4.726  12.518  19.714  0.00  0.00    +0.000 C 
ATOM     24  C   UNL     1      -6.145  12.897  17.689  0.00  0.00    +0.000 C 
ATOM     25  C   UNL     1      -6.064  10.623  18.731  0.00  0.00    +0.000 C 
ENDBRANCH  21  22
ENDBRANCH  20  21
ENDBRANCH  19  20
ENDBRANCH  18  19
ENDBRANCH  17  18
ENDBRANCH  16  17
ENDBRANCH  15  16
ENDBRANCH  14  15
ENDBRANCH   5  14
TORSDOF 11
ENDMDL
MODEL 6
REMARK VINA RESULT:      -5.8      1.620      3.347
REMARK  Name = 
REMARK  17 active torsions:
REMARK  status: ('A' for Active; 'I' for Inactive)
REMARK    1  A    between atoms: C_1  and  O_2
REMARK    2  A    between atoms: O_2  and  C_3
REMARK    3  A    between atoms: C_4  and  O_5
REMARK    4  A    between atoms: O_5  and  C_6
REMARK    5  A    between atoms: C_9  and  C_10
REMARK    6  A    between atoms: C_10  and  C_11
REMARK    7  A    between atoms: C_11  and  C_12
REMARK    8  A    between atoms: C_12  and  C_13
REMARK    9  A    between atoms: C_13  and  C_14
REMARK   10  A    between atoms: C_14  and  C_15
REMARK   11  A    between atoms: C_15  and  C_16
REMARK   12  A    between atoms: C_16  and  C_17
REMARK   13  A    between atoms: C_17  and  C_18
REMARK   14  A    between atoms: C_18  and  C_19
REMARK   15  A    between atoms: C_18  and  C_20
REMARK   16  A    between atoms: C_18  and  C_21
REMARK   17  A    between atoms: C_22  and  C_23
REMARK                            x       y       z     vdW  Elec       q    Type
REMARK                         _______ _______ _______ _____ _____    ______ ____
ROOT
ATOM      1  C   UNL     1       0.941  12.382  20.960  0.00  0.00    +0.000 C 
ATOM      2  C   UNL     1       1.467  12.559  19.733  0.00  0.00    +0.000 C 
ATOM      3  C   UNL     1       1.646  11.392  18.824  0.00  0.00    +0.000 C 
ATOM      4  O   UNL     1       2.171  11.557  17.729  0.00  0.00    +0.000 OA
ATOM      5  C   UNL     1       1.196  10.031  19.256  0.00  0.00    +0.000 C 
ATOM      6  C   UNL     1       0.696   9.860  20.495  0.00  0.00    +0.000 C 
ATOM      7  C   UNL     1       0.212   8.550  21.086  0.00  0.00    +0.000 C 
ATOM      8  C   UNL     1       0.562  11.014  21.428  0.00  0.00    +0.000 C 
ATOM      9  O   UNL     1       0.116  10.828  22.551  0.00  0.00    +0.000 OA
ENDROOT
BRANCH   1  11
ATOM     10  C   UNL     1      -0.458  14.156  21.812  0.00  0.00    +0.000 C 
ATOM     11  O   UNL     1       0.726  13.375  21.905  0.00  0.00    +0.000 OA
ENDBRANCH   1  11
BRANCH   2  12
ATOM     12  O   UNL     1       1.951  13.808  19.363  0.00  0.00    +0.000 OA
ATOM     13  C   UNL     1       3.269  14.177  19.751  0.00  0.00    +0.000 C 
ENDBRANCH   2  12
BRANCH   5  14
ATOM     14  C   UNL     1       1.336   8.897  18.250  0.00  0.00    +0.000 C 
BRANCH  14  15
ATOM     15  C   UNL     1       2.660   8.119  18.182  0.00  0.00    +0.000 C 
BRANCH  15  16
ATOM     16  C   UNL     1       2.613   6.786  18.918  0.00  0.00    +0.000 C 
BRANCH  16  17
ATOM     17  C   UNL     1       2.057   5.712  17.998  0.00  0.00    +0.000 C 
BRANCH  17  18
ATOM     18  C   UNL     1       2.951   4.504  18.013  0.00  0.00    +0.000 C 
BRANCH  18  19
ATOM     19  C   UNL     1       3.720   4.455  19.322  0.00  0.00    +0.000 C 
BRANCH  19  20
ATOM     20  C   UNL     1       5.186   4.192  19.051  0.00  0.00    +0.000 C 
BRANCH  20  21
ATOM     21  C   UNL     1       6.054   5.447  19.241  0.00  0.00    +0.000 C 
BRANCH  21  22
ATOM     22  C   UNL     1       6.817   5.878  17.973  0.00  0.00    +0.000 C 
ATOM     23  C   UNL     1       5.872   6.607  17.001  0.00  0.00    +0.000 C 
ATOM     24  C   UNL     1       7.946   6.843  18.380  0.00  0.00    +0.000 C 
ATOM     25  C   UNL     1       7.427   4.647  17.296  0.00  0.00    +0.000 C 
ENDBRANCH  21  22
ENDBRANCH  20  21
ENDBRANCH  19  20
ENDBRANCH  18  19
ENDBRANCH  17  18
ENDBRANCH  16  17
ENDBRANCH  15  16
ENDBRANCH  14  15
ENDBRANCH   5  14
TORSDOF 11
ENDMDL
MODEL 7
REMARK VINA RESULT:      -5.8      4.263      7.206
REMARK  Name = 
REMARK  17 active torsions:
REMARK  status: ('A' for Active; 'I' for Inactive)
REMARK    1  A    between atoms: C_1  and  O_2
REMARK    2  A    between atoms: O_2  and  C_3
REMARK    3  A    between atoms: C_4  and  O_5
REMARK    4  A    between atoms: O_5  and  C_6
REMARK    5  A    between atoms: C_9  and  C_10
REMARK    6  A    between atoms: C_10  and  C_11
REMARK    7  A    between atoms: C_11  and  C_12
REMARK    8  A    between atoms: C_12  and  C_13
REMARK    9  A    between atoms: C_13  and  C_14
REMARK   10  A    between atoms: C_14  and  C_15
REMARK   11  A    between atoms: C_15  and  C_16
REMARK   12  A    between atoms: C_16  and  C_17
REMARK   13  A    between atoms: C_17  and  C_18
REMARK   14  A    between atoms: C_18  and  C_19
REMARK   15  A    between atoms: C_18  and  C_20
REMARK   16  A    between atoms: C_18  and  C_21
REMARK   17  A    between atoms: C_22  and  C_23
REMARK                            x       y       z     vdW  Elec       q    Type
REMARK                         _______ _______ _______ _____ _____    ______ ____
ROOT
ATOM      1  C   UNL     1       2.797   4.302  19.523  0.00  0.00    +0.000 C 
ATOM      2  C   UNL     1       3.857   3.719  18.932  0.00  0.00    +0.000 C 
ATOM      3  C   UNL     1       4.698   4.496  17.977  0.00  0.00    +0.000 C 
ATOM      4  O   UNL     1       5.630   3.941  17.407  0.00  0.00    +0.000 OA
ATOM      5  C   UNL     1       4.390   5.937  17.711  0.00  0.00    +0.000 C 
ATOM      6  C   UNL     1       3.312   6.502  18.287  0.00  0.00    +0.000 C 
ATOM      7  C   UNL     1       2.859   7.938  18.110  0.00  0.00    +0.000 C 
ATOM      8  C   UNL     1       2.438   5.717  19.203  0.00  0.00    +0.000 C 
ATOM      9  O   UNL     1       1.458   6.251  19.702  0.00  0.00    +0.000 OA
ENDROOT
BRANCH   1  11
ATOM     10  C   UNL     1       2.355   3.538  21.770  0.00  0.00    +0.000 C 
ATOM     11  O   UNL     1       1.932   3.695  20.422  0.00  0.00    +0.000 OA
ENDBRANCH   1  11
BRANCH   2  12
ATOM     12  O   UNL     1       4.096   2.363  19.122  0.00  0.00    +0.000 OA
ATOM     13  C   UNL     1       3.408   1.423  18.306  0.00  0.00    +0.000 C 
ENDBRANCH   2  12
BRANCH   5  14
ATOM     14  C   UNL     1       5.333   6.693  16.786  0.00  0.00    +0.000 C 
BRANCH  14  15
ATOM     15  C   UNL     1       6.790   6.220  16.656  0.00  0.00    +0.000 C 
BRANCH  15  16
ATOM     16  C   UNL     1       7.771   7.073  17.449  0.00  0.00    +0.000 C 
BRANCH  16  17
ATOM     17  C   UNL     1       7.173   8.448  17.695  0.00  0.00    +0.000 C 
BRANCH  17  18
ATOM     18  C   UNL     1       8.261   9.483  17.751  0.00  0.00    +0.000 C 
BRANCH  18  19
ATOM     19  C   UNL     1       8.967   9.408  19.094  0.00  0.00    +0.000 C 
BRANCH  19  20
ATOM     20  C   UNL     1       9.489  10.776  19.481  0.00  0.00    +0.000 C 
BRANCH  20  21
ATOM     21  C   UNL     1      10.023  11.565  18.274  0.00  0.00    +0.000 C 
BRANCH  21  22
ATOM     22  C   UNL     1      11.220  12.477  18.603  0.00  0.00    +0.000 C 
ATOM     23  C   UNL     1      12.244  11.726  19.473  0.00  0.00    +0.000 C 
ATOM     24  C   UNL     1      11.903  12.891  17.286  0.00  0.00    +0.000 C 
ATOM     25  C   UNL     1      10.727  13.733  19.329  0.00  0.00    +0.000 C 
ENDBRANCH  21  22
ENDBRANCH  20  21
ENDBRANCH  19  20
ENDBRANCH  18  19
ENDBRANCH  17  18
ENDBRANCH  16  17
ENDBRANCH  15  16
ENDBRANCH  14  15
ENDBRANCH   5  14
TORSDOF 11
ENDMDL
MODEL 8
REMARK VINA RESULT:      -5.8      3.739      6.731
REMARK  Name = 
REMARK  17 active torsions:
REMARK  status: ('A' for Active; 'I' for Inactive)
REMARK    1  A    between atoms: C_1  and  O_2
REMARK    2  A    between atoms: O_2  and  C_3
REMARK    3  A    between atoms: C_4  and  O_5
REMARK    4  A    between atoms: O_5  and  C_6
REMARK    5  A    between atoms: C_9  and  C_10
REMARK    6  A    between atoms: C_10  and  C_11
REMARK    7  A    between atoms: C_11  and  C_12
REMARK    8  A    between atoms: C_12  and  C_13
REMARK    9  A    between atoms: C_13  and  C_14
REMARK   10  A    between atoms: C_14  and  C_15
REMARK   11  A    between atoms: C_15  and  C_16
REMARK   12  A    between atoms: C_16  and  C_17
REMARK   13  A    between atoms: C_17  and  C_18
REMARK   14  A    between atoms: C_18  and  C_19
REMARK   15  A    between atoms: C_18  and  C_20
REMARK   16  A    between atoms: C_18  and  C_21
REMARK   17  A    between atoms: C_22  and  C_23
REMARK                            x       y       z     vdW  Elec       q    Type
REMARK                         _______ _______ _______ _____ _____    ______ ____
ROOT
ATOM      1  C   UNL     1       1.827   3.656  19.783  0.00  0.00    +0.000 C 
ATOM      2  C   UNL     1       2.493   3.194  18.708  0.00  0.00    +0.000 C 
ATOM      3  C   UNL     1       3.164   4.149  17.780  0.00  0.00    +0.000 C 
ATOM      4  O   UNL     1       3.725   3.721  16.778  0.00  0.00    +0.000 OA
ATOM      5  C   UNL     1       3.137   5.617  18.071  0.00  0.00    +0.000 C 
ATOM      6  C   UNL     1       2.446   6.071  19.134  0.00  0.00    +0.000 C 
ATOM      7  C   UNL     1       2.310   7.521  19.554  0.00  0.00    +0.000 C 
ATOM      8  C   UNL     1       1.730   5.126  20.037  0.00  0.00    +0.000 C 
ATOM      9  O   UNL     1       1.100   5.566  20.987  0.00  0.00    +0.000 OA
ENDROOT
BRANCH   1  11
ATOM     10  C   UNL     1       1.881   2.393  21.840  0.00  0.00    +0.000 C 
ATOM     11  O   UNL     1       1.156   2.882  20.719  0.00  0.00    +0.000 OA
ENDBRANCH   1  11
BRANCH   2  12
ATOM     12  O   UNL     1       2.453   1.839  18.401  0.00  0.00    +0.000 OA
ATOM     13  C   UNL     1       3.664   1.093  18.420  0.00  0.00    +0.000 C 
ENDBRANCH   2  12
BRANCH   5  14
ATOM     14  C   UNL     1       3.907   6.530  17.126  0.00  0.00    +0.000 C 
BRANCH  14  15
ATOM     15  C   UNL     1       5.311   7.007  17.529  0.00  0.00    +0.000 C 
BRANCH  15  16
ATOM     16  C   UNL     1       6.420   6.393  16.686  0.00  0.00    +0.000 C 
BRANCH  16  17
ATOM     17  C   UNL     1       7.647   6.149  17.550  0.00  0.00    +0.000 C 
BRANCH  17  18
ATOM     18  C   UNL     1       7.843   7.293  18.504  0.00  0.00    +0.000 C 
BRANCH  18  19
ATOM     19  C   UNL     1       8.145   8.562  17.725  0.00  0.00    +0.000 C 
BRANCH  19  20
ATOM     20  C   UNL     1       8.888   9.545  18.605  0.00  0.00    +0.000 C 
BRANCH  20  21
ATOM     21  C   UNL     1       8.952  10.953  17.991  0.00  0.00    +0.000 C 
BRANCH  21  22
ATOM     22  C   UNL     1       9.886  11.921  18.742  0.00  0.00    +0.000 C 
ATOM     23  C   UNL     1       9.519  13.380  18.418  0.00  0.00    +0.000 C 
ATOM     24  C   UNL     1       9.719  11.695  20.256  0.00  0.00    +0.000 C 
ATOM     25  C   UNL     1      11.340  11.641  18.350  0.00  0.00    +0.000 C 
ENDBRANCH  21  22
ENDBRANCH  20  21
ENDBRANCH  19  20
ENDBRANCH  18  19
ENDBRANCH  17  18
ENDBRANCH  16  17
ENDBRANCH  15  16
ENDBRANCH  14  15
ENDBRANCH   5  14
TORSDOF 11
ENDMDL
MODEL 9
REMARK VINA RESULT:      -5.7      3.269      6.987
REMARK  Name = 
REMARK  17 active torsions:
REMARK  status: ('A' for Active; 'I' for Inactive)
REMARK    1  A    between atoms: C_1  and  O_2
REMARK    2  A    between atoms: O_2  and  C_3
REMARK    3  A    between atoms: C_4  and  O_5
REMARK    4  A    between atoms: O_5  and  C_6
REMARK    5  A    between atoms: C_9  and  C_10
REMARK    6  A    between atoms: C_10  and  C_11
REMARK    7  A    between atoms: C_11  and  C_12
REMARK    8  A    between atoms: C_12  and  C_13
REMARK    9  A    between atoms: C_13  and  C_14
REMARK   10  A    between atoms: C_14  and  C_15
REMARK   11  A    between atoms: C_15  and  C_16
REMARK   12  A    between atoms: C_16  and  C_17
REMARK   13  A    between atoms: C_17  and  C_18
REMARK   14  A    between atoms: C_18  and  C_19
REMARK   15  A    between atoms: C_18  and  C_20
REMARK   16  A    between atoms: C_18  and  C_21
REMARK   17  A    between atoms: C_22  and  C_23
REMARK                            x       y       z     vdW  Elec       q    Type
REMARK                         _______ _______ _______ _____ _____    ______ ____
ROOT
ATOM      1  C   UNL     1       6.320   5.305  16.250  0.00  0.00    +0.000 C 
ATOM      2  C   UNL     1       6.777   5.532  17.496  0.00  0.00    +0.000 C 
ATOM      3  C   UNL     1       6.019   5.018  18.672  0.00  0.00    +0.000 C 
ATOM      4  O   UNL     1       6.418   5.274  19.803  0.00  0.00    +0.000 OA
ATOM      5  C   UNL     1       4.777   4.209  18.466  0.00  0.00    +0.000 C 
ATOM      6  C   UNL     1       4.314   4.009  17.218  0.00  0.00    +0.000 C 
ATOM      7  C   UNL     1       3.070   3.228  16.844  0.00  0.00    +0.000 C 
ATOM      8  C   UNL     1       5.039   4.564  16.040  0.00  0.00    +0.000 C 
ATOM      9  O   UNL     1       4.590   4.378  14.918  0.00  0.00    +0.000 OA
ENDROOT
BRANCH   1  11
ATOM     10  C   UNL     1       7.532   4.759  14.235  0.00  0.00    +0.000 C 
ATOM     11  O   UNL     1       6.920   5.730  15.073  0.00  0.00    +0.000 OA
ENDBRANCH   1  11
BRANCH   2  12
ATOM     12  O   UNL     1       7.887   6.347  17.686  0.00  0.00    +0.000 OA
ATOM     13  C   UNL     1       7.709   7.758  17.710  0.00  0.00    +0.000 C 
ENDBRANCH   2  12
BRANCH   5  14
ATOM     14  C   UNL     1       4.096   3.649  19.707  0.00  0.00    +0.000 C 
BRANCH  14  15
ATOM     15  C   UNL     1       2.584   3.860  19.888  0.00  0.00    +0.000 C 
BRANCH  15  16
ATOM     16  C   UNL     1       2.245   5.065  20.756  0.00  0.00    +0.000 C 
BRANCH  16  17
ATOM     17  C   UNL     1       2.731   6.337  20.079  0.00  0.00    +0.000 C 
BRANCH  17  18
ATOM     18  C   UNL     1       2.068   6.496  18.740  0.00  0.00    +0.000 C 
BRANCH  18  19
ATOM     19  C   UNL     1       2.691   7.667  17.999  0.00  0.00    +0.000 C 
BRANCH  19  20
ATOM     20  C   UNL     1       1.617   8.660  17.606  0.00  0.00    +0.000 C 
BRANCH  20  21
ATOM     21  C   UNL     1       1.723   9.980  18.386  0.00  0.00    +0.000 C 
BRANCH  21  22
ATOM     22  C   UNL     1       0.396  10.442  19.018  0.00  0.00    +0.000 C 
ATOM     23  C   UNL     1       0.410  11.965  19.243  0.00  0.00    +0.000 C 
ATOM     24  C   UNL     1      -0.757  10.097  18.056  0.00  0.00    +0.000 C 
ATOM     25  C   UNL     1       0.177   9.713  20.347  0.00  0.00    +0.000 C 
ENDBRANCH  21  22
ENDBRANCH  20  21
ENDBRANCH  19  20
ENDBRANCH  18  19
ENDBRANCH  17  18
ENDBRANCH  16  17
ENDBRANCH  15  16
ENDBRANCH  14  15
ENDBRANCH   5  14
TORSDOF 11
ENDMDL
