MODEL 1
REMARK VINA RESULT:      -8.5      0.000      0.000
REMARK  Name = 
REMARK  6 active torsions:
REMARK  status: ('A' for Active; 'I' for Inactive)
REMARK    1  A    between atoms: C_1  and  O_2
REMARK    2  A    between atoms: O_2  and  C_3
REMARK    3  A    between atoms: C_6  and  S_7
REMARK    4  A    between atoms: S_7  and  N_10
REMARK    5  A    between atoms: C_12  and  N_13
REMARK    6  A    between atoms: C_14  and  C_16
REMARK                            x       y       z     vdW  Elec       q    Type
REMARK                         _______ _______ _______ _____ _____    ______ ____
ROOT
ATOM      1  N   UNL     1       6.737   5.647  17.455  0.00  0.00    +0.000 N 
ATOM      2  C   UNL     1       7.222   6.929  17.419  0.00  0.00    +0.000 A 
ATOM      3  C   UNL     1       8.029   7.081  18.521  0.00  0.00    +0.000 A 
ATOM      4  C   UNL     1       7.943   5.833  19.184  0.00  0.00    +0.000 A 
ATOM      5  N   UNL     1       7.157   4.954  18.551  0.00  0.00    +0.000 NA
ENDROOT
BRANCH   3   6
ATOM      6  N   UNL     1       8.751   8.201  18.898  0.00  0.00    +0.000 N 
ATOM      7  C   UNL     1       8.576   9.468  18.367  0.00  0.00    +0.000 C 
ATOM      8  O   UNL     1       7.779   9.778  17.484  0.00  0.00    +0.000 OA
ATOM      9  H   UNL     1       9.467   8.111  19.616  0.00  0.00    +0.000 HD
BRANCH   7  10
ATOM     10  C   UNL     1       9.458  10.522  18.966  0.00  0.00    +0.000 A 
ATOM     11  C   UNL     1       9.391  10.764  20.336  0.00  0.00    +0.000 A 
ATOM     12  C   UNL     1      10.257  11.703  20.886  0.00  0.00    +0.000 A 
ATOM     13  C   UNL     1      11.151  12.368  20.055  0.00  0.00    +0.000 A 
ATOM     14  C   UNL     1      11.136  12.076  18.697  0.00  0.00    +0.000 A 
ATOM     15  N   UNL     1      10.311  11.168  18.122  0.00  0.00    +0.000 NA
ENDBRANCH   7  10
ENDBRANCH   3   6
BRANCH   1  16
ATOM     16  S   UNL     1       5.670   5.077  16.222  0.00  0.00    +0.000 S 
ATOM     17  O   UNL     1       6.318   3.897  15.676  0.00  0.00    +0.000 OA
ATOM     18  O   UNL     1       5.371   6.240  15.405  0.00  0.00    +0.000 OA
BRANCH  16  22
ATOM     19  C   UNL     1       2.005   3.666  18.362  0.00  0.00    +0.000 A 
ATOM     20  C   UNL     1       2.243   5.034  18.361  0.00  0.00    +0.000 A 
ATOM     21  C   UNL     1       3.369   5.510  17.687  0.00  0.00    +0.000 A 
ATOM     22  C   UNL     1       4.198   4.594  17.039  0.00  0.00    +0.000 A 
ATOM     23  C   UNL     1       3.893   3.248  17.107  0.00  0.00    +0.000 A 
ATOM     24  N   UNL     1       2.809   2.766  17.750  0.00  0.00    +0.000 NA
BRANCH  19  26
ATOM     25  C   UNL     1       0.948   3.537  20.431  0.00  0.00    +0.000 C 
ATOM     26  O   UNL     1       0.890   3.220  19.040  0.00  0.00    +0.000 OA
ENDBRANCH  19  26
ENDBRANCH  16  22
ENDBRANCH   1  16
TORSDOF 5
ENDMDL
MODEL 2
REMARK VINA RESULT:      -8.3      0.742      1.087
REMARK  Name = 
REMARK  6 active torsions:
REMARK  status: ('A' for Active; 'I' for Inactive)
REMARK    1  A    between atoms: C_1  and  O_2
REMARK    2  A    between atoms: O_2  and  C_3
REMARK    3  A    between atoms: C_6  and  S_7
REMARK    4  A    between atoms: S_7  and  N_10
REMARK    5  A    between atoms: C_12  and  N_13
REMARK    6  A    between atoms: C_14  and  C_16
REMARK                            x       y       z     vdW  Elec       q    Type
REMARK                         _______ _______ _______ _____ _____    ______ ____
ROOT
ATOM      1  N   UNL     1       6.614   5.493  17.606  0.00  0.00    +0.000 N 
ATOM      2  C   UNL     1       7.048   6.792  17.549  0.00  0.00    +0.000 A 
ATOM      3  C   UNL     1       7.983   6.944  18.543  0.00  0.00    +0.000 A 
ATOM      4  C   UNL     1       8.024   5.677  19.173  0.00  0.00    +0.000 A 
ATOM      5  N   UNL     1       7.193   4.787  18.617  0.00  0.00    +0.000 NA
ENDROOT
BRANCH   3   6
ATOM      6  N   UNL     1       8.711   8.080  18.860  0.00  0.00    +0.000 N 
ATOM      7  C   UNL     1       8.464   9.343  18.348  0.00  0.00    +0.000 C 
ATOM      8  O   UNL     1       7.590   9.635  17.536  0.00  0.00    +0.000 OA
ATOM      9  H   UNL     1       9.486   8.005  19.516  0.00  0.00    +0.000 HD
BRANCH   7  10
ATOM     10  C   UNL     1       9.371  10.416  18.873  0.00  0.00    +0.000 A 
ATOM     11  C   UNL     1      10.130  11.161  17.975  0.00  0.00    +0.000 A 
ATOM     12  C   UNL     1      10.921  12.191  18.471  0.00  0.00    +0.000 A 
ATOM     13  C   UNL     1      10.931  12.437  19.839  0.00  0.00    +0.000 A 
ATOM     14  C   UNL     1      10.156  11.632  20.664  0.00  0.00    +0.000 A 
ATOM     15  N   UNL     1       9.371  10.621  20.220  0.00  0.00    +0.000 NA
ENDBRANCH   7  10
ENDBRANCH   3   6
BRANCH   1  16
ATOM     16  S   UNL     1       5.418   4.918  16.501  0.00  0.00    +0.000 S 
ATOM     17  O   UNL     1       5.977   3.701  15.936  0.00  0.00    +0.000 OA
ATOM     18  O   UNL     1       5.073   6.062  15.676  0.00  0.00    +0.000 OA
BRANCH  16  22
ATOM     19  C   UNL     1       1.966   3.740  19.089  0.00  0.00    +0.000 A 
ATOM     20  C   UNL     1       1.962   5.036  18.589  0.00  0.00    +0.000 A 
ATOM     21  C   UNL     1       3.015   5.430  17.763  0.00  0.00    +0.000 A 
ATOM     22  C   UNL     1       4.018   4.506  17.471  0.00  0.00    +0.000 A 
ATOM     23  C   UNL     1       3.951   3.243  18.027  0.00  0.00    +0.000 A 
ATOM     24  N   UNL     1       2.941   2.840  18.826  0.00  0.00    +0.000 NA
BRANCH  19  26
ATOM     25  C   UNL     1       1.368   2.715  21.091  0.00  0.00    +0.000 C 
ATOM     26  O   UNL     1       0.918   3.376  19.908  0.00  0.00    +0.000 OA
ENDBRANCH  19  26
ENDBRANCH  16  22
ENDBRANCH   1  16
TORSDOF 5
ENDMDL
MODEL 3
REMARK VINA RESULT:      -8.3      0.807      1.370
REMARK  Name = 
REMARK  6 active torsions:
REMARK  status: ('A' for Active; 'I' for Inactive)
REMARK    1  A    between atoms: C_1  and  O_2
REMARK    2  A    between atoms: O_2  and  C_3
REMARK    3  A    between atoms: C_6  and  S_7
REMARK    4  A    between atoms: S_7  and  N_10
REMARK    5  A    between atoms: C_12  and  N_13
REMARK    6  A    between atoms: C_14  and  C_16
REMARK                            x       y       z     vdW  Elec       q    Type
REMARK                         _______ _______ _______ _____ _____    ______ ____
ROOT
ATOM      1  N   UNL     1       6.793   5.767  17.440  0.00  0.00    +0.000 N 
ATOM      2  C   UNL     1       7.289   7.045  17.436  0.00  0.00    +0.000 A 
ATOM      3  C   UNL     1       8.101   7.162  18.537  0.00  0.00    +0.000 A 
ATOM      4  C   UNL     1       8.008   5.898  19.168  0.00  0.00    +0.000 A 
ATOM      5  N   UNL     1       7.212   5.043  18.515  0.00  0.00    +0.000 NA
ENDROOT
BRANCH   3   6
ATOM      6  N   UNL     1       8.835   8.266  18.940  0.00  0.00    +0.000 N 
ATOM      7  C   UNL     1       8.625   9.559  18.490  0.00  0.00    +0.000 C 
ATOM      8  O   UNL     1       7.783   9.910  17.667  0.00  0.00    +0.000 OA
ATOM      9  H   UNL     1       9.586   8.142  19.616  0.00  0.00    +0.000 HD
BRANCH   7  10
ATOM     10  C   UNL     1       9.530  10.586  19.103  0.00  0.00    +0.000 A 
ATOM     11  C   UNL     1      10.471  11.226  18.301  0.00  0.00    +0.000 A 
ATOM     12  C   UNL     1      11.262  12.217  18.870  0.00  0.00    +0.000 A 
ATOM     13  C   UNL     1      11.092  12.531  20.213  0.00  0.00    +0.000 A 
ATOM     14  C   UNL     1      10.141  11.829  20.943  0.00  0.00    +0.000 A 
ATOM     15  N   UNL     1       9.348  10.859  20.426  0.00  0.00    +0.000 NA
ENDBRANCH   7  10
ENDBRANCH   3   6
BRANCH   1  16
ATOM     16  S   UNL     1       5.716   5.239  16.197  0.00  0.00    +0.000 S 
ATOM     17  O   UNL     1       6.411   4.150  15.531  0.00  0.00    +0.000 OA
ATOM     18  O   UNL     1       5.320   6.445  15.493  0.00  0.00    +0.000 OA
BRANCH  16  22
ATOM     19  C   UNL     1       2.025   3.793  18.267  0.00  0.00    +0.000 A 
ATOM     20  C   UNL     1       2.729   2.861  17.516  0.00  0.00    +0.000 A 
ATOM     21  C   UNL     1       3.895   3.275  16.872  0.00  0.00    +0.000 A 
ATOM     22  C   UNL     1       4.305   4.600  17.016  0.00  0.00    +0.000 A 
ATOM     23  C   UNL     1       3.533   5.464  17.770  0.00  0.00    +0.000 A 
ATOM     24  N   UNL     1       2.404   5.085  18.403  0.00  0.00    +0.000 NA
BRANCH  19  26
ATOM     25  C   UNL     1       0.808   3.785  20.252  0.00  0.00    +0.000 C 
ATOM     26  O   UNL     1       0.872   3.362  18.889  0.00  0.00    +0.000 OA
ENDBRANCH  19  26
ENDBRANCH  16  22
ENDBRANCH   1  16
TORSDOF 5
ENDMDL
MODEL 4
REMARK VINA RESULT:      -8.0      4.211      7.103
REMARK  Name = 
REMARK  6 active torsions:
REMARK  status: ('A' for Active; 'I' for Inactive)
REMARK    1  A    between atoms: C_1  and  O_2
REMARK    2  A    between atoms: O_2  and  C_3
REMARK    3  A    between atoms: C_6  and  S_7
REMARK    4  A    between atoms: S_7  and  N_10
REMARK    5  A    between atoms: C_12  and  N_13
REMARK    6  A    between atoms: C_14  and  C_16
REMARK                            x       y       z     vdW  Elec       q    Type
REMARK                         _______ _______ _______ _____ _____    ______ ____
ROOT
ATOM      1  N   UNL     1       3.242   4.286  19.587  0.00  0.00    +0.000 N 
ATOM      2  C   UNL     1       3.169   5.647  19.743  0.00  0.00    +0.000 A 
ATOM      3  C   UNL     1       2.012   5.908  20.435  0.00  0.00    +0.000 A 
ATOM      4  C   UNL     1       1.432   4.631  20.628  0.00  0.00    +0.000 A 
ATOM      5  N   UNL     1       2.166   3.637  20.113  0.00  0.00    +0.000 NA
ENDROOT
BRANCH   3   6
ATOM      6  N   UNL     1       1.523   7.139  20.841  0.00  0.00    +0.000 N 
ATOM      7  C   UNL     1       1.469   8.269  20.041  0.00  0.00    +0.000 C 
ATOM      8  O   UNL     1       1.857   8.351  18.878  0.00  0.00    +0.000 OA
ATOM      9  H   UNL     1       1.172   7.244  21.790  0.00  0.00    +0.000 HD
BRANCH   7  10
ATOM     10  C   UNL     1       0.864   9.471  20.703  0.00  0.00    +0.000 A 
ATOM     11  C   UNL     1       0.206   9.316  21.920  0.00  0.00    +0.000 A 
ATOM     12  C   UNL     1      -0.298  10.449  22.550  0.00  0.00    +0.000 A 
ATOM     13  C   UNL     1      -0.133  11.689  21.945  0.00  0.00    +0.000 A 
ATOM     14  C   UNL     1       0.522  11.748  20.721  0.00  0.00    +0.000 A 
ATOM     15  N   UNL     1       1.029  10.670  20.076  0.00  0.00    +0.000 NA
ENDBRANCH   7  10
ENDBRANCH   3   6
BRANCH   1  16
ATOM     16  S   UNL     1       4.572   3.568  18.752  0.00  0.00    +0.000 S 
ATOM     17  O   UNL     1       3.990   2.956  17.569  0.00  0.00    +0.000 OA
ATOM     18  O   UNL     1       5.281   2.791  19.752  0.00  0.00    +0.000 OA
BRANCH  16  22
ATOM     19  C   UNL     1       7.048   7.043  17.411  0.00  0.00    +0.000 A 
ATOM     20  C   UNL     1       7.449   6.398  18.574  0.00  0.00    +0.000 A 
ATOM     21  C   UNL     1       6.709   5.298  19.010  0.00  0.00    +0.000 A 
ATOM     22  C   UNL     1       5.607   4.892  18.258  0.00  0.00    +0.000 A 
ATOM     23  C   UNL     1       5.270   5.604  17.122  0.00  0.00    +0.000 A 
ATOM     24  N   UNL     1       5.973   6.668  16.681  0.00  0.00    +0.000 NA
BRANCH  19  26
ATOM     25  C   UNL     1       8.205   8.938  18.106  0.00  0.00    +0.000 C 
ATOM     26  O   UNL     1       7.791   8.131  17.004  0.00  0.00    +0.000 OA
ENDBRANCH  19  26
ENDBRANCH  16  22
ENDBRANCH   1  16
TORSDOF 5
ENDMDL
MODEL 5
REMARK VINA RESULT:      -7.9      4.548      7.016
REMARK  Name = 
REMARK  6 active torsions:
REMARK  status: ('A' for Active; 'I' for Inactive)
REMARK    1  A    between atoms: C_1  and  O_2
REMARK    2  A    between atoms: O_2  and  C_3
REMARK    3  A    between atoms: C_6  and  S_7
REMARK    4  A    between atoms: S_7  and  N_10
REMARK    5  A    between atoms: C_12  and  N_13
REMARK    6  A    between atoms: C_14  and  C_16
REMARK                            x       y       z     vdW  Elec       q    Type
REMARK                         _______ _______ _______ _____ _____    ______ ____
ROOT
ATOM      1  N   UNL     1       4.057   5.372  19.305  0.00  0.00    +0.000 N 
ATOM      2  C   UNL     1       3.854   6.641  18.827  0.00  0.00    +0.000 A 
ATOM      3  C   UNL     1       2.563   6.985  19.146  0.00  0.00    +0.000 A 
ATOM      4  C   UNL     1       2.052   5.837  19.795  0.00  0.00    +0.000 A 
ATOM      5  N   UNL     1       2.947   4.847  19.894  0.00  0.00    +0.000 NA
ENDROOT
BRANCH   3   6
ATOM      6  N   UNL     1       1.912   8.180  18.882  0.00  0.00    +0.000 N 
ATOM      7  C   UNL     1       1.253   8.945  19.830  0.00  0.00    +0.000 C 
ATOM      8  O   UNL     1       1.134   8.673  21.023  0.00  0.00    +0.000 OA
ATOM      9  H   UNL     1       1.906   8.542  17.931  0.00  0.00    +0.000 HD
BRANCH   7  10
ATOM     10  C   UNL     1       0.657  10.215  19.301  0.00  0.00    +0.000 A 
ATOM     11  C   UNL     1      -0.706  10.256  19.016  0.00  0.00    +0.000 A 
ATOM     12  C   UNL     1      -1.255  11.457  18.581  0.00  0.00    +0.000 A 
ATOM     13  C   UNL     1      -0.431  12.568  18.443  0.00  0.00    +0.000 A 
ATOM     14  C   UNL     1       0.920  12.431  18.734  0.00  0.00    +0.000 A 
ATOM     15  N   UNL     1       1.494  11.280  19.161  0.00  0.00    +0.000 NA
ENDBRANCH   7  10
ENDBRANCH   3   6
BRANCH   1  16
ATOM     16  S   UNL     1       5.580   4.586  19.089  0.00  0.00    +0.000 S 
ATOM     17  O   UNL     1       5.352   3.204  19.479  0.00  0.00    +0.000 OA
ATOM     18  O   UNL     1       6.548   5.428  19.769  0.00  0.00    +0.000 OA
BRANCH  16  22
ATOM     19  C   UNL     1       6.647   4.741  14.749  0.00  0.00    +0.000 A 
ATOM     20  C   UNL     1       5.488   4.053  15.086  0.00  0.00    +0.000 A 
ATOM     21  C   UNL     1       5.117   4.001  16.430  0.00  0.00    +0.000 A 
ATOM     22  C   UNL     1       5.918   4.646  17.371  0.00  0.00    +0.000 A 
ATOM     23  C   UNL     1       7.064   5.293  16.948  0.00  0.00    +0.000 A 
ATOM     24  N   UNL     1       7.441   5.358  15.654  0.00  0.00    +0.000 NA
BRANCH  19  26
ATOM     25  C   UNL     1       6.407   3.700  12.681  0.00  0.00    +0.000 C 
ATOM     26  O   UNL     1       6.997   4.774  13.415  0.00  0.00    +0.000 OA
ENDBRANCH  19  26
ENDBRANCH  16  22
ENDBRANCH   1  16
TORSDOF 5
ENDMDL
MODEL 6
REMARK VINA RESULT:      -7.8      4.738      6.832
REMARK  Name = 
REMARK  6 active torsions:
REMARK  status: ('A' for Active; 'I' for Inactive)
REMARK    1  A    between atoms: C_1  and  O_2
REMARK    2  A    between atoms: O_2  and  C_3
REMARK    3  A    between atoms: C_6  and  S_7
REMARK    4  A    between atoms: S_7  and  N_10
REMARK    5  A    between atoms: C_12  and  N_13
REMARK    6  A    between atoms: C_14  and  C_16
REMARK                            x       y       z     vdW  Elec       q    Type
REMARK                         _______ _______ _______ _____ _____    ______ ____
ROOT
ATOM      1  N   UNL     1       3.967   5.163  19.241  0.00  0.00    +0.000 N 
ATOM      2  C   UNL     1       3.845   6.529  19.223  0.00  0.00    +0.000 A 
ATOM      3  C   UNL     1       2.513   6.813  19.398  0.00  0.00    +0.000 A 
ATOM      4  C   UNL     1       1.899   5.540  19.483  0.00  0.00    +0.000 A 
ATOM      5  N   UNL     1       2.770   4.529  19.384  0.00  0.00    +0.000 NA
ENDROOT
BRANCH   3   6
ATOM      6  N   UNL     1       1.910   8.058  19.466  0.00  0.00    +0.000 N 
ATOM      7  C   UNL     1       1.773   8.928  18.397  0.00  0.00    +0.000 C 
ATOM      8  O   UNL     1       2.176   8.735  17.252  0.00  0.00    +0.000 OA
ATOM      9  H   UNL     1       1.532   8.378  20.356  0.00  0.00    +0.000 HD
BRANCH   7  10
ATOM     10  C   UNL     1       1.053  10.203  18.719  0.00  0.00    +0.000 A 
ATOM     11  C   UNL     1      -0.254  10.142  19.194  0.00  0.00    +0.000 A 
ATOM     12  C   UNL     1      -0.889  11.328  19.544  0.00  0.00    +0.000 A 
ATOM     13  C   UNL     1      -0.202  12.529  19.405  0.00  0.00    +0.000 A 
ATOM     14  C   UNL     1       1.094  12.498  18.906  0.00  0.00    +0.000 A 
ATOM     15  N   UNL     1       1.748  11.364  18.556  0.00  0.00    +0.000 NA
ENDBRANCH   7  10
ENDBRANCH   3   6
BRANCH   1  16
ATOM     16  S   UNL     1       5.513   4.417  19.045  0.00  0.00    +0.000 S 
ATOM     17  O   UNL     1       5.317   3.032  19.438  0.00  0.00    +0.000 OA
ATOM     18  O   UNL     1       6.451   5.288  19.731  0.00  0.00    +0.000 OA
BRANCH  16  22
ATOM     19  C   UNL     1       6.604   4.495  14.709  0.00  0.00    +0.000 A 
ATOM     20  C   UNL     1       5.266   4.284  15.015  0.00  0.00    +0.000 A 
ATOM     21  C   UNL     1       4.889   4.272  16.359  0.00  0.00    +0.000 A 
ATOM     22  C   UNL     1       5.867   4.479  17.330  0.00  0.00    +0.000 A 
ATOM     23  C   UNL     1       7.178   4.664  16.935  0.00  0.00    +0.000 A 
ATOM     24  N   UNL     1       7.565   4.682  15.642  0.00  0.00    +0.000 NA
BRANCH  19  26
ATOM     25  C   UNL     1       8.010   5.417  13.099  0.00  0.00    +0.000 C 
ATOM     26  O   UNL     1       6.954   4.496  13.375  0.00  0.00    +0.000 OA
ENDBRANCH  19  26
ENDBRANCH  16  22
ENDBRANCH   1  16
TORSDOF 5
ENDMDL
MODEL 7
REMARK VINA RESULT:      -7.7      4.135      7.139
REMARK  Name = 
REMARK  6 active torsions:
REMARK  status: ('A' for Active; 'I' for Inactive)
REMARK    1  A    between atoms: C_1  and  O_2
REMARK    2  A    between atoms: O_2  and  C_3
REMARK    3  A    between atoms: C_6  and  S_7
REMARK    4  A    between atoms: S_7  and  N_10
REMARK    5  A    between atoms: C_12  and  N_13
REMARK    6  A    between atoms: C_14  and  C_16
REMARK                            x       y       z     vdW  Elec       q    Type
REMARK                         _______ _______ _______ _____ _____    ______ ____
ROOT
ATOM      1  N   UNL     1       3.217   3.976  19.814  0.00  0.00    +0.000 N 
ATOM      2  C   UNL     1       3.109   5.343  19.814  0.00  0.00    +0.000 A 
ATOM      3  C   UNL     1       2.007   5.656  20.573  0.00  0.00    +0.000 A 
ATOM      4  C   UNL     1       1.494   4.398  20.968  0.00  0.00    +0.000 A 
ATOM      5  N   UNL     1       2.215   3.368  20.510  0.00  0.00    +0.000 NA
ENDROOT
BRANCH   3   6
ATOM      6  N   UNL     1       1.511   6.915  20.873  0.00  0.00    +0.000 N 
ATOM      7  C   UNL     1       1.610   8.020  20.044  0.00  0.00    +0.000 C 
ATOM      8  O   UNL     1       2.159   8.053  18.946  0.00  0.00    +0.000 OA
ATOM      9  H   UNL     1       1.034   7.061  21.761  0.00  0.00    +0.000 HD
BRANCH   7  10
ATOM     10  C   UNL     1       0.963   9.261  20.582  0.00  0.00    +0.000 A 
ATOM     11  C   UNL     1       0.661  10.301  19.707  0.00  0.00    +0.000 A 
ATOM     12  C   UNL     1       0.008  11.422  20.209  0.00  0.00    +0.000 A 
ATOM     13  C   UNL     1      -0.316  11.467  21.560  0.00  0.00    +0.000 A 
ATOM     14  C   UNL     1       0.040  10.391  22.364  0.00  0.00    +0.000 A 
ATOM     15  N   UNL     1       0.674   9.281  21.913  0.00  0.00    +0.000 NA
ENDBRANCH   7  10
ENDBRANCH   3   6
BRANCH   1  16
ATOM     16  S   UNL     1       4.494   3.197  18.952  0.00  0.00    +0.000 S 
ATOM     17  O   UNL     1       3.850   2.556  17.818  0.00  0.00    +0.000 OA
ATOM     18  O   UNL     1       5.227   2.439  19.951  0.00  0.00    +0.000 OA
BRANCH  16  22
ATOM     19  C   UNL     1       7.001   6.530  17.338  0.00  0.00    +0.000 A 
ATOM     20  C   UNL     1       7.235   6.149  18.652  0.00  0.00    +0.000 A 
ATOM     21  C   UNL     1       6.483   5.100  19.182  0.00  0.00    +0.000 A 
ATOM     22  C   UNL     1       5.537   4.477  18.367  0.00  0.00    +0.000 A 
ATOM     23  C   UNL     1       5.359   4.934  17.075  0.00  0.00    +0.000 A 
ATOM     24  N   UNL     1       6.077   5.944  16.543  0.00  0.00    +0.000 NA
BRANCH  19  26
ATOM     25  C   UNL     1       8.068   8.535  17.847  0.00  0.00    +0.000 C 
ATOM     26  O   UNL     1       7.753   7.573  16.839  0.00  0.00    +0.000 OA
ENDBRANCH  19  26
ENDBRANCH  16  22
ENDBRANCH   1  16
TORSDOF 5
ENDMDL
MODEL 8
REMARK VINA RESULT:      -7.7      4.571      7.332
REMARK  Name = 
REMARK  6 active torsions:
REMARK  status: ('A' for Active; 'I' for Inactive)
REMARK    1  A    between atoms: C_1  and  O_2
REMARK    2  A    between atoms: O_2  and  C_3
REMARK    3  A    between atoms: C_6  and  S_7
REMARK    4  A    between atoms: S_7  and  N_10
REMARK    5  A    between atoms: C_12  and  N_13
REMARK    6  A    between atoms: C_14  and  C_16
REMARK                            x       y       z     vdW  Elec       q    Type
REMARK                         _______ _______ _______ _____ _____    ______ ____
ROOT
ATOM      1  N   UNL     1       3.984   5.043  18.647  0.00  0.00    +0.000 N 
ATOM      2  C   UNL     1       3.770   5.889  19.705  0.00  0.00    +0.000 A 
ATOM      3  C   UNL     1       2.509   6.411  19.549  0.00  0.00    +0.000 A 
ATOM      4  C   UNL     1       2.047   5.839  18.340  0.00  0.00    +0.000 A 
ATOM      5  N   UNL     1       2.935   5.010  17.778  0.00  0.00    +0.000 NA
ENDROOT
BRANCH   3   6
ATOM      6  N   UNL     1       1.848   7.299  20.381  0.00  0.00    +0.000 N 
ATOM      7  C   UNL     1       1.364   8.537  19.990  0.00  0.00    +0.000 C 
ATOM      8  O   UNL     1       1.465   9.030  18.869  0.00  0.00    +0.000 OA
ATOM      9  H   UNL     1       1.693   7.045  21.355  0.00  0.00    +0.000 HD
BRANCH   7  10
ATOM     10  C   UNL     1       0.655   9.298  21.069  0.00  0.00    +0.000 A 
ATOM     11  C   UNL     1       0.588  10.687  20.988  0.00  0.00    +0.000 A 
ATOM     12  C   UNL     1      -0.124  11.374  21.964  0.00  0.00    +0.000 A 
ATOM     13  C   UNL     1      -0.737  10.658  22.986  0.00  0.00    +0.000 A 
ATOM     14  C   UNL     1      -0.603   9.275  22.998  0.00  0.00    +0.000 A 
ATOM     15  N   UNL     1       0.079   8.568  22.065  0.00  0.00    +0.000 NA
ENDBRANCH   7  10
ENDBRANCH   3   6
BRANCH   1  16
ATOM     16  S   UNL     1       5.480   4.193  18.491  0.00  0.00    +0.000 S 
ATOM     17  O   UNL     1       5.134   2.789  18.640  0.00  0.00    +0.000 OA
ATOM     18  O   UNL     1       6.398   4.861  19.396  0.00  0.00    +0.000 OA
BRANCH  16  22
ATOM     19  C   UNL     1       7.072   4.959  14.383  0.00  0.00    +0.000 A 
ATOM     20  C   UNL     1       6.089   3.985  14.503  0.00  0.00    +0.000 A 
ATOM     21  C   UNL     1       5.558   3.734  15.769  0.00  0.00    +0.000 A 
ATOM     22  C   UNL     1       6.030   4.475  16.852  0.00  0.00    +0.000 A 
ATOM     23  C   UNL     1       7.023   5.413  16.642  0.00  0.00    +0.000 A 
ATOM     24  N   UNL     1       7.549   5.674  15.427  0.00  0.00    +0.000 NA
BRANCH  19  26
ATOM     25  C   UNL     1       7.247   4.139  12.212  0.00  0.00    +0.000 C 
ATOM     26  O   UNL     1       7.586   5.185  13.123  0.00  0.00    +0.000 OA
ENDBRANCH  19  26
ENDBRANCH  16  22
ENDBRANCH   1  16
TORSDOF 5
ENDMDL
MODEL 9
REMARK VINA RESULT:      -7.6      5.124      7.691
REMARK  Name = 
REMARK  6 active torsions:
REMARK  status: ('A' for Active; 'I' for Inactive)
REMARK    1  A    between atoms: C_1  and  O_2
REMARK    2  A    between atoms: O_2  and  C_3
REMARK    3  A    between atoms: C_6  and  S_7
REMARK    4  A    between atoms: S_7  and  N_10
REMARK    5  A    between atoms: C_12  and  N_13
REMARK    6  A    between atoms: C_14  and  C_16
REMARK                            x       y       z     vdW  Elec       q    Type
REMARK                         _______ _______ _______ _____ _____    ______ ____
ROOT
ATOM      1  N   UNL     1       3.298   6.403  18.347  0.00  0.00    +0.000 N 
ATOM      2  C   UNL     1       2.600   6.725  19.482  0.00  0.00    +0.000 A 
ATOM      3  C   UNL     1       2.099   7.991  19.297  0.00  0.00    +0.000 A 
ATOM      4  C   UNL     1       2.578   8.366  18.019  0.00  0.00    +0.000 A 
ATOM      5  N   UNL     1       3.312   7.413  17.432  0.00  0.00    +0.000 NA
ENDROOT
BRANCH   3   6
ATOM      6  N   UNL     1       1.314   8.730  20.166  0.00  0.00    +0.000 N 
ATOM      7  C   UNL     1       0.411   9.707  19.778  0.00  0.00    +0.000 C 
ATOM      8  O   UNL     1       0.190  10.069  18.625  0.00  0.00    +0.000 OA
ATOM      9  H   UNL     1       1.387   8.559  21.167  0.00  0.00    +0.000 HD
BRANCH   7  10
ATOM     10  C   UNL     1      -0.344  10.341  20.908  0.00  0.00    +0.000 A 
ATOM     11  C   UNL     1      -0.300   9.751  22.168  0.00  0.00    +0.000 A 
ATOM     12  C   UNL     1      -0.958  10.382  23.218  0.00  0.00    +0.000 A 
ATOM     13  C   UNL     1      -1.636  11.571  22.975  0.00  0.00    +0.000 A 
ATOM     14  C   UNL     1      -1.642  12.078  21.682  0.00  0.00    +0.000 A 
ATOM     15  N   UNL     1      -1.012  11.496  20.633  0.00  0.00    +0.000 NA
ENDBRANCH   7  10
ENDBRANCH   3   6
BRANCH   1  16
ATOM     16  S   UNL     1       4.085   4.872  18.205  0.00  0.00    +0.000 S 
ATOM     17  O   UNL     1       3.030   3.934  17.859  0.00  0.00    +0.000 OA
ATOM     18  O   UNL     1       4.875   4.731  19.415  0.00  0.00    +0.000 OA
BRANCH  16  22
ATOM     19  C   UNL     1       7.054   5.248  14.882  0.00  0.00    +0.000 A 
ATOM     20  C   UNL     1       5.910   4.506  14.620  0.00  0.00    +0.000 A 
ATOM     21  C   UNL     1       4.954   4.384  15.629  0.00  0.00    +0.000 A 
ATOM     22  C   UNL     1       5.186   5.016  16.850  0.00  0.00    +0.000 A 
ATOM     23  C   UNL     1       6.363   5.720  17.029  0.00  0.00    +0.000 A 
ATOM     24  N   UNL     1       7.298   5.853  16.067  0.00  0.00    +0.000 NA
BRANCH  19  26
ATOM     25  C   UNL     1       7.506   4.801  12.643  0.00  0.00    +0.000 C 
ATOM     26  O   UNL     1       7.987   5.348  13.871  0.00  0.00    +0.000 OA
ENDBRANCH  19  26
ENDBRANCH  16  22
ENDBRANCH   1  16
TORSDOF 5
ENDMDL
