MODEL 1
REMARK VINA RESULT:      -8.8      0.000      0.000
REMARK  Name = 
REMARK  5 active torsions:
REMARK  status: ('A' for Active; 'I' for Inactive)
REMARK    1  A    between atoms: C_1  and  C_2
REMARK    2  A    between atoms: C_4  and  O_5
REMARK    3  A    between atoms: C_12  and  C_13
REMARK    4  A    between atoms: C_14  and  C_15
REMARK    5  A    between atoms: C_19  and  O_20
REMARK                            x       y       z     vdW  Elec       q    Type
REMARK                         _______ _______ _______ _____ _____    ______ ____
ROOT
ATOM      1  C   UNL     1      -2.941  13.171  23.259  0.00  0.00    +0.000 C 
ATOM      2  C   UNL     1      -2.157  12.321  22.302  0.00  0.00    +0.000 A 
ATOM      3  C   UNL     1      -2.357  12.399  20.921  0.00  0.00    +0.000 A 
ATOM      4  C   UNL     1      -1.622  11.584  20.051  0.00  0.00    +0.000 A 
ATOM      5  C   UNL     1      -0.673  10.673  20.542  0.00  0.00    +0.000 A 
ATOM      6  C   UNL     1      -0.461  10.622  21.923  0.00  0.00    +0.000 A 
ATOM      7  C   UNL     1      -1.202  11.430  22.796  0.00  0.00    +0.000 A 
ATOM      8  C   UNL     1       0.543   9.717  22.508  0.00  0.00    +0.000 C 
ATOM      9  O   UNL     1       0.709   9.631  23.718  0.00  0.00    +0.000 OA
ATOM     10  C   UNL     1       1.346   8.895  21.598  0.00  0.00    +0.000 C 
ATOM     11  C   UNL     1       1.126   8.882  20.280  0.00  0.00    +0.000 C 
ATOM     12  C   UNL     1       0.076   9.743  19.652  0.00  0.00    +0.000 C 
ATOM     13  O   UNL     1      -0.162   9.631  18.456  0.00  0.00    +0.000 OA
ENDROOT
BRANCH  11  14
ATOM     14  C   UNL     1       1.933   7.977  19.441  0.00  0.00    +0.000 A 
ATOM     15  C   UNL     1       2.608   8.444  18.292  0.00  0.00    +0.000 A 
ATOM     16  C   UNL     1       2.572   9.877  17.825  0.00  0.00    +0.000 C 
ATOM     17  C   UNL     1       3.361   7.536  17.528  0.00  0.00    +0.000 A 
ATOM     18  C   UNL     1       3.468   6.193  17.906  0.00  0.00    +0.000 A 
ATOM     19  C   UNL     1       2.817   5.731  19.049  0.00  0.00    +0.000 A 
ATOM     20  C   UNL     1       2.035   6.619  19.804  0.00  0.00    +0.000 A 
ATOM     21  C   UNL     1       2.957   4.318  19.451  0.00  0.00    +0.000 C 
ATOM     22  O   UNL     1       2.414   3.896  20.466  0.00  0.00    +0.000 OA
ATOM     23  C   UNL     1       3.771   3.424  18.608  0.00  0.00    +0.000 C 
ATOM     24  C   UNL     1       4.379   3.868  17.507  0.00  0.00    +0.000 C 
ATOM     25  C   UNL     1       4.273   5.274  17.074  0.00  0.00    +0.000 C 
ATOM     26  O   UNL     1       4.833   5.648  16.053  0.00  0.00    +0.000 OA
BRANCH  20  27
ATOM     27  O   UNL     1       1.337   6.199  20.913  0.00  0.00    +0.000 OA
ATOM     28  H   UNL     1       1.938   5.679  21.491  0.00  0.00    +0.000 HD
ENDBRANCH  20  27
ENDBRANCH  11  14
BRANCH   4  29
ATOM     29  O   UNL     1      -1.848  11.704  18.708  0.00  0.00    +0.000 OA
ATOM     30  H   UNL     1      -2.047  12.624  18.473  0.00  0.00    +0.000 HD
ENDBRANCH   4  29
TORSDOF 3
ENDMDL
MODEL 2
REMARK VINA RESULT:      -8.8      1.545      2.760
REMARK  Name = 
REMARK  5 active torsions:
REMARK  status: ('A' for Active; 'I' for Inactive)
REMARK    1  A    between atoms: C_1  and  C_2
REMARK    2  A    between atoms: C_4  and  O_5
REMARK    3  A    between atoms: C_12  and  C_13
REMARK    4  A    between atoms: C_14  and  C_15
REMARK    5  A    between atoms: C_19  and  O_20
REMARK                            x       y       z     vdW  Elec       q    Type
REMARK                         _______ _______ _______ _____ _____    ______ ____
ROOT
ATOM      1  C   UNL     1      -1.733  13.237  21.667  0.00  0.00    +0.000 C 
ATOM      2  C   UNL     1      -1.053  12.131  20.914  0.00  0.00    +0.000 A 
ATOM      3  C   UNL     1      -1.179  12.005  19.528  0.00  0.00    +0.000 A 
ATOM      4  C   UNL     1      -0.544  10.955  18.852  0.00  0.00    +0.000 A 
ATOM      5  C   UNL     1       0.227  10.009  19.545  0.00  0.00    +0.000 A 
ATOM      6  C   UNL     1       0.370  10.161  20.928  0.00  0.00    +0.000 A 
ATOM      7  C   UNL     1      -0.272  11.205  21.608  0.00  0.00    +0.000 A 
ATOM      8  C   UNL     1       1.193   9.228  21.717  0.00  0.00    +0.000 C 
ATOM      9  O   UNL     1       1.291   9.324  22.934  0.00  0.00    +0.000 OA
ATOM     10  C   UNL     1       1.895   8.154  21.007  0.00  0.00    +0.000 C 
ATOM     11  C   UNL     1       1.731   7.953  19.696  0.00  0.00    +0.000 C 
ATOM     12  C   UNL     1       0.858   8.842  18.868  0.00  0.00    +0.000 C 
ATOM     13  O   UNL     1       0.657   8.566  17.693  0.00  0.00    +0.000 OA
ENDROOT
BRANCH  11  14
ATOM     14  C   UNL     1       2.421   6.810  19.069  0.00  0.00    +0.000 A 
ATOM     15  C   UNL     1       2.167   5.482  19.478  0.00  0.00    +0.000 A 
ATOM     16  C   UNL     1       1.190   5.114  20.565  0.00  0.00    +0.000 C 
ATOM     17  C   UNL     1       2.855   4.432  18.847  0.00  0.00    +0.000 A 
ATOM     18  C   UNL     1       3.761   4.685  17.810  0.00  0.00    +0.000 A 
ATOM     19  C   UNL     1       4.002   5.993  17.392  0.00  0.00    +0.000 A 
ATOM     20  C   UNL     1       3.346   7.054  18.034  0.00  0.00    +0.000 A 
ATOM     21  C   UNL     1       4.940   6.245  16.282  0.00  0.00    +0.000 C 
ATOM     22  O   UNL     1       5.149   7.385  15.880  0.00  0.00    +0.000 OA
ATOM     23  C   UNL     1       5.619   5.094  15.659  0.00  0.00    +0.000 C 
ATOM     24  C   UNL     1       5.396   3.847  16.074  0.00  0.00    +0.000 C 
ATOM     25  C   UNL     1       4.459   3.549  17.173  0.00  0.00    +0.000 C 
ATOM     26  O   UNL     1       4.285   2.395  17.538  0.00  0.00    +0.000 OA
BRANCH  20  27
ATOM     27  O   UNL     1       3.587   8.365  17.688  0.00  0.00    +0.000 OA
ATOM     28  H   UNL     1       3.272   8.949  18.413  0.00  0.00    +0.000 HD
ENDBRANCH  20  27
ENDBRANCH  11  14
BRANCH   4  29
ATOM     29  O   UNL     1      -0.691  10.880  17.494  0.00  0.00    +0.000 OA
ATOM     30  H   UNL     1      -0.643   9.959  17.192  0.00  0.00    +0.000 HD
ENDBRANCH   4  29
TORSDOF 3
ENDMDL
MODEL 3
REMARK VINA RESULT:      -8.7      3.120      9.668
REMARK  Name = 
REMARK  5 active torsions:
REMARK  status: ('A' for Active; 'I' for Inactive)
REMARK    1  A    between atoms: C_1  and  C_2
REMARK    2  A    between atoms: C_4  and  O_5
REMARK    3  A    between atoms: C_12  and  C_13
REMARK    4  A    between atoms: C_14  and  C_15
REMARK    5  A    between atoms: C_19  and  O_20
REMARK                            x       y       z     vdW  Elec       q    Type
REMARK                         _______ _______ _______ _____ _____    ______ ____
ROOT
ATOM      1  C   UNL     1       2.143   8.294  18.793  0.00  0.00    +0.000 C 
ATOM      2  C   UNL     1       1.126   9.309  19.225  0.00  0.00    +0.000 A 
ATOM      3  C   UNL     1       0.442  10.099  18.296  0.00  0.00    +0.000 A 
ATOM      4  C   UNL     1      -0.493  11.049  18.727  0.00  0.00    +0.000 A 
ATOM      5  C   UNL     1      -0.764  11.230  20.092  0.00  0.00    +0.000 A 
ATOM      6  C   UNL     1      -0.096  10.415  21.011  0.00  0.00    +0.000 A 
ATOM      7  C   UNL     1       0.848   9.471  20.583  0.00  0.00    +0.000 A 
ATOM      8  C   UNL     1      -0.355  10.524  22.457  0.00  0.00    +0.000 C 
ATOM      9  O   UNL     1       0.255   9.847  23.275  0.00  0.00    +0.000 OA
ATOM     10  C   UNL     1      -1.366  11.485  22.908  0.00  0.00    +0.000 C 
ATOM     11  C   UNL     1      -1.978  12.314  22.057  0.00  0.00    +0.000 C 
ATOM     12  C   UNL     1      -1.700  12.277  20.588  0.00  0.00    +0.000 C 
ATOM     13  O   UNL     1      -2.207  13.117  19.856  0.00  0.00    +0.000 OA
ENDROOT
BRANCH  11  14
ATOM     14  C   UNL     1      -2.933  13.298  22.600  0.00  0.00    +0.000 A 
ATOM     15  C   UNL     1      -2.502  14.383  23.395  0.00  0.00    +0.000 A 
ATOM     16  C   UNL     1      -1.060  14.636  23.754  0.00  0.00    +0.000 C 
ATOM     17  C   UNL     1      -3.457  15.288  23.888  0.00  0.00    +0.000 A 
ATOM     18  C   UNL     1      -4.815  15.141  23.580  0.00  0.00    +0.000 A 
ATOM     19  C   UNL     1      -5.243  14.081  22.782  0.00  0.00    +0.000 A 
ATOM     20  C   UNL     1      -4.305  13.151  22.309  0.00  0.00    +0.000 A 
ATOM     21  C   UNL     1      -6.673  13.950  22.444  0.00  0.00    +0.000 C 
ATOM     22  O   UNL     1      -7.069  13.040  21.723  0.00  0.00    +0.000 OA
ATOM     23  C   UNL     1      -7.618  14.942  22.987  0.00  0.00    +0.000 C 
ATOM     24  C   UNL     1      -7.205  15.945  23.763  0.00  0.00    +0.000 C 
ATOM     25  C   UNL     1      -5.784  16.119  24.117  0.00  0.00    +0.000 C 
ATOM     26  O   UNL     1      -5.438  17.043  24.840  0.00  0.00    +0.000 OA
BRANCH  20  27
ATOM     27  O   UNL     1      -4.685  12.062  21.557  0.00  0.00    +0.000 OA
ATOM     28  H   UNL     1      -5.430  11.607  22.010  0.00  0.00    +0.000 HD
ENDBRANCH  20  27
ENDBRANCH  11  14
BRANCH   4  29
ATOM     29  O   UNL     1      -1.141  11.791  17.779  0.00  0.00    +0.000 OA
ATOM     30  H   UNL     1      -0.804  12.700  17.763  0.00  0.00    +0.000 HD
ENDBRANCH   4  29
TORSDOF 3
ENDMDL
MODEL 4
REMARK VINA RESULT:      -8.6      2.445      4.074
REMARK  Name = 
REMARK  5 active torsions:
REMARK  status: ('A' for Active; 'I' for Inactive)
REMARK    1  A    between atoms: C_1  and  C_2
REMARK    2  A    between atoms: C_4  and  O_5
REMARK    3  A    between atoms: C_12  and  C_13
REMARK    4  A    between atoms: C_14  and  C_15
REMARK    5  A    between atoms: C_19  and  O_20
REMARK                            x       y       z     vdW  Elec       q    Type
REMARK                         _______ _______ _______ _____ _____    ______ ____
ROOT
ATOM      1  C   UNL     1      -0.985  16.997  19.388  0.00  0.00    +0.000 C 
ATOM      2  C   UNL     1      -0.439  15.639  19.716  0.00  0.00    +0.000 A 
ATOM      3  C   UNL     1       0.505  15.456  20.730  0.00  0.00    +0.000 A 
ATOM      4  C   UNL     1       1.009  14.178  21.006  0.00  0.00    +0.000 A 
ATOM      5  C   UNL     1       0.582  13.058  20.276  0.00  0.00    +0.000 A 
ATOM      6  C   UNL     1      -0.383  13.248  19.283  0.00  0.00    +0.000 A 
ATOM      7  C   UNL     1      -0.882  14.527  18.998  0.00  0.00    +0.000 A 
ATOM      8  C   UNL     1      -0.905  12.115  18.499  0.00  0.00    +0.000 C 
ATOM      9  O   UNL     1      -1.718  12.273  17.597  0.00  0.00    +0.000 OA
ATOM     10  C   UNL     1      -0.414  10.771  18.816  0.00  0.00    +0.000 C 
ATOM     11  C   UNL     1       0.549  10.568  19.720  0.00  0.00    +0.000 C 
ATOM     12  C   UNL     1       1.148  11.698  20.496  0.00  0.00    +0.000 C 
ATOM     13  O   UNL     1       2.093  11.483  21.243  0.00  0.00    +0.000 OA
ENDROOT
BRANCH  11  14
ATOM     14  C   UNL     1       1.035   9.192  19.933  0.00  0.00    +0.000 A 
ATOM     15  C   UNL     1       0.619   8.427  21.045  0.00  0.00    +0.000 A 
ATOM     16  C   UNL     1      -0.339   8.929  22.094  0.00  0.00    +0.000 C 
ATOM     17  C   UNL     1       1.117   7.122  21.198  0.00  0.00    +0.000 A 
ATOM     18  C   UNL     1       1.991   6.569  20.254  0.00  0.00    +0.000 A 
ATOM     19  C   UNL     1       2.390   7.314  19.146  0.00  0.00    +0.000 A 
ATOM     20  C   UNL     1       1.927   8.630  18.997  0.00  0.00    +0.000 A 
ATOM     21  C   UNL     1       3.292   6.712  18.146  0.00  0.00    +0.000 C 
ATOM     22  O   UNL     1       3.637   7.340  17.150  0.00  0.00    +0.000 OA
ATOM     23  C   UNL     1       3.767   5.334  18.365  0.00  0.00    +0.000 C 
ATOM     24  C   UNL     1       3.393   4.632  19.435  0.00  0.00    +0.000 C 
ATOM     25  C   UNL     1       2.486   5.191  20.454  0.00  0.00    +0.000 C 
ATOM     26  O   UNL     1       2.171   4.525  21.431  0.00  0.00    +0.000 OA
BRANCH  20  27
ATOM     27  O   UNL     1       2.330   9.421  17.944  0.00  0.00    +0.000 OA
ATOM     28  H   UNL     1       1.561   9.582  17.354  0.00  0.00    +0.000 HD
ENDBRANCH  20  27
ENDBRANCH  11  14
BRANCH   4  29
ATOM     29  O   UNL     1       1.925  14.050  22.014  0.00  0.00    +0.000 OA
ATOM     30  H   UNL     1       2.828  14.140  21.673  0.00  0.00    +0.000 HD
ENDBRANCH   4  29
TORSDOF 3
ENDMDL
MODEL 5
REMARK VINA RESULT:      -8.5      3.665      7.949
REMARK  Name = 
REMARK  5 active torsions:
REMARK  status: ('A' for Active; 'I' for Inactive)
REMARK    1  A    between atoms: C_1  and  C_2
REMARK    2  A    between atoms: C_4  and  O_5
REMARK    3  A    between atoms: C_12  and  C_13
REMARK    4  A    between atoms: C_14  and  C_15
REMARK    5  A    between atoms: C_19  and  O_20
REMARK                            x       y       z     vdW  Elec       q    Type
REMARK                         _______ _______ _______ _____ _____    ______ ____
ROOT
ATOM      1  C   UNL     1       2.000   4.762  20.826  0.00  0.00    +0.000 C 
ATOM      2  C   UNL     1       1.876   6.177  20.342  0.00  0.00    +0.000 A 
ATOM      3  C   UNL     1       2.384   6.571  19.100  0.00  0.00    +0.000 A 
ATOM      4  C   UNL     1       2.268   7.902  18.678  0.00  0.00    +0.000 A 
ATOM      5  C   UNL     1       1.644   8.865  19.486  0.00  0.00    +0.000 A 
ATOM      6  C   UNL     1       1.115   8.455  20.713  0.00  0.00    +0.000 A 
ATOM      7  C   UNL     1       1.239   7.126  21.143  0.00  0.00    +0.000 A 
ATOM      8  C   UNL     1       0.416   9.402  21.599  0.00  0.00    +0.000 C 
ATOM      9  O   UNL     1      -0.014   9.065  22.695  0.00  0.00    +0.000 OA
ATOM     10  C   UNL     1       0.252  10.785  21.141  0.00  0.00    +0.000 C 
ATOM     11  C   UNL     1       0.796  11.217  19.999  0.00  0.00    +0.000 C 
ATOM     12  C   UNL     1       1.564  10.302  19.100  0.00  0.00    +0.000 C 
ATOM     13  O   UNL     1       2.129  10.758  18.114  0.00  0.00    +0.000 OA
ENDROOT
BRANCH  11  14
ATOM     14  C   UNL     1       0.642  12.640  19.642  0.00  0.00    +0.000 A 
ATOM     15  C   UNL     1      -0.395  13.077  18.789  0.00  0.00    +0.000 A 
ATOM     16  C   UNL     1      -1.421  12.156  18.178  0.00  0.00    +0.000 C 
ATOM     17  C   UNL     1      -0.492  14.445  18.481  0.00  0.00    +0.000 A 
ATOM     18  C   UNL     1       0.404  15.371  19.027  0.00  0.00    +0.000 A 
ATOM     19  C   UNL     1       1.418  14.946  19.883  0.00  0.00    +0.000 A 
ATOM     20  C   UNL     1       1.548  13.580  20.174  0.00  0.00    +0.000 A 
ATOM     21  C   UNL     1       2.342  15.935  20.472  0.00  0.00    +0.000 C 
ATOM     22  O   UNL     1       3.226  15.587  21.247  0.00  0.00    +0.000 OA
ATOM     23  C   UNL     1       2.174  17.355  20.113  0.00  0.00    +0.000 C 
ATOM     24  C   UNL     1       1.212  17.754  19.281  0.00  0.00    +0.000 C 
ATOM     25  C   UNL     1       0.262  16.800  18.678  0.00  0.00    +0.000 C 
ATOM     26  O   UNL     1      -0.604  17.196  17.910  0.00  0.00    +0.000 OA
BRANCH  20  27
ATOM     27  O   UNL     1       2.562  13.107  20.977  0.00  0.00    +0.000 OA
ATOM     28  H   UNL     1       3.285  12.763  20.406  0.00  0.00    +0.000 HD
ENDBRANCH  20  27
ENDBRANCH  11  14
BRANCH   4  29
ATOM     29  O   UNL     1       2.772   8.236  17.453  0.00  0.00    +0.000 OA
ATOM     30  H   UNL     1       2.711   9.192  17.303  0.00  0.00    +0.000 HD
ENDBRANCH   4  29
TORSDOF 3
ENDMDL
MODEL 6
REMARK VINA RESULT:      -8.5      3.213      9.838
REMARK  Name = 
REMARK  5 active torsions:
REMARK  status: ('A' for Active; 'I' for Inactive)
REMARK    1  A    between atoms: C_1  and  C_2
REMARK    2  A    between atoms: C_4  and  O_5
REMARK    3  A    between atoms: C_12  and  C_13
REMARK    4  A    between atoms: C_14  and  C_15
REMARK    5  A    between atoms: C_19  and  O_20
REMARK                            x       y       z     vdW  Elec       q    Type
REMARK                         _______ _______ _______ _____ _____    ______ ____
ROOT
ATOM      1  C   UNL     1       2.032   7.957  19.277  0.00  0.00    +0.000 C 
ATOM      2  C   UNL     1       1.152   9.110  19.660  0.00  0.00    +0.000 A 
ATOM      3  C   UNL     1       0.749  10.065  18.723  0.00  0.00    +0.000 A 
ATOM      4  C   UNL     1      -0.061  11.141  19.111  0.00  0.00    +0.000 A 
ATOM      5  C   UNL     1      -0.484  11.284  20.442  0.00  0.00    +0.000 A 
ATOM      6  C   UNL     1      -0.098  10.309  21.366  0.00  0.00    +0.000 A 
ATOM      7  C   UNL     1       0.721   9.237  20.982  0.00  0.00    +0.000 A 
ATOM      8  C   UNL     1      -0.532  10.375  22.771  0.00  0.00    +0.000 C 
ATOM      9  O   UNL     1      -0.166   9.550  23.600  0.00  0.00    +0.000 OA
ATOM     10  C   UNL     1      -1.417  11.473  23.171  0.00  0.00    +0.000 C 
ATOM     11  C   UNL     1      -1.755  12.449  22.323  0.00  0.00    +0.000 C 
ATOM     12  C   UNL     1      -1.287  12.451  20.903  0.00  0.00    +0.000 C 
ATOM     13  O   UNL     1      -1.538  13.411  20.186  0.00  0.00    +0.000 OA
ENDROOT
BRANCH  11  14
ATOM     14  C   UNL     1      -2.595  13.554  22.823  0.00  0.00    +0.000 A 
ATOM     15  C   UNL     1      -3.982  13.600  22.562  0.00  0.00    +0.000 A 
ATOM     16  C   UNL     1      -4.721  12.551  21.770  0.00  0.00    +0.000 C 
ATOM     17  C   UNL     1      -4.733  14.679  23.060  0.00  0.00    +0.000 A 
ATOM     18  C   UNL     1      -4.130  15.682  23.827  0.00  0.00    +0.000 A 
ATOM     19  C   UNL     1      -2.764  15.631  24.101  0.00  0.00    +0.000 A 
ATOM     20  C   UNL     1      -1.995  14.578  23.583  0.00  0.00    +0.000 A 
ATOM     21  C   UNL     1      -2.144  16.682  24.931  0.00  0.00    +0.000 C 
ATOM     22  O   UNL     1      -0.949  16.644  25.206  0.00  0.00    +0.000 OA
ATOM     23  C   UNL     1      -2.994  17.778  25.430  0.00  0.00    +0.000 C 
ATOM     24  C   UNL     1      -4.297  17.830  25.151  0.00  0.00    +0.000 C 
ATOM     25  C   UNL     1      -4.959  16.796  24.334  0.00  0.00    +0.000 C 
ATOM     26  O   UNL     1      -6.154  16.878  24.086  0.00  0.00    +0.000 OA
BRANCH  20  27
ATOM     27  O   UNL     1      -0.636  14.509  23.788  0.00  0.00    +0.000 OA
ATOM     28  H   UNL     1      -0.364  13.565  23.809  0.00  0.00    +0.000 HD
ENDBRANCH  20  27
ENDBRANCH  11  14
BRANCH   4  29
ATOM     29  O   UNL     1      -0.436  12.043  18.155  0.00  0.00    +0.000 OA
ATOM     30  H   UNL     1       0.118  12.838  18.195  0.00  0.00    +0.000 HD
ENDBRANCH   4  29
TORSDOF 3
ENDMDL
MODEL 7
REMARK VINA RESULT:      -8.4      2.492      4.482
REMARK  Name = 
REMARK  5 active torsions:
REMARK  status: ('A' for Active; 'I' for Inactive)
REMARK    1  A    between atoms: C_1  and  C_2
REMARK    2  A    between atoms: C_4  and  O_5
REMARK    3  A    between atoms: C_12  and  C_13
REMARK    4  A    between atoms: C_14  and  C_15
REMARK    5  A    between atoms: C_19  and  O_20
REMARK                            x       y       z     vdW  Elec       q    Type
REMARK                         _______ _______ _______ _____ _____    ______ ____
ROOT
ATOM      1  C   UNL     1      -2.322  17.710  22.276  0.00  0.00    +0.000 C 
ATOM      2  C   UNL     1      -1.563  16.430  22.088  0.00  0.00    +0.000 A 
ATOM      3  C   UNL     1      -0.188  16.353  22.327  0.00  0.00    +0.000 A 
ATOM      4  C   UNL     1       0.499  15.148  22.130  0.00  0.00    +0.000 A 
ATOM      5  C   UNL     1      -0.171  13.997  21.689  0.00  0.00    +0.000 A 
ATOM      6  C   UNL     1      -1.551  14.077  21.480  0.00  0.00    +0.000 A 
ATOM      7  C   UNL     1      -2.240  15.284  21.667  0.00  0.00    +0.000 A 
ATOM      8  C   UNL     1      -2.327  12.900  21.051  0.00  0.00    +0.000 C 
ATOM      9  O   UNL     1      -3.529  12.968  20.822  0.00  0.00    +0.000 OA
ATOM     10  C   UNL     1      -1.620  11.627  20.887  0.00  0.00    +0.000 C 
ATOM     11  C   UNL     1      -0.294  11.536  21.027  0.00  0.00    +0.000 C 
ATOM     12  C   UNL     1       0.539  12.719  21.403  0.00  0.00    +0.000 C 
ATOM     13  O   UNL     1       1.759  12.617  21.425  0.00  0.00    +0.000 OA
ENDROOT
BRANCH  11  14
ATOM     14  C   UNL     1       0.350  10.232  20.779  0.00  0.00    +0.000 A 
ATOM     15  C   UNL     1       0.313   9.198  21.740  0.00  0.00    +0.000 A 
ATOM     16  C   UNL     1      -0.373   9.322  23.077  0.00  0.00    +0.000 C 
ATOM     17  C   UNL     1       0.946   7.977  21.452  0.00  0.00    +0.000 A 
ATOM     18  C   UNL     1       1.584   7.769  20.223  0.00  0.00    +0.000 A 
ATOM     19  C   UNL     1       1.608   8.782  19.265  0.00  0.00    +0.000 A 
ATOM     20  C   UNL     1       1.008  10.017  19.551  0.00  0.00    +0.000 A 
ATOM     21  C   UNL     1       2.262   8.542  17.964  0.00  0.00    +0.000 C 
ATOM     22  O   UNL     1       2.274   9.409  17.097  0.00  0.00    +0.000 OA
ATOM     23  C   UNL     1       2.897   7.234  17.726  0.00  0.00    +0.000 C 
ATOM     24  C   UNL     1       2.884   6.275  18.653  0.00  0.00    +0.000 C 
ATOM     25  C   UNL     1       2.234   6.468  19.962  0.00  0.00    +0.000 C 
ATOM     26  O   UNL     1       2.249   5.573  20.795  0.00  0.00    +0.000 OA
BRANCH  20  27
ATOM     27  O   UNL     1       1.047  11.062  18.656  0.00  0.00    +0.000 OA
ATOM     28  H   UNL     1       1.207  11.898  19.148  0.00  0.00    +0.000 HD
ENDBRANCH  20  27
ENDBRANCH  11  14
BRANCH   4  29
ATOM     29  O   UNL     1       1.842  15.123  22.386  0.00  0.00    +0.000 OA
ATOM     30  H   UNL     1       2.248  15.981  22.188  0.00  0.00    +0.000 HD
ENDBRANCH   4  29
TORSDOF 3
ENDMDL
MODEL 8
REMARK VINA RESULT:      -8.4      1.169      1.494
REMARK  Name = 
REMARK  5 active torsions:
REMARK  status: ('A' for Active; 'I' for Inactive)
REMARK    1  A    between atoms: C_1  and  C_2
REMARK    2  A    between atoms: C_4  and  O_5
REMARK    3  A    between atoms: C_12  and  C_13
REMARK    4  A    between atoms: C_14  and  C_15
REMARK    5  A    between atoms: C_19  and  O_20
REMARK                            x       y       z     vdW  Elec       q    Type
REMARK                         _______ _______ _______ _____ _____    ______ ____
ROOT
ATOM      1  C   UNL     1      -4.431  14.150  21.953  0.00  0.00    +0.000 C 
ATOM      2  C   UNL     1      -3.502  13.227  21.221  0.00  0.00    +0.000 A 
ATOM      3  C   UNL     1      -3.685  12.926  19.869  0.00  0.00    +0.000 A 
ATOM      4  C   UNL     1      -2.811  12.050  19.213  0.00  0.00    +0.000 A 
ATOM      5  C   UNL     1      -1.738  11.455  19.894  0.00  0.00    +0.000 A 
ATOM      6  C   UNL     1      -1.546  11.784  21.239  0.00  0.00    +0.000 A 
ATOM      7  C   UNL     1      -2.426  12.653  21.900  0.00  0.00    +0.000 A 
ATOM      8  C   UNL     1      -0.421  11.226  22.009  0.00  0.00    +0.000 C 
ATOM      9  O   UNL     1      -0.268  11.471  23.199  0.00  0.00    +0.000 OA
ATOM     10  C   UNL     1       0.522  10.344  21.315  0.00  0.00    +0.000 C 
ATOM     11  C   UNL     1       0.331   9.969  20.046  0.00  0.00    +0.000 C 
ATOM     12  C   UNL     1      -0.831  10.466  19.246  0.00  0.00    +0.000 C 
ATOM     13  O   UNL     1      -1.024  10.023  18.122  0.00  0.00    +0.000 OA
ENDROOT
BRANCH  11  14
ATOM     14  C   UNL     1       1.290   9.026  19.441  0.00  0.00    +0.000 A 
ATOM     15  C   UNL     1       2.099   9.400  18.345  0.00  0.00    +0.000 A 
ATOM     16  C   UNL     1       2.063  10.764  17.706  0.00  0.00    +0.000 C 
ATOM     17  C   UNL     1       2.993   8.459  17.806  0.00  0.00    +0.000 A 
ATOM     18  C   UNL     1       3.108   7.177  18.357  0.00  0.00    +0.000 A 
ATOM     19  C   UNL     1       2.324   6.810  19.450  0.00  0.00    +0.000 A 
ATOM     20  C   UNL     1       1.403   7.728  19.978  0.00  0.00    +0.000 A 
ATOM     21  C   UNL     1       2.471   5.464  20.037  0.00  0.00    +0.000 C 
ATOM     22  O   UNL     1       1.810   5.128  21.014  0.00  0.00    +0.000 OA
ATOM     23  C   UNL     1       3.437   4.532  19.427  0.00  0.00    +0.000 C 
ATOM     24  C   UNL     1       4.173   4.884  18.373  0.00  0.00    +0.000 C 
ATOM     25  C   UNL     1       4.065   6.221  17.761  0.00  0.00    +0.000 C 
ATOM     26  O   UNL     1       4.746   6.510  16.787  0.00  0.00    +0.000 OA
BRANCH  20  27
ATOM     27  O   UNL     1       0.574   7.395  21.026  0.00  0.00    +0.000 OA
ATOM     28  H   UNL     1      -0.262   7.024  20.665  0.00  0.00    +0.000 HD
ENDBRANCH  20  27
ENDBRANCH  11  14
BRANCH   4  29
ATOM     29  O   UNL     1      -3.028  11.795  17.887  0.00  0.00    +0.000 OA
ATOM     30  H   UNL     1      -3.719  12.375  17.533  0.00  0.00    +0.000 HD
ENDBRANCH   4  29
TORSDOF 3
ENDMDL
MODEL 9
REMARK VINA RESULT:      -8.3      4.954      8.728
REMARK  Name = 
REMARK  5 active torsions:
REMARK  status: ('A' for Active; 'I' for Inactive)
REMARK    1  A    between atoms: C_1  and  C_2
REMARK    2  A    between atoms: C_4  and  O_5
REMARK    3  A    between atoms: C_12  and  C_13
REMARK    4  A    between atoms: C_14  and  C_15
REMARK    5  A    between atoms: C_19  and  O_20
REMARK                            x       y       z     vdW  Elec       q    Type
REMARK                         _______ _______ _______ _____ _____    ______ ____
ROOT
ATOM      1  C   UNL     1       5.034  14.833  17.788  0.00  0.00    +0.000 C 
ATOM      2  C   UNL     1       3.590  14.725  18.179  0.00  0.00    +0.000 A 
ATOM      3  C   UNL     1       2.787  15.860  18.331  0.00  0.00    +0.000 A 
ATOM      4  C   UNL     1       1.445  15.732  18.712  0.00  0.00    +0.000 A 
ATOM      5  C   UNL     1       0.878  14.470  18.949  0.00  0.00    +0.000 A 
ATOM      6  C   UNL     1       1.681  13.341  18.767  0.00  0.00    +0.000 A 
ATOM      7  C   UNL     1       3.027  13.466  18.396  0.00  0.00    +0.000 A 
ATOM      8  C   UNL     1       1.145  11.983  18.964  0.00  0.00    +0.000 C 
ATOM      9  O   UNL     1       1.849  10.987  18.850  0.00  0.00    +0.000 OA
ATOM     10  C   UNL     1      -0.271  11.843  19.317  0.00  0.00    +0.000 C 
ATOM     11  C   UNL     1      -1.046  12.906  19.552  0.00  0.00    +0.000 C 
ATOM     12  C   UNL     1      -0.525  14.302  19.422  0.00  0.00    +0.000 C 
ATOM     13  O   UNL     1      -1.238  15.244  19.739  0.00  0.00    +0.000 OA
ENDROOT
BRANCH  11  14
ATOM     14  C   UNL     1      -2.443  12.678  19.969  0.00  0.00    +0.000 A 
ATOM     15  C   UNL     1      -2.839  12.807  21.318  0.00  0.00    +0.000 A 
ATOM     16  C   UNL     1      -1.898  13.182  22.434  0.00  0.00    +0.000 C 
ATOM     17  C   UNL     1      -4.183  12.576  21.658  0.00  0.00    +0.000 A 
ATOM     18  C   UNL     1      -5.127  12.249  20.678  0.00  0.00    +0.000 A 
ATOM     19  C   UNL     1      -4.744  12.137  19.343  0.00  0.00    +0.000 A 
ATOM     20  C   UNL     1      -3.399  12.333  18.993  0.00  0.00    +0.000 A 
ATOM     21  C   UNL     1      -5.753  11.815  18.316  0.00  0.00    +0.000 C 
ATOM     22  O   UNL     1      -5.444  11.737  17.131  0.00  0.00    +0.000 OA
ATOM     23  C   UNL     1      -7.147  11.596  18.743  0.00  0.00    +0.000 C 
ATOM     24  C   UNL     1      -7.505  11.689  20.024  0.00  0.00    +0.000 C 
ATOM     25  C   UNL     1      -6.530  12.018  21.081  0.00  0.00    +0.000 C 
ATOM     26  O   UNL     1      -6.888  12.085  22.249  0.00  0.00    +0.000 OA
BRANCH  20  27
ATOM     27  O   UNL     1      -2.964  12.188  17.695  0.00  0.00    +0.000 OA
ATOM     28  H   UNL     1      -2.040  11.853  17.704  0.00  0.00    +0.000 HD
ENDBRANCH  20  27
ENDBRANCH  11  14
BRANCH   4  29
ATOM     29  O   UNL     1       0.700  16.871  18.839  0.00  0.00    +0.000 OA
ATOM     30  H   UNL     1       1.176  17.636  18.483  0.00  0.00    +0.000 HD
ENDBRANCH   4  29
TORSDOF 3
ENDMDL
