MODEL 1
REMARK VINA RESULT:      -6.7      0.000      0.000
REMARK  Name = 
REMARK  4 active torsions:
REMARK  status: ('A' for Active; 'I' for Inactive)
REMARK    1  A    between atoms: C_4  and  O_5
REMARK    2  A    between atoms: C_4  and  C_6
REMARK    3  A    between atoms: N_15  and  C_16
REMARK    4  A    between atoms: N_23  and  C_24
REMARK                            x       y       z     vdW  Elec       q    Type
REMARK                         _______ _______ _______ _____ _____    ______ ____
ROOT
ATOM      1  O   UNL     1       2.754  13.071  21.114  0.00  0.00    +0.000 OA
ATOM      2  C   UNL     1       1.739  13.271  20.474  0.00  0.00    +0.000 C 
ATOM      3  C   UNL     1       1.442  14.475  19.670  0.00  0.00    +0.000 C 
ATOM      4  C   UNL     1       2.256  15.468  19.272  0.00  0.00    +0.000 C 
ATOM      5  C   UNL     1       0.100  14.344  19.084  0.00  0.00    +0.000 C 
ATOM      6  O   UNL     1      -0.492  15.238  18.499  0.00  0.00    +0.000 OA
ATOM      7  N   UNL     1      -0.271  13.027  19.342  0.00  0.00    +0.000 N 
ATOM      8  N   UNL     1       0.628  12.417  20.263  0.00  0.00    +0.000 N 
ENDROOT
BRANCH   4   9
ATOM      9  C   UNL     1       3.711  15.401  19.423  0.00  0.00    +0.000 A 
ATOM     10  C   UNL     1       4.286  15.961  20.578  0.00  0.00    +0.000 A 
ATOM     11  C   UNL     1       5.665  15.919  20.779  0.00  0.00    +0.000 A 
ATOM     12  C   UNL     1       6.479  15.313  19.825  0.00  0.00    +0.000 A 
ATOM     13  C   UNL     1       5.910  14.751  18.682  0.00  0.00    +0.000 A 
ATOM     14 CL   UNL     1       6.927  13.992  17.518  0.00  0.00    +0.000 Cl
ATOM     15  C   UNL     1       4.532  14.787  18.474  0.00  0.00    +0.000 A 
ENDBRANCH   4   9
BRANCH   7  16
ATOM     16  C   UNL     1      -1.579  12.576  19.071  0.00  0.00    +0.000 A 
ATOM     17  C   UNL     1      -1.807  11.894  17.866  0.00  0.00    +0.000 A 
ATOM     18  C   UNL     1      -3.066  11.369  17.577  0.00  0.00    +0.000 A 
ATOM     19  C   UNL     1      -4.115  11.571  18.468  0.00  0.00    +0.000 A 
ATOM     20 CL   UNL     1      -5.677  10.957  18.095  0.00  0.00    +0.000 Cl
ATOM     21  C   UNL     1      -3.905  12.266  19.660  0.00  0.00    +0.000 A 
ATOM     22  C   UNL     1      -2.629  12.746  19.978  0.00  0.00    +0.000 A 
ENDBRANCH   7  16
BRANCH   8  23
ATOM     23  C   UNL     1       0.855  11.008  20.297  0.00  0.00    +0.000 A 
ATOM     24  C   UNL     1       0.713  10.308  21.504  0.00  0.00    +0.000 A 
ATOM     25  C   UNL     1       0.970   8.935  21.567  0.00  0.00    +0.000 A 
ATOM     26  C   UNL     1       1.388   8.256  20.426  0.00  0.00    +0.000 A 
ATOM     27 CL   UNL     1       1.733   6.573  20.506  0.00  0.00    +0.000 Cl
ATOM     28  C   UNL     1       1.539   8.935  19.221  0.00  0.00    +0.000 A 
ATOM     29  C   UNL     1       1.266  10.304  19.156  0.00  0.00    +0.000 A 
ENDBRANCH   8  23
BRANCH   4  30
ATOM     30  O   UNL     1       1.851  16.540  18.495  0.00  0.00    +0.000 OA
ATOM     31  H   UNL     1       2.640  17.000  18.136  0.00  0.00    +0.000 HD
ENDBRANCH   4  30
TORSDOF 4
ENDMDL
MODEL 2
REMARK VINA RESULT:      -6.7      0.103      1.252
REMARK  Name = 
REMARK  4 active torsions:
REMARK  status: ('A' for Active; 'I' for Inactive)
REMARK    1  A    between atoms: C_4  and  O_5
REMARK    2  A    between atoms: C_4  and  C_6
REMARK    3  A    between atoms: N_15  and  C_16
REMARK    4  A    between atoms: N_23  and  C_24
REMARK                            x       y       z     vdW  Elec       q    Type
REMARK                         _______ _______ _______ _____ _____    ______ ____
ROOT
ATOM      1  O   UNL     1       2.784  13.121  21.120  0.00  0.00    +0.000 OA
ATOM      2  C   UNL     1       1.777  13.274  20.455  0.00  0.00    +0.000 C 
ATOM      3  C   UNL     1       1.468  14.441  19.603  0.00  0.00    +0.000 C 
ATOM      4  C   UNL     1       2.266  15.438  19.184  0.00  0.00    +0.000 C 
ATOM      5  C   UNL     1       0.140  14.258  18.997  0.00  0.00    +0.000 C 
ATOM      6  O   UNL     1      -0.461  15.116  18.370  0.00  0.00    +0.000 OA
ATOM      7  N   UNL     1      -0.205  12.943  19.295  0.00  0.00    +0.000 N 
ATOM      8  N   UNL     1       0.690  12.387  20.254  0.00  0.00    +0.000 N 
ENDROOT
BRANCH   4   9
ATOM      9  C   UNL     1       3.719  15.412  19.364  0.00  0.00    +0.000 A 
ATOM     10  C   UNL     1       4.258  16.022  20.511  0.00  0.00    +0.000 A 
ATOM     11  C   UNL     1       5.634  16.020  20.738  0.00  0.00    +0.000 A 
ATOM     12  C   UNL     1       6.480  15.403  19.820  0.00  0.00    +0.000 A 
ATOM     13  C   UNL     1       5.947  14.792  18.685  0.00  0.00    +0.000 A 
ATOM     14 CL   UNL     1       7.004  14.021  17.565  0.00  0.00    +0.000 Cl
ATOM     15  C   UNL     1       4.572  14.788  18.450  0.00  0.00    +0.000 A 
ENDBRANCH   4   9
BRANCH   7  16
ATOM     16  C   UNL     1      -1.497  12.452  19.017  0.00  0.00    +0.000 A 
ATOM     17  C   UNL     1      -2.517  12.709  19.946  0.00  0.00    +0.000 A 
ATOM     18  C   UNL     1      -3.826  12.304  19.690  0.00  0.00    +0.000 A 
ATOM     19  C   UNL     1      -4.111  11.594  18.528  0.00  0.00    +0.000 A 
ATOM     20 CL   UNL     1      -5.718  11.061  18.230  0.00  0.00    +0.000 Cl
ATOM     21  C   UNL     1      -3.100  11.314  17.607  0.00  0.00    +0.000 A 
ATOM     22  C   UNL     1      -1.796  11.768  17.835  0.00  0.00    +0.000 A 
ENDBRANCH   7  16
BRANCH   8  23
ATOM     23  C   UNL     1       0.949  10.987  20.343  0.00  0.00    +0.000 A 
ATOM     24  C   UNL     1       1.335  10.275  19.198  0.00  0.00    +0.000 A 
ATOM     25  C   UNL     1       1.555   8.894  19.256  0.00  0.00    +0.000 A 
ATOM     26  C   UNL     1       1.375   8.215  20.458  0.00  0.00    +0.000 A 
ATOM     27 CL   UNL     1       1.617   6.514  20.526  0.00  0.00    +0.000 Cl
ATOM     28  C   UNL     1       0.987   8.904  21.603  0.00  0.00    +0.000 A 
ATOM     29  C   UNL     1       0.784  10.286  21.547  0.00  0.00    +0.000 A 
ENDBRANCH   8  23
BRANCH   4  30
ATOM     30  O   UNL     1       1.851  16.472  18.361  0.00  0.00    +0.000 OA
ATOM     31  H   UNL     1       1.905  16.185  17.424  0.00  0.00    +0.000 HD
ENDBRANCH   4  30
TORSDOF 4
ENDMDL
MODEL 3
REMARK VINA RESULT:      -6.6      0.905      1.263
REMARK  Name = 
REMARK  4 active torsions:
REMARK  status: ('A' for Active; 'I' for Inactive)
REMARK    1  A    between atoms: C_4  and  O_5
REMARK    2  A    between atoms: C_4  and  C_6
REMARK    3  A    between atoms: N_15  and  C_16
REMARK    4  A    between atoms: N_23  and  C_24
REMARK                            x       y       z     vdW  Elec       q    Type
REMARK                         _______ _______ _______ _____ _____    ______ ____
ROOT
ATOM      1  O   UNL     1       2.838  13.084  20.928  0.00  0.00    +0.000 OA
ATOM      2  C   UNL     1       1.803  13.282  20.321  0.00  0.00    +0.000 C 
ATOM      3  C   UNL     1       1.485  14.476  19.510  0.00  0.00    +0.000 C 
ATOM      4  C   UNL     1       2.291  15.457  19.069  0.00  0.00    +0.000 C 
ATOM      5  C   UNL     1       0.122  14.346  18.973  0.00  0.00    +0.000 C 
ATOM      6  O   UNL     1      -0.484  15.235  18.397  0.00  0.00    +0.000 OA
ATOM      7  N   UNL     1      -0.247  13.036  19.264  0.00  0.00    +0.000 N 
ATOM      8  N   UNL     1       0.679  12.433  20.162  0.00  0.00    +0.000 N 
ENDROOT
BRANCH   4   9
ATOM      9  C   UNL     1       3.750  15.382  19.169  0.00  0.00    +0.000 A 
ATOM     10  C   UNL     1       4.459  14.785  18.111  0.00  0.00    +0.000 A 
ATOM     11  C   UNL     1       5.850  14.694  18.148  0.00  0.00    +0.000 A 
ATOM     12  C   UNL     1       6.542  15.203  19.244  0.00  0.00    +0.000 A 
ATOM     13  C   UNL     1       5.841  15.801  20.292  0.00  0.00    +0.000 A 
ATOM     14 CL   UNL     1       6.710  16.439  21.635  0.00  0.00    +0.000 Cl
ATOM     15  C   UNL     1       4.450  15.898  20.262  0.00  0.00    +0.000 A 
ENDBRANCH   4   9
BRANCH   7  16
ATOM     16  C   UNL     1      -1.568  12.591  19.046  0.00  0.00    +0.000 A 
ATOM     17  C   UNL     1      -1.841  11.884  17.865  0.00  0.00    +0.000 A 
ATOM     18  C   UNL     1      -3.113  11.364  17.628  0.00  0.00    +0.000 A 
ATOM     19  C   UNL     1      -4.130  11.594  18.549  0.00  0.00    +0.000 A 
ATOM     20 CL   UNL     1      -5.708  10.985  18.241  0.00  0.00    +0.000 Cl
ATOM     21  C   UNL     1      -3.875  12.313  19.719  0.00  0.00    +0.000 A 
ATOM     22  C   UNL     1      -2.585  12.788  19.983  0.00  0.00    +0.000 A 
ENDBRANCH   7  16
BRANCH   8  23
ATOM     23  C   UNL     1       0.898  11.024  20.209  0.00  0.00    +0.000 A 
ATOM     24  C   UNL     1       0.765  10.338  21.425  0.00  0.00    +0.000 A 
ATOM     25  C   UNL     1       1.014   8.963  21.500  0.00  0.00    +0.000 A 
ATOM     26  C   UNL     1       1.415   8.269  20.362  0.00  0.00    +0.000 A 
ATOM     27 CL   UNL     1       1.751   6.585  20.457  0.00  0.00    +0.000 Cl
ATOM     28  C   UNL     1       1.558   8.935  19.148  0.00  0.00    +0.000 A 
ATOM     29  C   UNL     1       1.292  10.305  19.071  0.00  0.00    +0.000 A 
ENDBRANCH   8  23
BRANCH   4  30
ATOM     30  O   UNL     1       1.865  16.520  18.290  0.00  0.00    +0.000 OA
ATOM     31  H   UNL     1       1.239  17.073  18.806  0.00  0.00    +0.000 HD
ENDBRANCH   4  30
TORSDOF 4
ENDMDL
MODEL 4
REMARK VINA RESULT:      -6.5      0.943      1.791
REMARK  Name = 
REMARK  4 active torsions:
REMARK  status: ('A' for Active; 'I' for Inactive)
REMARK    1  A    between atoms: C_4  and  O_5
REMARK    2  A    between atoms: C_4  and  C_6
REMARK    3  A    between atoms: N_15  and  C_16
REMARK    4  A    between atoms: N_23  and  C_24
REMARK                            x       y       z     vdW  Elec       q    Type
REMARK                         _______ _______ _______ _____ _____    ______ ____
ROOT
ATOM      1  O   UNL     1       2.863  13.214  21.012  0.00  0.00    +0.000 OA
ATOM      2  C   UNL     1       1.813  13.380  20.422  0.00  0.00    +0.000 C 
ATOM      3  C   UNL     1       1.468  14.540  19.573  0.00  0.00    +0.000 C 
ATOM      4  C   UNL     1       2.255  15.510  19.077  0.00  0.00    +0.000 C 
ATOM      5  C   UNL     1       0.094  14.379  19.072  0.00  0.00    +0.000 C 
ATOM      6  O   UNL     1      -0.533  15.241  18.476  0.00  0.00    +0.000 OA
ATOM      7  N   UNL     1      -0.258  13.078  19.421  0.00  0.00    +0.000 N 
ATOM      8  N   UNL     1       0.693  12.517  20.320  0.00  0.00    +0.000 N 
ENDROOT
BRANCH   4   9
ATOM      9  C   UNL     1       3.716  15.450  19.147  0.00  0.00    +0.000 A 
ATOM     10  C   UNL     1       4.402  14.753  18.136  0.00  0.00    +0.000 A 
ATOM     11  C   UNL     1       5.794  14.670  18.147  0.00  0.00    +0.000 A 
ATOM     12  C   UNL     1       6.510  15.289  19.169  0.00  0.00    +0.000 A 
ATOM     13  C   UNL     1       5.832  15.986  20.169  0.00  0.00    +0.000 A 
ATOM     14 CL   UNL     1       6.730  16.759  21.419  0.00  0.00    +0.000 Cl
ATOM     15  C   UNL     1       4.439  16.075  20.165  0.00  0.00    +0.000 A 
ENDBRANCH   4   9
BRANCH   7  16
ATOM     16  C   UNL     1      -1.579  12.614  19.250  0.00  0.00    +0.000 A 
ATOM     17  C   UNL     1      -2.532  12.961  20.219  0.00  0.00    +0.000 A 
ATOM     18  C   UNL     1      -3.866  12.585  20.067  0.00  0.00    +0.000 A 
ATOM     19  C   UNL     1      -4.241  11.815  18.970  0.00  0.00    +0.000 A 
ATOM     20 CL   UNL     1      -5.879  11.319  18.800  0.00  0.00    +0.000 Cl
ATOM     21  C   UNL     1      -3.297  11.447  18.010  0.00  0.00    +0.000 A 
ATOM     22  C   UNL     1      -1.969  11.870  18.133  0.00  0.00    +0.000 A 
ENDBRANCH   7  16
BRANCH   8  23
ATOM     23  C   UNL     1       0.926  11.112  20.416  0.00  0.00    +0.000 A 
ATOM     24  C   UNL     1       1.277  10.384  19.270  0.00  0.00    +0.000 A 
ATOM     25  C   UNL     1       1.470   9.000  19.335  0.00  0.00    +0.000 A 
ATOM     26  C   UNL     1       1.298   8.333  20.545  0.00  0.00    +0.000 A 
ATOM     27 CL   UNL     1       1.507   6.628  20.623  0.00  0.00    +0.000 Cl
ATOM     28  C   UNL     1       0.945   9.039  21.691  0.00  0.00    +0.000 A 
ATOM     29  C   UNL     1       0.769  10.424  21.628  0.00  0.00    +0.000 A 
ENDBRANCH   8  23
BRANCH   4  30
ATOM     30  O   UNL     1       1.802  16.539  18.268  0.00  0.00    +0.000 OA
ATOM     31  H   UNL     1       2.570  17.035  17.911  0.00  0.00    +0.000 HD
ENDBRANCH   4  30
TORSDOF 4
ENDMDL
MODEL 5
REMARK VINA RESULT:      -6.3      2.449      3.533
REMARK  Name = 
REMARK  4 active torsions:
REMARK  status: ('A' for Active; 'I' for Inactive)
REMARK    1  A    between atoms: C_4  and  O_5
REMARK    2  A    between atoms: C_4  and  C_6
REMARK    3  A    between atoms: N_15  and  C_16
REMARK    4  A    between atoms: N_23  and  C_24
REMARK                            x       y       z     vdW  Elec       q    Type
REMARK                         _______ _______ _______ _____ _____    ______ ____
ROOT
ATOM      1  O   UNL     1       2.195  12.469  19.706  0.00  0.00    +0.000 OA
ATOM      2  C   UNL     1       1.369  12.953  20.456  0.00  0.00    +0.000 C 
ATOM      3  C   UNL     1       1.544  14.176  21.268  0.00  0.00    +0.000 C 
ATOM      4  C   UNL     1       2.493  15.125  21.203  0.00  0.00    +0.000 C 
ATOM      5  C   UNL     1       0.329  14.404  22.064  0.00  0.00    +0.000 C 
ATOM      6  O   UNL     1       0.224  15.241  22.947  0.00  0.00    +0.000 OA
ATOM      7  N   UNL     1      -0.596  13.491  21.565  0.00  0.00    +0.000 N 
ATOM      8  N   UNL     1       0.033  12.548  20.702  0.00  0.00    +0.000 N 
ENDROOT
BRANCH   4   9
ATOM      9  C   UNL     1       3.460  15.198  20.106  0.00  0.00    +0.000 A 
ATOM     10  C   UNL     1       2.996  15.582  18.835  0.00  0.00    +0.000 A 
ATOM     11  C   UNL     1       3.873  15.675  17.756  0.00  0.00    +0.000 A 
ATOM     12  C   UNL     1       5.224  15.389  17.941  0.00  0.00    +0.000 A 
ATOM     13  C   UNL     1       5.687  15.014  19.203  0.00  0.00    +0.000 A 
ATOM     14 CL   UNL     1       7.361  14.676  19.422  0.00  0.00    +0.000 Cl
ATOM     15  C   UNL     1       4.816  14.919  20.289  0.00  0.00    +0.000 A 
ENDBRANCH   4   9
BRANCH   7  16
ATOM     16  C   UNL     1      -1.841  13.299  22.200  0.00  0.00    +0.000 A 
ATOM     17  C   UNL     1      -2.922  14.095  21.793  0.00  0.00    +0.000 A 
ATOM     18  C   UNL     1      -4.189  13.903  22.341  0.00  0.00    +0.000 A 
ATOM     19  C   UNL     1      -4.369  12.948  23.336  0.00  0.00    +0.000 A 
ATOM     20 CL   UNL     1      -5.923  12.736  24.040  0.00  0.00    +0.000 Cl
ATOM     21  C   UNL     1      -3.296  12.164  23.764  0.00  0.00    +0.000 A 
ATOM     22  C   UNL     1      -2.035  12.318  23.176  0.00  0.00    +0.000 A 
ENDBRANCH   7  16
BRANCH   8  23
ATOM     23  C   UNL     1      -0.664  11.882  19.651  0.00  0.00    +0.000 A 
ATOM     24  C   UNL     1      -0.749  10.482  19.649  0.00  0.00    +0.000 A 
ATOM     25  C   UNL     1      -1.394   9.807  18.607  0.00  0.00    +0.000 A 
ATOM     26  C   UNL     1      -1.944  10.529  17.551  0.00  0.00    +0.000 A 
ATOM     27 CL   UNL     1      -2.712   9.702  16.254  0.00  0.00    +0.000 Cl
ATOM     28  C   UNL     1      -1.865  11.918  17.534  0.00  0.00    +0.000 A 
ATOM     29  C   UNL     1      -1.235  12.592  18.584  0.00  0.00    +0.000 A 
ENDBRANCH   8  23
BRANCH   4  30
ATOM     30  O   UNL     1       2.529  16.244  22.018  0.00  0.00    +0.000 OA
ATOM     31  H   UNL     1       3.172  16.892  21.657  0.00  0.00    +0.000 HD
ENDBRANCH   4  30
TORSDOF 4
ENDMDL
MODEL 6
REMARK VINA RESULT:      -6.2      4.821      6.685
REMARK  Name = 
REMARK  4 active torsions:
REMARK  status: ('A' for Active; 'I' for Inactive)
REMARK    1  A    between atoms: C_4  and  O_5
REMARK    2  A    between atoms: C_4  and  C_6
REMARK    3  A    between atoms: N_15  and  C_16
REMARK    4  A    between atoms: N_23  and  C_24
REMARK                            x       y       z     vdW  Elec       q    Type
REMARK                         _______ _______ _______ _____ _____    ______ ____
ROOT
ATOM      1  O   UNL     1       0.325  15.241  23.247  0.00  0.00    +0.000 OA
ATOM      2  C   UNL     1      -0.459  14.469  22.728  0.00  0.00    +0.000 C 
ATOM      3  C   UNL     1      -1.728  13.993  23.317  0.00  0.00    +0.000 C 
ATOM      4  C   UNL     1      -2.406  14.446  24.385  0.00  0.00    +0.000 C 
ATOM      5  C   UNL     1      -2.363  13.044  22.390  0.00  0.00    +0.000 C 
ATOM      6  O   UNL     1      -3.340  12.361  22.657  0.00  0.00    +0.000 OA
ATOM      7  N   UNL     1      -1.618  13.144  21.218  0.00  0.00    +0.000 N 
ATOM      8  N   UNL     1      -0.422  13.885  21.437  0.00  0.00    +0.000 N 
ENDROOT
BRANCH   4   9
ATOM      9  C   UNL     1      -2.064  15.699  25.061  0.00  0.00    +0.000 A 
ATOM     10  C   UNL     1      -2.642  16.890  24.585  0.00  0.00    +0.000 A 
ATOM     11  C   UNL     1      -2.359  18.111  25.195  0.00  0.00    +0.000 A 
ATOM     12  C   UNL     1      -1.497  18.149  26.289  0.00  0.00    +0.000 A 
ATOM     13  C   UNL     1      -0.928  16.968  26.766  0.00  0.00    +0.000 A 
ATOM     14 CL   UNL     1       0.124  17.027  28.128  0.00  0.00    +0.000 Cl
ATOM     15  C   UNL     1      -1.207  15.741  26.163  0.00  0.00    +0.000 A 
ENDBRANCH   4   9
BRANCH   7  16
ATOM     16  C   UNL     1      -1.831  12.252  20.147  0.00  0.00    +0.000 A 
ATOM     17  C   UNL     1      -2.991  12.411  19.373  0.00  0.00    +0.000 A 
ATOM     18  C   UNL     1      -3.219  11.600  18.263  0.00  0.00    +0.000 A 
ATOM     19  C   UNL     1      -2.312  10.591  17.952  0.00  0.00    +0.000 A 
ATOM     20 CL   UNL     1      -2.611   9.566  16.605  0.00  0.00    +0.000 Cl
ATOM     21  C   UNL     1      -1.165  10.410  18.726  0.00  0.00    +0.000 A 
ATOM     22  C   UNL     1      -0.907  11.259  19.809  0.00  0.00    +0.000 A 
ENDBRANCH   7  16
BRANCH   8  23
ATOM     23  C   UNL     1       0.234  14.610  20.398  0.00  0.00    +0.000 A 
ATOM     24  C   UNL     1       1.557  14.294  20.056  0.00  0.00    +0.000 A 
ATOM     25  C   UNL     1       2.232  15.019  19.068  0.00  0.00    +0.000 A 
ATOM     26  C   UNL     1       1.592  16.076  18.427  0.00  0.00    +0.000 A 
ATOM     27 CL   UNL     1       2.427  16.988  17.232  0.00  0.00    +0.000 Cl
ATOM     28  C   UNL     1       0.281  16.407  18.757  0.00  0.00    +0.000 A 
ATOM     29  C   UNL     1      -0.397  15.671  19.732  0.00  0.00    +0.000 A 
ENDBRANCH   8  23
BRANCH   4  30
ATOM     30  O   UNL     1      -3.609  13.916  24.823  0.00  0.00    +0.000 OA
ATOM     31  H   UNL     1      -3.784  13.072  24.354  0.00  0.00    +0.000 HD
ENDBRANCH   4  30
TORSDOF 4
ENDMDL
MODEL 7
REMARK VINA RESULT:      -6.2      2.449      3.597
REMARK  Name = 
REMARK  4 active torsions:
REMARK  status: ('A' for Active; 'I' for Inactive)
REMARK    1  A    between atoms: C_4  and  O_5
REMARK    2  A    between atoms: C_4  and  C_6
REMARK    3  A    between atoms: N_15  and  C_16
REMARK    4  A    between atoms: N_23  and  C_24
REMARK                            x       y       z     vdW  Elec       q    Type
REMARK                         _______ _______ _______ _____ _____    ______ ____
ROOT
ATOM      1  O   UNL     1       2.228  12.439  19.734  0.00  0.00    +0.000 OA
ATOM      2  C   UNL     1       1.376  12.928  20.452  0.00  0.00    +0.000 C 
ATOM      3  C   UNL     1       1.520  14.160  21.256  0.00  0.00    +0.000 C 
ATOM      4  C   UNL     1       2.467  15.112  21.211  0.00  0.00    +0.000 C 
ATOM      5  C   UNL     1       0.279  14.390  22.011  0.00  0.00    +0.000 C 
ATOM      6  O   UNL     1       0.143  15.236  22.881  0.00  0.00    +0.000 OA
ATOM      7  N   UNL     1      -0.626  13.469  21.492  0.00  0.00    +0.000 N 
ATOM      8  N   UNL     1       0.035  12.520  20.660  0.00  0.00    +0.000 N 
ENDROOT
BRANCH   4   9
ATOM      9  C   UNL     1       3.468  15.177  20.145  0.00  0.00    +0.000 A 
ATOM     10  C   UNL     1       3.037  15.508  18.847  0.00  0.00    +0.000 A 
ATOM     11  C   UNL     1       3.948  15.592  17.795  0.00  0.00    +0.000 A 
ATOM     12  C   UNL     1       5.298  15.350  18.035  0.00  0.00    +0.000 A 
ATOM     13  C   UNL     1       5.728  15.029  19.322  0.00  0.00    +0.000 A 
ATOM     14 CL   UNL     1       7.403  14.745  19.607  0.00  0.00    +0.000 Cl
ATOM     15  C   UNL     1       4.825  14.943  20.381  0.00  0.00    +0.000 A 
ENDBRANCH   4   9
BRANCH   7  16
ATOM     16  C   UNL     1      -1.889  13.278  22.089  0.00  0.00    +0.000 A 
ATOM     17  C   UNL     1      -2.000  12.321  23.110  0.00  0.00    +0.000 A 
ATOM     18  C   UNL     1      -3.209  12.137  23.780  0.00  0.00    +0.000 A 
ATOM     19  C   UNL     1      -4.325  12.873  23.396  0.00  0.00    +0.000 A 
ATOM     20 CL   UNL     1      -5.826  12.620  24.196  0.00  0.00    +0.000 Cl
ATOM     21  C   UNL     1      -4.232  13.813  22.367  0.00  0.00    +0.000 A 
ATOM     22  C   UNL     1      -3.006  14.037  21.731  0.00  0.00    +0.000 A 
ENDBRANCH   7  16
BRANCH   8  23
ATOM     23  C   UNL     1      -0.626  11.839  19.594  0.00  0.00    +0.000 A 
ATOM     24  C   UNL     1      -1.177  12.573  18.534  0.00  0.00    +0.000 A 
ATOM     25  C   UNL     1      -1.864  11.928  17.500  0.00  0.00    +0.000 A 
ATOM     26  C   UNL     1      -2.017  10.545  17.528  0.00  0.00    +0.000 A 
ATOM     27 CL   UNL     1      -2.885   9.751  16.274  0.00  0.00    +0.000 Cl
ATOM     28  C   UNL     1      -1.481   9.801  18.575  0.00  0.00    +0.000 A 
ATOM     29  C   UNL     1      -0.781  10.445  19.599  0.00  0.00    +0.000 A 
ENDBRANCH   8  23
BRANCH   4  30
ATOM     30  O   UNL     1       2.472  16.240  22.016  0.00  0.00    +0.000 OA
ATOM     31  H   UNL     1       1.686  16.226  22.604  0.00  0.00    +0.000 HD
ENDBRANCH   4  30
TORSDOF 4
ENDMDL
MODEL 8
REMARK VINA RESULT:      -6.1      2.798      7.126
REMARK  Name = 
REMARK  4 active torsions:
REMARK  status: ('A' for Active; 'I' for Inactive)
REMARK    1  A    between atoms: C_4  and  O_5
REMARK    2  A    between atoms: C_4  and  C_6
REMARK    3  A    between atoms: N_15  and  C_16
REMARK    4  A    between atoms: N_23  and  C_24
REMARK                            x       y       z     vdW  Elec       q    Type
REMARK                         _______ _______ _______ _____ _____    ______ ____
ROOT
ATOM      1  O   UNL     1      -2.757  12.191  20.775  0.00  0.00    +0.000 OA
ATOM      2  C   UNL     1      -1.833  12.982  20.778  0.00  0.00    +0.000 C 
ATOM      3  C   UNL     1      -1.838  14.323  21.400  0.00  0.00    +0.000 C 
ATOM      4  C   UNL     1      -2.711  14.869  22.264  0.00  0.00    +0.000 C 
ATOM      5  C   UNL     1      -0.544  14.975  21.152  0.00  0.00    +0.000 C 
ATOM      6  O   UNL     1      -0.296  16.144  21.401  0.00  0.00    +0.000 OA
ATOM      7  N   UNL     1       0.259  13.972  20.615  0.00  0.00    +0.000 N 
ATOM      8  N   UNL     1      -0.517  12.826  20.276  0.00  0.00    +0.000 N 
ENDROOT
BRANCH   4   9
ATOM      9  C   UNL     1      -3.763  14.088  22.919  0.00  0.00    +0.000 A 
ATOM     10  C   UNL     1      -3.405  13.279  24.014  0.00  0.00    +0.000 A 
ATOM     11  C   UNL     1      -4.366  12.521  24.681  0.00  0.00    +0.000 A 
ATOM     12  C   UNL     1      -5.693  12.570  24.261  0.00  0.00    +0.000 A 
ATOM     13  C   UNL     1      -6.050  13.376  23.180  0.00  0.00    +0.000 A 
ATOM     14 CL   UNL     1      -7.697  13.437  22.679  0.00  0.00    +0.000 Cl
ATOM     15  C   UNL     1      -5.096  14.139  22.506  0.00  0.00    +0.000 A 
ENDBRANCH   4   9
BRANCH   7  16
ATOM     16  C   UNL     1       1.535  14.267  20.092  0.00  0.00    +0.000 A 
ATOM     17  C   UNL     1       1.626  14.648  18.745  0.00  0.00    +0.000 A 
ATOM     18  C   UNL     1       2.853  15.013  18.193  0.00  0.00    +0.000 A 
ATOM     19  C   UNL     1       4.003  14.950  18.974  0.00  0.00    +0.000 A 
ATOM     20 CL   UNL     1       5.522  15.364  18.284  0.00  0.00    +0.000 Cl
ATOM     21  C   UNL     1       3.927  14.552  20.310  0.00  0.00    +0.000 A 
ATOM     22  C   UNL     1       2.688  14.238  20.880  0.00  0.00    +0.000 A 
ENDBRANCH   7  16
BRANCH   8  23
ATOM     23  C   UNL     1       0.031  11.509  20.242  0.00  0.00    +0.000 A 
ATOM     24  C   UNL     1       0.298  10.834  21.441  0.00  0.00    +0.000 A 
ATOM     25  C   UNL     1       0.872   9.558  21.430  0.00  0.00    +0.000 A 
ATOM     26  C   UNL     1       1.197   8.956  20.218  0.00  0.00    +0.000 A 
ATOM     27 CL   UNL     1       1.928   7.400  20.201  0.00  0.00    +0.000 Cl
ATOM     28  C   UNL     1       0.943   9.613  19.018  0.00  0.00    +0.000 A 
ATOM     29  C   UNL     1       0.355  10.881  19.030  0.00  0.00    +0.000 A 
ENDBRANCH   8  23
BRANCH   4  30
ATOM     30  O   UNL     1      -2.587  16.143  22.792  0.00  0.00    +0.000 OA
ATOM     31  H   UNL     1      -1.734  16.534  22.505  0.00  0.00    +0.000 HD
ENDBRANCH   4  30
TORSDOF 4
ENDMDL
MODEL 9
REMARK VINA RESULT:      -6.0      2.736      7.186
REMARK  Name = 
REMARK  4 active torsions:
REMARK  status: ('A' for Active; 'I' for Inactive)
REMARK    1  A    between atoms: C_4  and  O_5
REMARK    2  A    between atoms: C_4  and  C_6
REMARK    3  A    between atoms: N_15  and  C_16
REMARK    4  A    between atoms: N_23  and  C_24
REMARK                            x       y       z     vdW  Elec       q    Type
REMARK                         _______ _______ _______ _____ _____    ______ ____
ROOT
ATOM      1  O   UNL     1      -2.663  12.142  20.750  0.00  0.00    +0.000 OA
ATOM      2  C   UNL     1      -1.766  12.963  20.726  0.00  0.00    +0.000 C 
ATOM      3  C   UNL     1      -1.818  14.325  21.297  0.00  0.00    +0.000 C 
ATOM      4  C   UNL     1      -2.711  14.873  22.138  0.00  0.00    +0.000 C 
ATOM      5  C   UNL     1      -0.545  15.011  21.026  0.00  0.00    +0.000 C 
ATOM      6  O   UNL     1      -0.338  16.196  21.233  0.00  0.00    +0.000 OA
ATOM      7  N   UNL     1       0.292  14.016  20.529  0.00  0.00    +0.000 N 
ATOM      8  N   UNL     1      -0.444  12.833  20.231  0.00  0.00    +0.000 N 
ENDROOT
BRANCH   4   9
ATOM      9  C   UNL     1      -3.738  14.083  22.821  0.00  0.00    +0.000 A 
ATOM     10  C   UNL     1      -3.360  13.339  23.954  0.00  0.00    +0.000 A 
ATOM     11  C   UNL     1      -4.296  12.575  24.648  0.00  0.00    +0.000 A 
ATOM     12  C   UNL     1      -5.620  12.552  24.216  0.00  0.00    +0.000 A 
ATOM     13  C   UNL     1      -5.998  13.294  23.096  0.00  0.00    +0.000 A 
ATOM     14 CL   UNL     1      -7.641  13.267  22.581  0.00  0.00    +0.000 Cl
ATOM     15  C   UNL     1      -5.068  14.062  22.396  0.00  0.00    +0.000 A 
ENDBRANCH   4   9
BRANCH   7  16
ATOM     16  C   UNL     1       1.559  14.334  19.997  0.00  0.00    +0.000 A 
ATOM     17  C   UNL     1       2.667  14.290  20.857  0.00  0.00    +0.000 A 
ATOM     18  C   UNL     1       3.951  14.531  20.370  0.00  0.00    +0.000 A 
ATOM     19  C   UNL     1       4.126  14.869  19.032  0.00  0.00    +0.000 A 
ATOM     20 CL   UNL     1       5.704  15.203  18.439  0.00  0.00    +0.000 Cl
ATOM     21  C   UNL     1       3.028  14.935  18.171  0.00  0.00    +0.000 A 
ATOM     22  C   UNL     1       1.745  14.639  18.646  0.00  0.00    +0.000 A 
ENDBRANCH   7  16
BRANCH   8  23
ATOM     23  C   UNL     1       0.148  11.535  20.247  0.00  0.00    +0.000 A 
ATOM     24  C   UNL     1       0.459  10.896  19.038  0.00  0.00    +0.000 A 
ATOM     25  C   UNL     1       1.003   9.606  19.032  0.00  0.00    +0.000 A 
ATOM     26  C   UNL     1       1.222   8.942  20.235  0.00  0.00    +0.000 A 
ATOM     27 CL   UNL     1       1.863   7.346  20.230  0.00  0.00    +0.000 Cl
ATOM     28  C   UNL     1       0.914   9.558  21.443  0.00  0.00    +0.000 A 
ATOM     29  C   UNL     1       0.387  10.853  21.449  0.00  0.00    +0.000 A 
ENDBRANCH   8  23
BRANCH   4  30
ATOM     30  O   UNL     1      -2.631  16.170  22.619  0.00  0.00    +0.000 OA
ATOM     31  H   UNL     1      -3.418  16.677  22.323  0.00  0.00    +0.000 HD
ENDBRANCH   4  30
TORSDOF 4
ENDMDL
