MODEL 1
REMARK VINA RESULT:      -8.1      0.000      0.000
REMARK  Name = 
REMARK  8 active torsions:
REMARK  status: ('A' for Active; 'I' for Inactive)
REMARK    1  A    between atoms: C_1  and  C_2
REMARK    2  A    between atoms: C_5  and  S_6
REMARK    3  A    between atoms: S_6  and  N_9
REMARK    4  A    between atoms: N_9  and  C_10
REMARK    5  A    between atoms: C_10  and  C_11
REMARK    6  A    between atoms: C_11  and  O_13
REMARK    7  A    between atoms: O_13  and  C_14
REMARK    8  A    between atoms: C_14  and  C_15
REMARK                            x       y       z     vdW  Elec       q    Type
REMARK                         _______ _______ _______ _____ _____    ______ ____
ROOT
ATOM      1  O   UNL     1       7.245   7.004  16.953  0.00  0.00    +0.000 OA
ENDROOT
BRANCH   1   2
ATOM      2  C   UNL     1       7.924   7.649  17.941  0.00  0.00    +0.000 C 
ATOM      3  O   UNL     1       8.407   7.110  18.930  0.00  0.00    +0.000 OA
BRANCH   2   4
ATOM      4  C   UNL     1       7.869   9.132  17.696  0.00  0.00    +0.000 C 
BRANCH   4   5
ATOM      5  N   UNL     1       8.760   9.875  18.597  0.00  0.00    +0.000 NA
ATOM      6  H   UNL     1       8.552   9.791  19.594  0.00  0.00    +0.000 HD
BRANCH   5   7
ATOM      7  S   UNL     1       9.179  11.427  18.113  0.00  0.00    +0.000 S 
ATOM      8  O   UNL     1       8.114  11.942  17.283  0.00  0.00    +0.000 OA
ATOM      9  O   UNL     1      10.549  11.363  17.649  0.00  0.00    +0.000 OA
BRANCH   7  14
ATOM     10  C   UNL     1       8.942  14.485  23.355  0.00  0.00    +0.000 C 
ATOM     11  C   UNL     1       9.035  13.741  22.054  0.00  0.00    +0.000 A 
ATOM     12  C   UNL     1       8.706  14.371  20.847  0.00  0.00    +0.000 A 
ATOM     13  C   UNL     1       8.773  13.669  19.642  0.00  0.00    +0.000 A 
ATOM     14  C   UNL     1       9.170  12.330  19.645  0.00  0.00    +0.000 A 
ATOM     15  C   UNL     1       9.488  11.685  20.843  0.00  0.00    +0.000 A 
ATOM     16  C   UNL     1       9.432  12.397  22.043  0.00  0.00    +0.000 A 
ENDBRANCH   7  14
ENDBRANCH   5   7
ENDBRANCH   4   5
ENDBRANCH   2   4
ENDBRANCH   1   2
BRANCH   1  17
ATOM     17  C   UNL     1       5.833   6.986  17.158  0.00  0.00    +0.000 C 
BRANCH  17  18
ATOM     18  C   UNL     1       5.432   5.776  18.027  0.00  0.00    +0.000 C 
ATOM     19  O   UNL     1       6.273   4.890  18.218  0.00  0.00    +0.000 OA
ATOM     20  N   UNL     1       4.153   5.789  18.589  0.00  0.00    +0.000 N 
ATOM     21  C   UNL     1       3.189   6.866  18.329  0.00  0.00    +0.000 C 
ATOM     22  C   UNL     1       2.354   7.279  19.527  0.00  0.00    +0.000 C 
ATOM     23  O   UNL     1       1.823   8.384  19.614  0.00  0.00    +0.000 OA
ATOM     24  N   UNL     1       2.073   6.294  20.425  0.00  0.00    +0.000 N 
ATOM     25  C   UNL     1       2.617   5.010  20.335  0.00  0.00    +0.000 A 
ATOM     26  C   UNL     1       2.124   4.031  21.202  0.00  0.00    +0.000 A 
ATOM     27  C   UNL     1       2.636   2.740  21.149  0.00  0.00    +0.000 A 
ATOM     28  C   UNL     1       3.652   2.436  20.248  0.00  0.00    +0.000 A 
ATOM     29  C   UNL     1       4.166   3.425  19.401  0.00  0.00    +0.000 A 
ATOM     30  C   UNL     1       3.659   4.728  19.426  0.00  0.00    +0.000 A 
ATOM     31  H   UNL     1       1.419   6.531  21.161  0.00  0.00    +0.000 HD
ENDBRANCH  17  18
ENDBRANCH   1  17
TORSDOF 7
ENDMDL
MODEL 2
REMARK VINA RESULT:      -8.0      4.808      7.574
REMARK  Name = 
REMARK  8 active torsions:
REMARK  status: ('A' for Active; 'I' for Inactive)
REMARK    1  A    between atoms: C_1  and  C_2
REMARK    2  A    between atoms: C_5  and  S_6
REMARK    3  A    between atoms: S_6  and  N_9
REMARK    4  A    between atoms: N_9  and  C_10
REMARK    5  A    between atoms: C_10  and  C_11
REMARK    6  A    between atoms: C_11  and  O_13
REMARK    7  A    between atoms: O_13  and  C_14
REMARK    8  A    between atoms: C_14  and  C_15
REMARK                            x       y       z     vdW  Elec       q    Type
REMARK                         _______ _______ _______ _____ _____    ______ ____
ROOT
ATOM      1  O   UNL     1       3.422   6.061  19.872  0.00  0.00    +0.000 OA
ENDROOT
BRANCH   1   2
ATOM      2  C   UNL     1       2.137   6.173  20.309  0.00  0.00    +0.000 C 
ATOM      3  O   UNL     1       1.405   5.230  20.586  0.00  0.00    +0.000 OA
BRANCH   2   4
ATOM      4  C   UNL     1       1.721   7.618  20.267  0.00  0.00    +0.000 C 
BRANCH   4   5
ATOM      5  N   UNL     1       1.760   8.243  21.595  0.00  0.00    +0.000 NA
ATOM      6  H   UNL     1       2.203   7.690  22.332  0.00  0.00    +0.000 HD
BRANCH   5   7
ATOM      7  S   UNL     1       0.365   9.040  22.083  0.00  0.00    +0.000 S 
ATOM      8  O   UNL     1       0.620   9.646  23.370  0.00  0.00    +0.000 OA
ATOM      9  O   UNL     1      -0.733   8.121  21.872  0.00  0.00    +0.000 OA
BRANCH   7  14
ATOM     10  C   UNL     1      -0.314  13.545  18.066  0.00  0.00    +0.000 C 
ATOM     11  C   UNL     1      -0.121  12.417  19.037  0.00  0.00    +0.000 A 
ATOM     12  C   UNL     1      -0.835  11.221  18.894  0.00  0.00    +0.000 A 
ATOM     13  C   UNL     1      -0.668  10.183  19.812  0.00  0.00    +0.000 A 
ATOM     14  C   UNL     1       0.218  10.341  20.880  0.00  0.00    +0.000 A 
ATOM     15  C   UNL     1       0.927  11.534  21.044  0.00  0.00    +0.000 A 
ATOM     16  C   UNL     1       0.765  12.564  20.114  0.00  0.00    +0.000 A 
ENDBRANCH   7  14
ENDBRANCH   5   7
ENDBRANCH   4   5
ENDBRANCH   2   4
ENDBRANCH   1   2
BRANCH   1  17
ATOM     17  C   UNL     1       3.811   4.715  19.601  0.00  0.00    +0.000 C 
BRANCH  17  18
ATOM     18  C   UNL     1       4.086   4.529  18.094  0.00  0.00    +0.000 C 
ATOM     19  O   UNL     1       3.139   4.228  17.360  0.00  0.00    +0.000 OA
ATOM     20  N   UNL     1       5.389   4.770  17.649  0.00  0.00    +0.000 N 
ATOM     21  C   UNL     1       6.481   5.125  18.564  0.00  0.00    +0.000 C 
ATOM     22  C   UNL     1       7.447   6.167  18.031  0.00  0.00    +0.000 C 
ATOM     23  O   UNL     1       8.141   6.864  18.768  0.00  0.00    +0.000 OA
ATOM     24  N   UNL     1       7.640   6.166  16.682  0.00  0.00    +0.000 N 
ATOM     25  C   UNL     1       6.907   5.352  15.814  0.00  0.00    +0.000 A 
ATOM     26  C   UNL     1       7.308   5.301  14.476  0.00  0.00    +0.000 A 
ATOM     27  C   UNL     1       6.609   4.506  13.575  0.00  0.00    +0.000 A 
ATOM     28  C   UNL     1       5.500   3.784  14.008  0.00  0.00    +0.000 A 
ATOM     29  C   UNL     1       5.081   3.861  15.341  0.00  0.00    +0.000 A 
ATOM     30  C   UNL     1       5.776   4.643  16.270  0.00  0.00    +0.000 A 
ATOM     31  H   UNL     1       8.370   6.774  16.333  0.00  0.00    +0.000 HD
ENDBRANCH  17  18
ENDBRANCH   1  17
TORSDOF 7
ENDMDL
MODEL 3
REMARK VINA RESULT:      -7.9      2.838      9.734
REMARK  Name = 
REMARK  8 active torsions:
REMARK  status: ('A' for Active; 'I' for Inactive)
REMARK    1  A    between atoms: C_1  and  C_2
REMARK    2  A    between atoms: C_5  and  S_6
REMARK    3  A    between atoms: S_6  and  N_9
REMARK    4  A    between atoms: N_9  and  C_10
REMARK    5  A    between atoms: C_10  and  C_11
REMARK    6  A    between atoms: C_11  and  O_13
REMARK    7  A    between atoms: O_13  and  C_14
REMARK    8  A    between atoms: C_14  and  C_15
REMARK                            x       y       z     vdW  Elec       q    Type
REMARK                         _______ _______ _______ _____ _____    ______ ____
ROOT
ATOM      1  O   UNL     1       8.833   9.017  18.723  0.00  0.00    +0.000 OA
ENDROOT
BRANCH   1   2
ATOM      2  C   UNL     1       7.887   8.518  17.881  0.00  0.00    +0.000 C 
ATOM      3  O   UNL     1       7.106   9.194  17.221  0.00  0.00    +0.000 OA
BRANCH   2   4
ATOM      4  C   UNL     1       7.861   7.018  17.994  0.00  0.00    +0.000 C 
BRANCH   4   5
ATOM      5  N   UNL     1       7.394   6.378  16.757  0.00  0.00    +0.000 NA
ATOM      6  H   UNL     1       6.645   6.867  16.262  0.00  0.00    +0.000 HD
BRANCH   5   7
ATOM      7  S   UNL     1       7.205   4.710  16.809  0.00  0.00    +0.000 S 
ATOM      8  O   UNL     1       8.186   4.176  17.728  0.00  0.00    +0.000 OA
ATOM      9  O   UNL     1       7.115   4.259  15.437  0.00  0.00    +0.000 OA
BRANCH   7  14
ATOM     10  C   UNL     1       1.679   4.266  19.291  0.00  0.00    +0.000 C 
ATOM     11  C   UNL     1       3.054   4.344  18.692  0.00  0.00    +0.000 A 
ATOM     12  C   UNL     1       4.126   4.860  19.429  0.00  0.00    +0.000 A 
ATOM     13  C   UNL     1       5.398   4.950  18.860  0.00  0.00    +0.000 A 
ATOM     14  C   UNL     1       5.598   4.521  17.546  0.00  0.00    +0.000 A 
ATOM     15  C   UNL     1       4.534   4.016  16.794  0.00  0.00    +0.000 A 
ATOM     16  C   UNL     1       3.268   3.917  17.373  0.00  0.00    +0.000 A 
ENDBRANCH   7  14
ENDBRANCH   5   7
ENDBRANCH   4   5
ENDBRANCH   2   4
ENDBRANCH   1   2
BRANCH   1  17
ATOM     17  C   UNL     1       9.299  10.311  18.344  0.00  0.00    +0.000 C 
BRANCH  17  18
ATOM     18  C   UNL     1       9.389  11.231  19.580  0.00  0.00    +0.000 C 
ATOM     19  O   UNL     1       9.289  10.717  20.699  0.00  0.00    +0.000 OA
ATOM     20  N   UNL     1       9.636  12.587  19.349  0.00  0.00    +0.000 N 
ATOM     21  C   UNL     1       9.746  13.149  17.997  0.00  0.00    +0.000 C 
ATOM     22  C   UNL     1      10.814  14.215  17.834  0.00  0.00    +0.000 C 
ATOM     23  O   UNL     1      11.317  14.487  16.746  0.00  0.00    +0.000 OA
ATOM     24  N   UNL     1      11.061  14.984  18.931  0.00  0.00    +0.000 N 
ATOM     25  C   UNL     1      10.471  14.740  20.174  0.00  0.00    +0.000 A 
ATOM     26  C   UNL     1      10.654  15.693  21.180  0.00  0.00    +0.000 A 
ATOM     27  C   UNL     1      10.088  15.492  22.434  0.00  0.00    +0.000 A 
ATOM     28  C   UNL     1       9.361  14.331  22.685  0.00  0.00    +0.000 A 
ATOM     29  C   UNL     1       9.205  13.364  21.686  0.00  0.00    +0.000 A 
ATOM     30  C   UNL     1       9.754  13.549  20.412  0.00  0.00    +0.000 A 
ATOM     31  H   UNL     1      11.681  15.773  18.796  0.00  0.00    +0.000 HD
ENDBRANCH  17  18
ENDBRANCH   1  17
TORSDOF 7
ENDMDL
MODEL 4
REMARK VINA RESULT:      -7.9      6.009      8.669
REMARK  Name = 
REMARK  8 active torsions:
REMARK  status: ('A' for Active; 'I' for Inactive)
REMARK    1  A    between atoms: C_1  and  C_2
REMARK    2  A    between atoms: C_5  and  S_6
REMARK    3  A    between atoms: S_6  and  N_9
REMARK    4  A    between atoms: N_9  and  C_10
REMARK    5  A    between atoms: C_10  and  C_11
REMARK    6  A    between atoms: C_11  and  O_13
REMARK    7  A    between atoms: O_13  and  C_14
REMARK    8  A    between atoms: C_14  and  C_15
REMARK                            x       y       z     vdW  Elec       q    Type
REMARK                         _______ _______ _______ _____ _____    ______ ____
ROOT
ATOM      1  O   UNL     1       0.826   8.967  20.733  0.00  0.00    +0.000 OA
ENDROOT
BRANCH   1   2
ATOM      2  C   UNL     1       0.918   9.804  21.803  0.00  0.00    +0.000 C 
ATOM      3  O   UNL     1       1.279   9.473  22.926  0.00  0.00    +0.000 OA
BRANCH   2   4
ATOM      4  C   UNL     1       0.380  11.157  21.424  0.00  0.00    +0.000 C 
BRANCH   4   5
ATOM      5  N   UNL     1      -1.088  11.200  21.468  0.00  0.00    +0.000 NA
ATOM      6  H   UNL     1      -1.559  10.294  21.420  0.00  0.00    +0.000 HD
BRANCH   5   7
ATOM      7  S   UNL     1      -1.823  12.404  20.557  0.00  0.00    +0.000 S 
ATOM      8  O   UNL     1      -0.830  13.412  20.260  0.00  0.00    +0.000 OA
ATOM      9  O   UNL     1      -3.068  12.726  21.221  0.00  0.00    +0.000 OA
BRANCH   7  14
ATOM     10  C   UNL     1      -3.130   9.691  15.282  0.00  0.00    +0.000 C 
ATOM     11  C   UNL     1      -2.824  10.335  16.603  0.00  0.00    +0.000 A 
ATOM     12  C   UNL     1      -3.735  11.220  17.194  0.00  0.00    +0.000 A 
ATOM     13  C   UNL     1      -3.437  11.833  18.412  0.00  0.00    +0.000 A 
ATOM     14  C   UNL     1      -2.222  11.560  19.043  0.00  0.00    +0.000 A 
ATOM     15  C   UNL     1      -1.297  10.689  18.459  0.00  0.00    +0.000 A 
ATOM     16  C   UNL     1      -1.607  10.070  17.246  0.00  0.00    +0.000 A 
ENDBRANCH   7  14
ENDBRANCH   5   7
ENDBRANCH   4   5
ENDBRANCH   2   4
ENDBRANCH   1   2
BRANCH   1  17
ATOM     17  C   UNL     1       1.179   7.619  21.041  0.00  0.00    +0.000 C 
BRANCH  17  18
ATOM     18  C   UNL     1       2.084   7.036  19.935  0.00  0.00    +0.000 C 
ATOM     19  O   UNL     1       2.702   7.824  19.210  0.00  0.00    +0.000 OA
ATOM     20  N   UNL     1       2.187   5.645  19.862  0.00  0.00    +0.000 N 
ATOM     21  C   UNL     1       1.429   4.751  20.747  0.00  0.00    +0.000 C 
ATOM     22  C   UNL     1       2.190   3.527  21.223  0.00  0.00    +0.000 C 
ATOM     23  O   UNL     1       1.888   2.917  22.246  0.00  0.00    +0.000 OA
ATOM     24  N   UNL     1       3.118   3.030  20.358  0.00  0.00    +0.000 N 
ATOM     25  C   UNL     1       3.454   3.666  19.160  0.00  0.00    +0.000 A 
ATOM     26  C   UNL     1       4.283   2.980  18.269  0.00  0.00    +0.000 A 
ATOM     27  C   UNL     1       4.646   3.574  17.065  0.00  0.00    +0.000 A 
ATOM     28  C   UNL     1       4.197   4.858  16.766  0.00  0.00    +0.000 A 
ATOM     29  C   UNL     1       3.393   5.555  17.674  0.00  0.00    +0.000 A 
ATOM     30  C   UNL     1       3.003   4.975  18.885  0.00  0.00    +0.000 A 
ATOM     31  H   UNL     1       3.542   2.147  20.614  0.00  0.00    +0.000 HD
ENDBRANCH  17  18
ENDBRANCH   1  17
TORSDOF 7
ENDMDL
MODEL 5
REMARK VINA RESULT:      -7.8      5.590      8.216
REMARK  Name = 
REMARK  8 active torsions:
REMARK  status: ('A' for Active; 'I' for Inactive)
REMARK    1  A    between atoms: C_1  and  C_2
REMARK    2  A    between atoms: C_5  and  S_6
REMARK    3  A    between atoms: S_6  and  N_9
REMARK    4  A    between atoms: N_9  and  C_10
REMARK    5  A    between atoms: C_10  and  C_11
REMARK    6  A    between atoms: C_11  and  O_13
REMARK    7  A    between atoms: O_13  and  C_14
REMARK    8  A    between atoms: C_14  and  C_15
REMARK                            x       y       z     vdW  Elec       q    Type
REMARK                         _______ _______ _______ _____ _____    ______ ____
ROOT
ATOM      1  O   UNL     1       1.955   8.160  20.248  0.00  0.00    +0.000 OA
ENDROOT
BRANCH   1   2
ATOM      2  C   UNL     1       0.998   8.270  21.209  0.00  0.00    +0.000 C 
ATOM      3  O   UNL     1       0.083   7.474  21.385  0.00  0.00    +0.000 OA
BRANCH   2   4
ATOM      4  C   UNL     1       1.161   9.583  21.925  0.00  0.00    +0.000 C 
BRANCH   4   5
ATOM      5  N   UNL     1      -0.061  10.397  21.871  0.00  0.00    +0.000 NA
ATOM      6  H   UNL     1      -0.938   9.876  21.818  0.00  0.00    +0.000 HD
BRANCH   5   7
ATOM      7  S   UNL     1      -0.007  11.750  20.878  0.00  0.00    +0.000 S 
ATOM      8  O   UNL     1       1.357  11.930  20.436  0.00  0.00    +0.000 OA
ATOM      9  O   UNL     1      -0.735  12.798  21.562  0.00  0.00    +0.000 OA
BRANCH   7  14
ATOM     10  C   UNL     1      -3.255  10.191  15.987  0.00  0.00    +0.000 C 
ATOM     11  C   UNL     1      -2.471  10.553  17.216  0.00  0.00    +0.000 A 
ATOM     12  C   UNL     1      -2.937  11.538  18.096  0.00  0.00    +0.000 A 
ATOM     13  C   UNL     1      -2.194  11.886  19.225  0.00  0.00    +0.000 A 
ATOM     14  C   UNL     1      -0.979  11.245  19.476  0.00  0.00    +0.000 A 
ATOM     15  C   UNL     1      -0.495  10.270  18.600  0.00  0.00    +0.000 A 
ATOM     16  C   UNL     1      -1.249   9.918  17.478  0.00  0.00    +0.000 A 
ENDBRANCH   7  14
ENDBRANCH   5   7
ENDBRANCH   4   5
ENDBRANCH   2   4
ENDBRANCH   1   2
BRANCH   1  17
ATOM     17  C   UNL     1       2.072   6.841  19.717  0.00  0.00    +0.000 C 
BRANCH  17  18
ATOM     18  C   UNL     1       3.087   6.818  18.555  0.00  0.00    +0.000 C 
ATOM     19  O   UNL     1       3.293   7.869  17.938  0.00  0.00    +0.000 OA
ATOM     20  N   UNL     1       3.753   5.613  18.313  0.00  0.00    +0.000 N 
ATOM     21  C   UNL     1       3.471   4.390  19.075  0.00  0.00    +0.000 C 
ATOM     22  C   UNL     1       4.689   3.547  19.404  0.00  0.00    +0.000 C 
ATOM     23  O   UNL     1       4.712   2.753  20.342  0.00  0.00    +0.000 OA
ATOM     24  N   UNL     1       5.702   3.583  18.492  0.00  0.00    +0.000 N 
ATOM     25  C   UNL     1       5.693   4.434  17.385  0.00  0.00    +0.000 A 
ATOM     26  C   UNL     1       6.692   4.262  16.423  0.00  0.00    +0.000 A 
ATOM     27  C   UNL     1       6.724   5.087  15.304  0.00  0.00    +0.000 A 
ATOM     28  C   UNL     1       5.773   6.094  15.162  0.00  0.00    +0.000 A 
ATOM     29  C   UNL     1       4.792   6.285  16.141  0.00  0.00    +0.000 A 
ATOM     30  C   UNL     1       4.730   5.460  17.269  0.00  0.00    +0.000 A 
ATOM     31  H   UNL     1       6.463   2.933  18.642  0.00  0.00    +0.000 HD
ENDBRANCH  17  18
ENDBRANCH   1  17
TORSDOF 7
ENDMDL
MODEL 6
REMARK VINA RESULT:      -7.8      5.086      8.203
REMARK  Name = 
REMARK  8 active torsions:
REMARK  status: ('A' for Active; 'I' for Inactive)
REMARK    1  A    between atoms: C_1  and  C_2
REMARK    2  A    between atoms: C_5  and  S_6
REMARK    3  A    between atoms: S_6  and  N_9
REMARK    4  A    between atoms: N_9  and  C_10
REMARK    5  A    between atoms: C_10  and  C_11
REMARK    6  A    between atoms: C_11  and  O_13
REMARK    7  A    between atoms: O_13  and  C_14
REMARK    8  A    between atoms: C_14  and  C_15
REMARK                            x       y       z     vdW  Elec       q    Type
REMARK                         _______ _______ _______ _____ _____    ______ ____
ROOT
ATOM      1  O   UNL     1       3.435   6.945  18.177  0.00  0.00    +0.000 OA
ENDROOT
BRANCH   1   2
ATOM      2  C   UNL     1       3.716   5.614  18.230  0.00  0.00    +0.000 C 
ATOM      3  O   UNL     1       3.111   4.743  17.616  0.00  0.00    +0.000 OA
BRANCH   2   4
ATOM      4  C   UNL     1       4.787   5.372  19.258  0.00  0.00    +0.000 C 
BRANCH   4   5
ATOM      5  N   UNL     1       5.802   4.421  18.785  0.00  0.00    +0.000 NA
ATOM      6  H   UNL     1       6.061   3.685  19.446  0.00  0.00    +0.000 HD
BRANCH   5   7
ATOM      7  S   UNL     1       7.100   5.077  17.946  0.00  0.00    +0.000 S 
ATOM      8  O   UNL     1       8.302   4.402  18.381  0.00  0.00    +0.000 OA
ATOM      9  O   UNL     1       6.959   6.515  18.021  0.00  0.00    +0.000 OA
BRANCH   7  14
ATOM     10  C   UNL     1       5.801   3.534  12.217  0.00  0.00    +0.000 C 
ATOM     11  C   UNL     1       6.145   3.887  13.635  0.00  0.00    +0.000 A 
ATOM     12  C   UNL     1       5.465   3.292  14.705  0.00  0.00    +0.000 A 
ATOM     13  C   UNL     1       5.774   3.640  16.021  0.00  0.00    +0.000 A 
ATOM     14  C   UNL     1       6.769   4.588  16.269  0.00  0.00    +0.000 A 
ATOM     15  C   UNL     1       7.446   5.201  15.211  0.00  0.00    +0.000 A 
ATOM     16  C   UNL     1       7.141   4.839  13.897  0.00  0.00    +0.000 A 
ENDBRANCH   7  14
ENDBRANCH   5   7
ENDBRANCH   4   5
ENDBRANCH   2   4
ENDBRANCH   1   2
BRANCH   1  17
ATOM     17  C   UNL     1       2.124   7.264  18.640  0.00  0.00    +0.000 C 
BRANCH  17  18
ATOM     18  C   UNL     1       1.844   8.771  18.463  0.00  0.00    +0.000 C 
ATOM     19  O   UNL     1       2.063   9.280  17.358  0.00  0.00    +0.000 OA
ATOM     20  N   UNL     1       1.304   9.453  19.556  0.00  0.00    +0.000 N 
ATOM     21  C   UNL     1       1.063   8.802  20.850  0.00  0.00    +0.000 C 
ATOM     22  C   UNL     1      -0.214   9.228  21.552  0.00  0.00    +0.000 C 
ATOM     23  O   UNL     1      -0.772   8.528  22.393  0.00  0.00    +0.000 OA
ATOM     24  N   UNL     1      -0.614  10.512  21.332  0.00  0.00    +0.000 N 
ATOM     25  C   UNL     1       0.025  11.358  20.421  0.00  0.00    +0.000 A 
ATOM     26  C   UNL     1      -0.354  12.703  20.405  0.00  0.00    +0.000 A 
ATOM     27  C   UNL     1       0.252  13.582  19.515  0.00  0.00    +0.000 A 
ATOM     28  C   UNL     1       1.217  13.111  18.630  0.00  0.00    +0.000 A 
ATOM     29  C   UNL     1       1.573  11.757  18.625  0.00  0.00    +0.000 A 
ATOM     30  C   UNL     1       0.988  10.856  19.520  0.00  0.00    +0.000 A 
ATOM     31  H   UNL     1      -1.393  10.841  21.888  0.00  0.00    +0.000 HD
ENDBRANCH  17  18
ENDBRANCH   1  17
TORSDOF 7
ENDMDL
MODEL 7
REMARK VINA RESULT:      -7.8      1.493      2.157
REMARK  Name = 
REMARK  8 active torsions:
REMARK  status: ('A' for Active; 'I' for Inactive)
REMARK    1  A    between atoms: C_1  and  C_2
REMARK    2  A    between atoms: C_5  and  S_6
REMARK    3  A    between atoms: S_6  and  N_9
REMARK    4  A    between atoms: N_9  and  C_10
REMARK    5  A    between atoms: C_10  and  C_11
REMARK    6  A    between atoms: C_11  and  O_13
REMARK    7  A    between atoms: O_13  and  C_14
REMARK    8  A    between atoms: C_14  and  C_15
REMARK                            x       y       z     vdW  Elec       q    Type
REMARK                         _______ _______ _______ _____ _____    ______ ____
ROOT
ATOM      1  O   UNL     1       7.862   6.794  18.112  0.00  0.00    +0.000 OA
ENDROOT
BRANCH   1   2
ATOM      2  C   UNL     1       7.769   8.134  17.890  0.00  0.00    +0.000 C 
ATOM      3  O   UNL     1       7.057   8.658  17.041  0.00  0.00    +0.000 OA
BRANCH   2   4
ATOM      4  C   UNL     1       8.773   8.852  18.750  0.00  0.00    +0.000 C 
BRANCH   4   5
ATOM      5  N   UNL     1       8.885  10.274  18.398  0.00  0.00    +0.000 NA
ATOM      6  H   UNL     1       9.033  10.475  17.407  0.00  0.00    +0.000 HD
BRANCH   5   7
ATOM      7  S   UNL     1       9.804  11.224  19.434  0.00  0.00    +0.000 S 
ATOM      8  O   UNL     1      11.173  11.197  18.971  0.00  0.00    +0.000 OA
ATOM      9  O   UNL     1       9.443  10.840  20.781  0.00  0.00    +0.000 OA
BRANCH   7  14
ATOM     10  C   UNL     1       7.409  16.731  18.524  0.00  0.00    +0.000 C 
ATOM     11  C   UNL     1       8.029  15.380  18.728  0.00  0.00    +0.000 A 
ATOM     12  C   UNL     1       7.804  14.345  17.812  0.00  0.00    +0.000 A 
ATOM     13  C   UNL     1       8.365  13.083  18.018  0.00  0.00    +0.000 A 
ATOM     14  C   UNL     1       9.157  12.855  19.145  0.00  0.00    +0.000 A 
ATOM     15  C   UNL     1       9.379  13.875  20.075  0.00  0.00    +0.000 A 
ATOM     16  C   UNL     1       8.825  15.138  19.857  0.00  0.00    +0.000 A 
ENDBRANCH   7  14
ENDBRANCH   5   7
ENDBRANCH   4   5
ENDBRANCH   2   4
ENDBRANCH   1   2
BRANCH   1  17
ATOM     17  C   UNL     1       6.906   6.033  17.376  0.00  0.00    +0.000 C 
BRANCH  17  18
ATOM     18  C   UNL     1       6.012   5.221  18.336  0.00  0.00    +0.000 C 
ATOM     19  O   UNL     1       6.544   4.354  19.038  0.00  0.00    +0.000 OA
ATOM     20  N   UNL     1       4.658   5.561  18.388  0.00  0.00    +0.000 N 
ATOM     21  C   UNL     1       4.073   6.600  17.530  0.00  0.00    +0.000 C 
ATOM     22  C   UNL     1       3.027   7.470  18.204  0.00  0.00    +0.000 C 
ATOM     23  O   UNL     1       2.746   8.597  17.803  0.00  0.00    +0.000 OA
ATOM     24  N   UNL     1       2.284   6.865  19.173  0.00  0.00    +0.000 N 
ATOM     25  C   UNL     1       2.539   5.567  19.623  0.00  0.00    +0.000 A 
ATOM     26  C   UNL     1       1.610   4.984  20.488  0.00  0.00    +0.000 A 
ATOM     27  C   UNL     1       1.822   3.694  20.963  0.00  0.00    +0.000 A 
ATOM     28  C   UNL     1       2.971   3.002  20.590  0.00  0.00    +0.000 A 
ATOM     29  C   UNL     1       3.916   3.600  19.749  0.00  0.00    +0.000 A 
ATOM     30  C   UNL     1       3.719   4.891  19.247  0.00  0.00    +0.000 A 
ATOM     31  H   UNL     1       1.507   7.400  19.541  0.00  0.00    +0.000 HD
ENDBRANCH  17  18
ENDBRANCH   1  17
TORSDOF 7
ENDMDL
MODEL 8
REMARK VINA RESULT:      -7.8      5.002      7.228
REMARK  Name = 
REMARK  8 active torsions:
REMARK  status: ('A' for Active; 'I' for Inactive)
REMARK    1  A    between atoms: C_1  and  C_2
REMARK    2  A    between atoms: C_5  and  S_6
REMARK    3  A    between atoms: S_6  and  N_9
REMARK    4  A    between atoms: N_9  and  C_10
REMARK    5  A    between atoms: C_10  and  C_11
REMARK    6  A    between atoms: C_11  and  O_13
REMARK    7  A    between atoms: O_13  and  C_14
REMARK    8  A    between atoms: C_14  and  C_15
REMARK                            x       y       z     vdW  Elec       q    Type
REMARK                         _______ _______ _______ _____ _____    ______ ____
ROOT
ATOM      1  O   UNL     1       2.514   2.485  20.105  0.00  0.00    +0.000 OA
ENDROOT
BRANCH   1   2
ATOM      2  C   UNL     1       1.937   3.317  21.015  0.00  0.00    +0.000 C 
ATOM      3  O   UNL     1       2.047   3.213  22.231  0.00  0.00    +0.000 OA
BRANCH   2   4
ATOM      4  C   UNL     1       1.041   4.292  20.300  0.00  0.00    +0.000 C 
BRANCH   4   5
ATOM      5  N   UNL     1       1.494   5.680  20.463  0.00  0.00    +0.000 NA
ATOM      6  H   UNL     1       0.799   6.332  20.833  0.00  0.00    +0.000 HD
BRANCH   5   7
ATOM      7  S   UNL     1       2.425   6.307  19.214  0.00  0.00    +0.000 S 
ATOM      8  O   UNL     1       2.023   5.659  17.986  0.00  0.00    +0.000 OA
ATOM      9  O   UNL     1       3.797   6.297  19.673  0.00  0.00    +0.000 OA
BRANCH   7  14
ATOM     10  C   UNL     1       0.777  12.152  19.077  0.00  0.00    +0.000 C 
ATOM     11  C   UNL     1       1.151  10.698  19.101  0.00  0.00    +0.000 A 
ATOM     12  C   UNL     1       0.929   9.922  20.245  0.00  0.00    +0.000 A 
ATOM     13  C   UNL     1       1.298   8.576  20.269  0.00  0.00    +0.000 A 
ATOM     14  C   UNL     1       1.892   8.002  19.143  0.00  0.00    +0.000 A 
ATOM     15  C   UNL     1       2.132   8.768  17.999  0.00  0.00    +0.000 A 
ATOM     16  C   UNL     1       1.749  10.111  17.977  0.00  0.00    +0.000 A 
ENDBRANCH   7  14
ENDBRANCH   5   7
ENDBRANCH   4   5
ENDBRANCH   2   4
ENDBRANCH   1   2
BRANCH   1  17
ATOM     17  C   UNL     1       3.905   2.737  19.912  0.00  0.00    +0.000 C 
BRANCH  17  18
ATOM     18  C   UNL     1       4.187   3.082  18.434  0.00  0.00    +0.000 C 
ATOM     19  O   UNL     1       3.333   2.786  17.592  0.00  0.00    +0.000 OA
ATOM     20  N   UNL     1       5.376   3.761  18.154  0.00  0.00    +0.000 N 
ATOM     21  C   UNL     1       6.360   4.088  19.193  0.00  0.00    +0.000 C 
ATOM     22  C   UNL     1       7.018   5.448  19.043  0.00  0.00    +0.000 C 
ATOM     23  O   UNL     1       7.526   6.045  19.990  0.00  0.00    +0.000 OA
ATOM     24  N   UNL     1       7.177   5.896  17.766  0.00  0.00    +0.000 N 
ATOM     25  C   UNL     1       6.658   5.221  16.658  0.00  0.00    +0.000 A 
ATOM     26  C   UNL     1       7.031   5.670  15.388  0.00  0.00    +0.000 A 
ATOM     27  C   UNL     1       6.539   5.031  14.256  0.00  0.00    +0.000 A 
ATOM     28  C   UNL     1       5.660   3.961  14.396  0.00  0.00    +0.000 A 
ATOM     29  C   UNL     1       5.263   3.532  15.667  0.00  0.00    +0.000 A 
ATOM     30  C   UNL     1       5.755   4.150  16.822  0.00  0.00    +0.000 A 
ATOM     31  H   UNL     1       7.721   6.742  17.652  0.00  0.00    +0.000 HD
ENDBRANCH  17  18
ENDBRANCH   1  17
TORSDOF 7
ENDMDL
MODEL 9
REMARK VINA RESULT:      -7.8      5.658      8.694
REMARK  Name = 
REMARK  8 active torsions:
REMARK  status: ('A' for Active; 'I' for Inactive)
REMARK    1  A    between atoms: C_1  and  C_2
REMARK    2  A    between atoms: C_5  and  S_6
REMARK    3  A    between atoms: S_6  and  N_9
REMARK    4  A    between atoms: N_9  and  C_10
REMARK    5  A    between atoms: C_10  and  C_11
REMARK    6  A    between atoms: C_11  and  O_13
REMARK    7  A    between atoms: O_13  and  C_14
REMARK    8  A    between atoms: C_14  and  C_15
REMARK                            x       y       z     vdW  Elec       q    Type
REMARK                         _______ _______ _______ _____ _____    ______ ____
ROOT
ATOM      1  O   UNL     1       1.515   7.838  18.120  0.00  0.00    +0.000 OA
ENDROOT
BRANCH   1   2
ATOM      2  C   UNL     1       2.772   7.342  18.290  0.00  0.00    +0.000 C 
ATOM      3  O   UNL     1       3.717   7.551  17.539  0.00  0.00    +0.000 OA
BRANCH   2   4
ATOM      4  C   UNL     1       2.780   6.396  19.460  0.00  0.00    +0.000 C 
BRANCH   4   5
ATOM      5  N   UNL     1       4.063   5.694  19.593  0.00  0.00    +0.000 NA
ATOM      6  H   UNL     1       4.897   6.258  19.414  0.00  0.00    +0.000 HD
BRANCH   5   7
ATOM      7  S   UNL     1       4.132   4.145  18.948  0.00  0.00    +0.000 S 
ATOM      8  O   UNL     1       2.799   3.773  18.531  0.00  0.00    +0.000 OA
ATOM      9  O   UNL     1       4.896   3.341  19.878  0.00  0.00    +0.000 OA
BRANCH   7  14
ATOM     10  C   UNL     1       7.403   5.088  13.918  0.00  0.00    +0.000 C 
ATOM     11  C   UNL     1       6.609   4.822  15.164  0.00  0.00    +0.000 A 
ATOM     12  C   UNL     1       5.371   4.170  15.097  0.00  0.00    +0.000 A 
ATOM     13  C   UNL     1       4.627   3.944  16.257  0.00  0.00    +0.000 A 
ATOM     14  C   UNL     1       5.124   4.373  17.490  0.00  0.00    +0.000 A 
ATOM     15  C   UNL     1       6.351   5.036  17.570  0.00  0.00    +0.000 A 
ATOM     16  C   UNL     1       7.096   5.247  16.408  0.00  0.00    +0.000 A 
ENDBRANCH   7  14
ENDBRANCH   5   7
ENDBRANCH   4   5
ENDBRANCH   2   4
ENDBRANCH   1   2
BRANCH   1  17
ATOM     17  C   UNL     1       1.497   9.219  17.761  0.00  0.00    +0.000 C 
BRANCH  17  18
ATOM     18  C   UNL     1       0.810  10.051  18.865  0.00  0.00    +0.000 C 
ATOM     19  O   UNL     1       1.482  10.387  19.846  0.00  0.00    +0.000 OA
ATOM     20  N   UNL     1      -0.521  10.419  18.652  0.00  0.00    +0.000 N 
ATOM     21  C   UNL     1      -1.276   9.992  17.467  0.00  0.00    +0.000 C 
ATOM     22  C   UNL     1      -2.206  11.043  16.889  0.00  0.00    +0.000 C 
ATOM     23  O   UNL     1      -2.583  11.023  15.720  0.00  0.00    +0.000 OA
ATOM     24  N   UNL     1      -2.747  11.917  17.785  0.00  0.00    +0.000 N 
ATOM     25  C   UNL     1      -2.383  11.940  19.133  0.00  0.00    +0.000 A 
ATOM     26  C   UNL     1      -3.127  12.751  19.995  0.00  0.00    +0.000 A 
ATOM     27  C   UNL     1      -2.800  12.808  21.345  0.00  0.00    +0.000 A 
ATOM     28  C   UNL     1      -1.719  12.074  21.825  0.00  0.00    +0.000 A 
ATOM     29  C   UNL     1      -0.956  11.286  20.955  0.00  0.00    +0.000 A 
ATOM     30  C   UNL     1      -1.273  11.202  19.595  0.00  0.00    +0.000 A 
ATOM     31  H   UNL     1      -3.459  12.541  17.427  0.00  0.00    +0.000 HD
ENDBRANCH  17  18
ENDBRANCH   1  17
TORSDOF 7
ENDMDL
