MODEL 1
REMARK VINA RESULT:      -8.0      0.000      0.000
REMARK  Name = 
REMARK  2 active torsions:
REMARK  status: ('A' for Active; 'I' for Inactive)
REMARK    1  A    between atoms: C_1  and  C_2
REMARK    2  A    between atoms: C_15  and  C_17
REMARK                            x       y       z     vdW  Elec       q    Type
REMARK                         _______ _______ _______ _____ _____    ______ ____
ROOT
ATOM      1  C   UNL     1       7.498   7.385  17.512  0.00  0.00    +0.000 C 
ATOM      2  C   UNL     1       6.952   6.148  16.859  0.00  0.00    +0.000 A 
ATOM      3  N   UNL     1       7.391   5.903  15.604  0.00  0.00    +0.000 NA
ATOM      4  C   UNL     1       6.941   4.815  14.959  0.00  0.00    +0.000 A 
ATOM      5  N   UNL     1       7.369   4.574  13.680  0.00  0.00    +0.000 N 
ATOM      6  C   UNL     1       8.147   5.552  12.944  0.00  0.00    +0.000 C 
ATOM      7  C   UNL     1       7.545   5.512  11.544  0.00  0.00    +0.000 C 
ATOM      8  C   UNL     1       7.072   4.073  11.400  0.00  0.00    +0.000 C 
ATOM      9  C   UNL     1       6.614   3.690  12.810  0.00  0.00    +0.000 C 
ATOM     10  N   UNL     1       6.100   3.942  15.531  0.00  0.00    +0.000 NA
ATOM     11  C   UNL     1       5.694   4.184  16.796  0.00  0.00    +0.000 A 
ATOM     12  C   UNL     1       6.067   5.310  17.514  0.00  0.00    +0.000 A 
ATOM     13  C   UNL     1       5.596   5.552  18.922  0.00  0.00    +0.000 C 
ATOM     14  N   UNL     1       4.543   4.632  19.335  0.00  0.00    +0.000 N 
ATOM     15  C   UNL     1       3.346   5.155  19.852  0.00  0.00    +0.000 C 
ATOM     16  O   UNL     1       3.171   6.377  19.899  0.00  0.00    +0.000 OA
ATOM     17  C   UNL     1       4.765   3.246  18.919  0.00  0.00    +0.000 C 
ATOM     18  C   UNL     1       4.767   3.161  17.398  0.00  0.00    +0.000 C 
ENDROOT
BRANCH  15  19
ATOM     19  C   UNL     1       2.304   4.246  20.301  0.00  0.00    +0.000 A 
ATOM     20  C   UNL     1       1.143   3.832  19.668  0.00  0.00    +0.000 A 
ATOM     21  C   UNL     1       0.493   2.934  20.549  0.00  0.00    +0.000 A 
ATOM     22  C   UNL     1       1.266   2.886  21.683  0.00  0.00    +0.000 A 
ATOM     23  O   UNL     1       2.343   3.700  21.555  0.00  0.00    +0.000 OA
ENDBRANCH  15  19
TORSDOF 1
ENDMDL
MODEL 2
REMARK VINA RESULT:      -7.5      4.684      6.432
REMARK  Name = 
REMARK  2 active torsions:
REMARK  status: ('A' for Active; 'I' for Inactive)
REMARK    1  A    between atoms: C_1  and  C_2
REMARK    2  A    between atoms: C_15  and  C_17
REMARK                            x       y       z     vdW  Elec       q    Type
REMARK                         _______ _______ _______ _____ _____    ______ ____
ROOT
ATOM      1  C   UNL     1       2.204   4.920  20.948  0.00  0.00    +0.000 C 
ATOM      2  C   UNL     1       2.546   5.812  19.789  0.00  0.00    +0.000 A 
ATOM      3  N   UNL     1       3.354   5.271  18.849  0.00  0.00    +0.000 NA
ATOM      4  C   UNL     1       3.703   6.014  17.787  0.00  0.00    +0.000 A 
ATOM      5  N   UNL     1       4.537   5.475  16.842  0.00  0.00    +0.000 N 
ATOM      6  C   UNL     1       5.191   4.198  17.049  0.00  0.00    +0.000 C 
ATOM      7  C   UNL     1       6.607   4.431  16.531  0.00  0.00    +0.000 C 
ATOM      8  C   UNL     1       6.418   5.462  15.429  0.00  0.00    +0.000 C 
ATOM      9  C   UNL     1       5.269   6.339  15.934  0.00  0.00    +0.000 C 
ATOM     10  N   UNL     1       3.248   7.262  17.606  0.00  0.00    +0.000 NA
ATOM     11  C   UNL     1       2.418   7.778  18.539  0.00  0.00    +0.000 A 
ATOM     12  C   UNL     1       2.051   7.100  19.691  0.00  0.00    +0.000 A 
ATOM     13  C   UNL     1       1.126   7.704  20.712  0.00  0.00    +0.000 C 
ATOM     14  N   UNL     1       0.874   9.122  20.483  0.00  0.00    +0.000 N 
ATOM     15  C   UNL     1       1.091  10.030  21.532  0.00  0.00    +0.000 C 
ATOM     16  O   UNL     1       1.544   9.635  22.611  0.00  0.00    +0.000 OA
ATOM     17  C   UNL     1       0.658   9.470  19.077  0.00  0.00    +0.000 C 
ATOM     18  C   UNL     1       1.921   9.175  18.277  0.00  0.00    +0.000 C 
ENDROOT
BRANCH  15  19
ATOM     19  C   UNL     1       0.809  11.441  21.326  0.00  0.00    +0.000 A 
ATOM     20  C   UNL     1      -0.397  12.125  21.339  0.00  0.00    +0.000 A 
ATOM     21  C   UNL     1      -0.099  13.486  21.090  0.00  0.00    +0.000 A 
ATOM     22  C   UNL     1       1.259  13.550  20.893  0.00  0.00    +0.000 A 
ATOM     23  O   UNL     1       1.810  12.316  21.001  0.00  0.00    +0.000 OA
ENDBRANCH  15  19
TORSDOF 1
ENDMDL
MODEL 3
REMARK VINA RESULT:      -6.8      6.046      8.804
REMARK  Name = 
REMARK  2 active torsions:
REMARK  status: ('A' for Active; 'I' for Inactive)
REMARK    1  A    between atoms: C_1  and  C_2
REMARK    2  A    between atoms: C_15  and  C_17
REMARK                            x       y       z     vdW  Elec       q    Type
REMARK                         _______ _______ _______ _____ _____    ______ ____
ROOT
ATOM      1  C   UNL     1      -0.212   9.825  22.130  0.00  0.00    +0.000 C 
ATOM      2  C   UNL     1      -0.281   9.835  20.630  0.00  0.00    +0.000 A 
ATOM      3  N   UNL     1      -1.275  10.577  20.092  0.00  0.00    +0.000 NA
ATOM      4  C   UNL     1      -1.399  10.628  18.757  0.00  0.00    +0.000 A 
ATOM      5  N   UNL     1      -2.417  11.364  18.209  0.00  0.00    +0.000 N 
ATOM      6  C   UNL     1      -3.465  11.936  19.031  0.00  0.00    +0.000 C 
ATOM      7  C   UNL     1      -4.735  11.677  18.226  0.00  0.00    +0.000 C 
ATOM      8  C   UNL     1      -4.256  11.713  16.782  0.00  0.00    +0.000 C 
ATOM      9  C   UNL     1      -2.847  11.115  16.845  0.00  0.00    +0.000 C 
ATOM     10  N   UNL     1      -0.546   9.999  17.935  0.00  0.00    +0.000 NA
ATOM     11  C   UNL     1       0.461   9.287  18.487  0.00  0.00    +0.000 A 
ATOM     12  C   UNL     1       0.628   9.138  19.854  0.00  0.00    +0.000 A 
ATOM     13  C   UNL     1       1.759   8.335  20.438  0.00  0.00    +0.000 C 
ATOM     14  N   UNL     1       2.479   7.556  19.437  0.00  0.00    +0.000 N 
ATOM     15  C   UNL     1       2.649   6.176  19.641  0.00  0.00    +0.000 C 
ATOM     16  O   UNL     1       2.144   5.628  20.625  0.00  0.00    +0.000 OA
ATOM     17  C   UNL     1       2.728   8.276  18.187  0.00  0.00    +0.000 C 
ATOM     18  C   UNL     1       1.401   8.618  17.519  0.00  0.00    +0.000 C 
ENDROOT
BRANCH  15  19
ATOM     19  C   UNL     1       3.396   5.398  18.667  0.00  0.00    +0.000 A 
ATOM     20  C   UNL     1       2.951   4.568  17.650  0.00  0.00    +0.000 A 
ATOM     21  C   UNL     1       4.101   4.066  16.996  0.00  0.00    +0.000 A 
ATOM     22  C   UNL     1       5.180   4.578  17.675  0.00  0.00    +0.000 A 
ATOM     23  O   UNL     1       4.764   5.355  18.704  0.00  0.00    +0.000 OA
ENDBRANCH  15  19
TORSDOF 1
ENDMDL
MODEL 4
REMARK VINA RESULT:      -6.5      3.947      7.691
REMARK  Name = 
REMARK  2 active torsions:
REMARK  status: ('A' for Active; 'I' for Inactive)
REMARK    1  A    between atoms: C_1  and  C_2
REMARK    2  A    between atoms: C_15  and  C_17
REMARK                            x       y       z     vdW  Elec       q    Type
REMARK                         _______ _______ _______ _____ _____    ______ ____
ROOT
ATOM      1  C   UNL     1       2.197   5.196  20.809  0.00  0.00    +0.000 C 
ATOM      2  C   UNL     1       2.403   6.337  19.855  0.00  0.00    +0.000 A 
ATOM      3  N   UNL     1       1.645   7.435  20.079  0.00  0.00    +0.000 NA
ATOM      4  C   UNL     1       1.774   8.492  19.262  0.00  0.00    +0.000 A 
ATOM      5  N   UNL     1       0.994   9.598  19.475  0.00  0.00    +0.000 N 
ATOM      6  C   UNL     1      -0.087   9.588  20.440  0.00  0.00    +0.000 C 
ATOM      7  C   UNL     1      -1.215  10.326  19.725  0.00  0.00    +0.000 C 
ATOM      8  C   UNL     1      -0.483  11.312  18.827  0.00  0.00    +0.000 C 
ATOM      9  C   UNL     1       0.785  10.562  18.409  0.00  0.00    +0.000 C 
ATOM     10  N   UNL     1       2.657   8.512  18.254  0.00  0.00    +0.000 NA
ATOM     11  C   UNL     1       3.429   7.420  18.061  0.00  0.00    +0.000 A 
ATOM     12  C   UNL     1       3.322   6.268  18.824  0.00  0.00    +0.000 A 
ATOM     13  C   UNL     1       4.195   5.067  18.582  0.00  0.00    +0.000 C 
ATOM     14  N   UNL     1       4.959   5.159  17.343  0.00  0.00    +0.000 N 
ATOM     15  C   UNL     1       4.881   4.106  16.415  0.00  0.00    +0.000 C 
ATOM     16  O   UNL     1       4.129   3.149  16.625  0.00  0.00    +0.000 OA
ATOM     17  C   UNL     1       5.535   6.481  17.095  0.00  0.00    +0.000 C 
ATOM     18  C   UNL     1       4.417   7.504  16.928  0.00  0.00    +0.000 C 
ENDROOT
BRANCH  15  19
ATOM     19  C   UNL     1       5.666   4.172  15.194  0.00  0.00    +0.000 A 
ATOM     20  C   UNL     1       5.328   3.837  13.893  0.00  0.00    +0.000 A 
ATOM     21  C   UNL     1       6.465   4.104  13.091  0.00  0.00    +0.000 A 
ATOM     22  C   UNL     1       7.442   4.541  13.951  0.00  0.00    +0.000 A 
ATOM     23  O   UNL     1       6.980   4.553  15.225  0.00  0.00    +0.000 OA
ENDBRANCH  15  19
TORSDOF 1
ENDMDL
MODEL 5
REMARK VINA RESULT:      -6.4      7.841     10.666
REMARK  Name = 
REMARK  2 active torsions:
REMARK  status: ('A' for Active; 'I' for Inactive)
REMARK    1  A    between atoms: C_1  and  C_2
REMARK    2  A    between atoms: C_15  and  C_17
REMARK                            x       y       z     vdW  Elec       q    Type
REMARK                         _______ _______ _______ _____ _____    ______ ____
ROOT
ATOM      1  C   UNL     1      -1.318  12.606  22.107  0.00  0.00    +0.000 C 
ATOM      2  C   UNL     1      -1.743  12.028  20.788  0.00  0.00    +0.000 A 
ATOM      3  N   UNL     1      -2.958  12.418  20.339  0.00  0.00    +0.000 NA
ATOM      4  C   UNL     1      -3.403  11.936  19.168  0.00  0.00    +0.000 A 
ATOM      5  N   UNL     1      -4.641  12.314  18.719  0.00  0.00    +0.000 N 
ATOM      6  C   UNL     1      -5.552  13.069  19.557  0.00  0.00    +0.000 C 
ATOM      7  C   UNL     1      -6.905  12.414  19.300  0.00  0.00    +0.000 C 
ATOM      8  C   UNL     1      -6.799  11.927  17.862  0.00  0.00    +0.000 C 
ATOM      9  C   UNL     1      -5.329  11.521  17.717  0.00  0.00    +0.000 C 
ATOM     10  N   UNL     1      -2.667  11.113  18.407  0.00  0.00    +0.000 NA
ATOM     11  C   UNL     1      -1.443  10.757  18.854  0.00  0.00    +0.000 A 
ATOM     12  C   UNL     1      -0.930  11.164  20.076  0.00  0.00    +0.000 A 
ATOM     13  C   UNL     1       0.437  10.748  20.546  0.00  0.00    +0.000 C 
ATOM     14  N   UNL     1       1.031   9.706  19.717  0.00  0.00    +0.000 N 
ATOM     15  C   UNL     1       1.501   8.533  20.331  0.00  0.00    +0.000 C 
ATOM     16  O   UNL     1       1.357   8.368  21.547  0.00  0.00    +0.000 OA
ATOM     17  C   UNL     1       0.836   9.904  18.280  0.00  0.00    +0.000 C 
ATOM     18  C   UNL     1      -0.652   9.847  17.953  0.00  0.00    +0.000 C 
ENDROOT
BRANCH  15  19
ATOM     19  C   UNL     1       2.127   7.504  19.519  0.00  0.00    +0.000 A 
ATOM     20  C   UNL     1       2.789   7.599  18.305  0.00  0.00    +0.000 A 
ATOM     21  C   UNL     1       3.211   6.292  17.963  0.00  0.00    +0.000 A 
ATOM     22  C   UNL     1       2.746   5.468  18.959  0.00  0.00    +0.000 A 
ATOM     23  O   UNL     1       2.064   6.186  19.885  0.00  0.00    +0.000 OA
ENDBRANCH  15  19
TORSDOF 1
ENDMDL
MODEL 6
REMARK VINA RESULT:      -6.3      6.938      9.702
REMARK  Name = 
REMARK  2 active torsions:
REMARK  status: ('A' for Active; 'I' for Inactive)
REMARK    1  A    between atoms: C_1  and  C_2
REMARK    2  A    between atoms: C_15  and  C_17
REMARK                            x       y       z     vdW  Elec       q    Type
REMARK                         _______ _______ _______ _____ _____    ______ ____
ROOT
ATOM      1  C   UNL     1      -0.422  11.332  22.088  0.00  0.00    +0.000 C 
ATOM      2  C   UNL     1      -0.796  11.031  20.666  0.00  0.00    +0.000 A 
ATOM      3  N   UNL     1      -1.917  11.636  20.212  0.00  0.00    +0.000 NA
ATOM      4  C   UNL     1      -2.312  11.408  18.950  0.00  0.00    +0.000 A 
ATOM      5  N   UNL     1      -3.458  12.005  18.492  0.00  0.00    +0.000 N 
ATOM      6  C   UNL     1      -4.345  12.725  19.384  0.00  0.00    +0.000 C 
ATOM      7  C   UNL     1      -5.737  12.294  18.933  0.00  0.00    +0.000 C 
ATOM      8  C   UNL     1      -5.564  12.033  17.443  0.00  0.00    +0.000 C 
ATOM      9  C   UNL     1      -4.143  11.474  17.327  0.00  0.00    +0.000 C 
ATOM     10  N   UNL     1      -1.613  10.631  18.110  0.00  0.00    +0.000 NA
ATOM     11  C   UNL     1      -0.479  10.057  18.569  0.00  0.00    +0.000 A 
ATOM     12  C   UNL     1      -0.029  10.197  19.873  0.00  0.00    +0.000 A 
ATOM     13  C   UNL     1       1.238   9.542  20.354  0.00  0.00    +0.000 C 
ATOM     14  N   UNL     1       1.778   8.580  19.401  0.00  0.00    +0.000 N 
ATOM     15  C   UNL     1       2.059   7.274  19.838  0.00  0.00    +0.000 C 
ATOM     16  O   UNL     1       1.795   6.937  20.996  0.00  0.00    +0.000 OA
ATOM     17  C   UNL     1       1.729   9.028  18.008  0.00  0.00    +0.000 C 
ATOM     18  C   UNL     1       0.278   9.211  17.580  0.00  0.00    +0.000 C 
ENDROOT
BRANCH  15  19
ATOM     19  C   UNL     1       2.632   6.318  18.905  0.00  0.00    +0.000 A 
ATOM     20  C   UNL     1       2.085   5.174  18.345  0.00  0.00    +0.000 A 
ATOM     21  C   UNL     1       3.073   4.620  17.496  0.00  0.00    +0.000 A 
ATOM     22  C   UNL     1       4.178   5.425  17.621  0.00  0.00    +0.000 A 
ATOM     23  O   UNL     1       3.932   6.433  18.493  0.00  0.00    +0.000 OA
ENDBRANCH  15  19
TORSDOF 1
ENDMDL
MODEL 7
REMARK VINA RESULT:      -6.3      6.970      9.084
REMARK  Name = 
REMARK  2 active torsions:
REMARK  status: ('A' for Active; 'I' for Inactive)
REMARK    1  A    between atoms: C_1  and  C_2
REMARK    2  A    between atoms: C_15  and  C_17
REMARK                            x       y       z     vdW  Elec       q    Type
REMARK                         _______ _______ _______ _____ _____    ______ ____
ROOT
ATOM      1  C   UNL     1       1.840  10.463  17.966  0.00  0.00    +0.000 C 
ATOM      2  C   UNL     1       1.458   9.584  19.121  0.00  0.00    +0.000 A 
ATOM      3  N   UNL     1       1.934   8.319  19.079  0.00  0.00    +0.000 NA
ATOM      4  C   UNL     1       1.628   7.476  20.077  0.00  0.00    +0.000 A 
ATOM      5  N   UNL     1       2.093   6.187  20.029  0.00  0.00    +0.000 N 
ATOM      6  C   UNL     1       2.748   5.663  18.847  0.00  0.00    +0.000 C 
ATOM      7  C   UNL     1       2.166   4.260  18.704  0.00  0.00    +0.000 C 
ATOM      8  C   UNL     1       1.878   3.846  20.140  0.00  0.00    +0.000 C 
ATOM      9  C   UNL     1       1.460   5.151  20.825  0.00  0.00    +0.000 C 
ATOM     10  N   UNL     1       0.898   7.856  21.136  0.00  0.00    +0.000 NA
ATOM     11  C   UNL     1       0.455   9.131  21.178  0.00  0.00    +0.000 A 
ATOM     12  C   UNL     1       0.680  10.050  20.165  0.00  0.00    +0.000 A 
ATOM     13  C   UNL     1       0.171  11.464  20.242  0.00  0.00    +0.000 C 
ATOM     14  N   UNL     1      -0.762  11.673  21.342  0.00  0.00    +0.000 N 
ATOM     15  C   UNL     1      -2.019  12.240  21.070  0.00  0.00    +0.000 C 
ATOM     16  O   UNL     1      -2.345  12.499  19.908  0.00  0.00    +0.000 OA
ATOM     17  C   UNL     1      -0.366  11.023  22.592  0.00  0.00    +0.000 C 
ATOM     18  C   UNL     1      -0.342   9.511  22.398  0.00  0.00    +0.000 C 
ENDROOT
BRANCH  15  19
ATOM     19  C   UNL     1      -2.943  12.486  22.165  0.00  0.00    +0.000 A 
ATOM     20  C   UNL     1      -2.701  12.892  23.468  0.00  0.00    +0.000 A 
ATOM     21  C   UNL     1      -3.960  12.987  24.109  0.00  0.00    +0.000 A 
ATOM     22  C   UNL     1      -4.891  12.592  23.180  0.00  0.00    +0.000 A 
ATOM     23  O   UNL     1      -4.284  12.257  22.016  0.00  0.00    +0.000 OA
ENDBRANCH  15  19
TORSDOF 1
ENDMDL
MODEL 8
REMARK VINA RESULT:      -6.3      5.884      8.281
REMARK  Name = 
REMARK  2 active torsions:
REMARK  status: ('A' for Active; 'I' for Inactive)
REMARK    1  A    between atoms: C_1  and  C_2
REMARK    2  A    between atoms: C_15  and  C_17
REMARK                            x       y       z     vdW  Elec       q    Type
REMARK                         _______ _______ _______ _____ _____    ______ ____
ROOT
ATOM      1  C   UNL     1       2.549   8.654  17.466  0.00  0.00    +0.000 C 
ATOM      2  C   UNL     1       2.133   8.026  18.765  0.00  0.00    +0.000 A 
ATOM      3  N   UNL     1       2.460   6.723  18.919  0.00  0.00    +0.000 NA
ATOM      4  C   UNL     1       2.115   6.096  20.055  0.00  0.00    +0.000 A 
ATOM      5  N   UNL     1       2.428   4.771  20.207  0.00  0.00    +0.000 N 
ATOM      6  C   UNL     1       2.954   3.986  19.107  0.00  0.00    +0.000 C 
ATOM      7  C   UNL     1       2.210   2.660  19.223  0.00  0.00    +0.000 C 
ATOM      8  C   UNL     1       1.956   2.522  20.716  0.00  0.00    +0.000 C 
ATOM      9  C   UNL     1       1.726   3.961  21.187  0.00  0.00    +0.000 C 
ATOM     10  N   UNL     1       1.492   6.729  21.060  0.00  0.00    +0.000 NA
ATOM     11  C   UNL     1       1.200   8.038  20.903  0.00  0.00    +0.000 A 
ATOM     12  C   UNL     1       1.471   8.746  19.743  0.00  0.00    +0.000 A 
ATOM     13  C   UNL     1       1.131  10.204  19.599  0.00  0.00    +0.000 C 
ATOM     14  N   UNL     1       0.289  10.701  20.681  0.00  0.00    +0.000 N 
ATOM     15  C   UNL     1      -0.909  11.364  20.363  0.00  0.00    +0.000 C 
ATOM     16  O   UNL     1      -1.266  11.468  19.185  0.00  0.00    +0.000 OA
ATOM     17  C   UNL     1       0.677  10.219  22.008  0.00  0.00    +0.000 C 
ATOM     18  C   UNL     1       0.519   8.705  22.069  0.00  0.00    +0.000 C 
ENDROOT
BRANCH  15  19
ATOM     19  C   UNL     1      -1.737  11.894  21.432  0.00  0.00    +0.000 A 
ATOM     20  C   UNL     1      -1.777  11.572  22.780  0.00  0.00    +0.000 A 
ATOM     21  C   UNL     1      -2.761  12.400  23.372  0.00  0.00    +0.000 A 
ATOM     22  C   UNL     1      -3.298  13.144  22.350  0.00  0.00    +0.000 A 
ATOM     23  O   UNL     1      -2.709  12.823  21.172  0.00  0.00    +0.000 OA
ENDBRANCH  15  19
TORSDOF 1
ENDMDL
MODEL 9
REMARK VINA RESULT:      -6.3      7.303      9.712
REMARK  Name = 
REMARK  2 active torsions:
REMARK  status: ('A' for Active; 'I' for Inactive)
REMARK    1  A    between atoms: C_1  and  C_2
REMARK    2  A    between atoms: C_15  and  C_17
REMARK                            x       y       z     vdW  Elec       q    Type
REMARK                         _______ _______ _______ _____ _____    ______ ____
ROOT
ATOM      1  C   UNL     1       0.250   9.256  23.074  0.00  0.00    +0.000 C 
ATOM      2  C   UNL     1       0.681   9.303  21.637  0.00  0.00    +0.000 A 
ATOM      3  N   UNL     1       1.188   8.153  21.137  0.00  0.00    +0.000 NA
ATOM      4  C   UNL     1       1.597   8.125  19.859  0.00  0.00    +0.000 A 
ATOM      5  N   UNL     1       2.128   6.967  19.354  0.00  0.00    +0.000 N 
ATOM      6  C   UNL     1       2.427   5.835  20.210  0.00  0.00    +0.000 C 
ATOM      7  C   UNL     1       3.778   5.345  19.700  0.00  0.00    +0.000 C 
ATOM      8  C   UNL     1       3.748   5.692  18.219  0.00  0.00    +0.000 C 
ATOM      9  C   UNL     1       2.954   7.000  18.161  0.00  0.00    +0.000 C 
ATOM     10  N   UNL     1       1.484   9.187  19.048  0.00  0.00    +0.000 NA
ATOM     11  C   UNL     1       0.947  10.319  19.553  0.00  0.00    +0.000 A 
ATOM     12  C   UNL     1       0.550  10.450  20.875  0.00  0.00    +0.000 A 
ATOM     13  C   UNL     1      -0.042  11.726  21.407  0.00  0.00    +0.000 C 
ATOM     14  N   UNL     1       0.080  12.842  20.476  0.00  0.00    +0.000 N 
ATOM     15  C   UNL     1       0.664  14.040  20.921  0.00  0.00    +0.000 C 
ATOM     16  O   UNL     1       1.119  14.120  22.067  0.00  0.00    +0.000 OA
ATOM     17  C   UNL     1      -0.201  12.489  19.083  0.00  0.00    +0.000 C 
ATOM     18  C   UNL     1       0.825  11.474  18.595  0.00  0.00    +0.000 C 
ENDROOT
BRANCH  15  19
ATOM     19  C   UNL     1       0.758  15.169  20.012  0.00  0.00    +0.000 A 
ATOM     20  C   UNL     1      -0.193  16.111  19.652  0.00  0.00    +0.000 A 
ATOM     21  C   UNL     1       0.430  16.997  18.740  0.00  0.00    +0.000 A 
ATOM     22  C   UNL     1       1.706  16.522  18.559  0.00  0.00    +0.000 A 
ATOM     23  O   UNL     1       1.902  15.402  19.297  0.00  0.00    +0.000 OA
ENDBRANCH  15  19
TORSDOF 1
ENDMDL
