MODEL 1
REMARK VINA RESULT:      -7.3      0.000      0.000
REMARK  Name = 
REMARK  6 active torsions:
REMARK  status: ('A' for Active; 'I' for Inactive)
REMARK    1  A    between atoms: C_1  and  O_2
REMARK    2  A    between atoms: O_2  and  C_3
REMARK    3  A    between atoms: C_6  and  C_7
REMARK    4  A    between atoms: C_14  and  N_15
REMARK    5  A    between atoms: C_17  and  C_18
REMARK    6  A    between atoms: C_20  and  C_21
REMARK                            x       y       z     vdW  Elec       q    Type
REMARK                         _______ _______ _______ _____ _____    ______ ____
ROOT
ATOM      1  C   UNL     1       5.743   4.871  16.391  0.00  0.00    +0.000 A 
ATOM      2  C   UNL     1       5.732   6.247  16.250  0.00  0.00    +0.000 A 
ATOM      3  C   UNL     1       4.778   7.016  16.924  0.00  0.00    +0.000 A 
ATOM      4  C   UNL     1       3.789   6.451  17.774  0.00  0.00    +0.000 A 
ATOM      5  C   UNL     1       3.801   5.028  17.893  0.00  0.00    +0.000 A 
ATOM      6  C   UNL     1       4.795   4.282  17.222  0.00  0.00    +0.000 A 
ENDROOT
BRANCH   4   7
ATOM      7  C   UNL     1       2.838   7.401  18.417  0.00  0.00    +0.000 A 
ATOM      8  C   UNL     1       2.363   7.311  19.713  0.00  0.00    +0.000 A 
ATOM      9  N   UNL     1       1.505   8.186  20.300  0.00  0.00    +0.000 NA
ATOM     10  C   UNL     1       1.092   9.205  19.547  0.00  0.00    +0.000 A 
ATOM     11  N   UNL     1       0.239  10.123  20.125  0.00  0.00    +0.000 N 
ATOM     12  N   UNL     1       1.404   9.369  18.262  0.00  0.00    +0.000 NA
ATOM     13  C   UNL     1       2.279   8.476  17.740  0.00  0.00    +0.000 A 
ATOM     14  H   UNL     1      -0.192   9.709  20.936  0.00  0.00    +0.000 HD
ATOM     15  H   UNL     1      -0.363  10.519  19.416  0.00  0.00    +0.000 HD
ENDBRANCH   4   7
BRANCH   5  16
ATOM     16  N   UNL     1       2.875   4.292  18.708  0.00  0.00    +0.000 N 
ATOM     17  N   UNL     1       3.255   3.877  19.938  0.00  0.00    +0.000 NA
ATOM     18  C   UNL     1       2.159   3.400  20.524  0.00  0.00    +0.000 A 
ATOM     19  C   UNL     1       2.176   2.998  21.950  0.00  0.00    +0.000 C 
ATOM     20  C   UNL     1       1.078   3.369  19.635  0.00  0.00    +0.000 A 
ATOM     21  C   UNL     1       1.552   3.902  18.450  0.00  0.00    +0.000 A 
ATOM     22  C   UNL     1       0.753   4.129  17.215  0.00  0.00    +0.000 C 
ENDBRANCH   5  16
BRANCH   1  24
ATOM     23  C   UNL     1       6.659   4.258  14.287  0.00  0.00    +0.000 C 
ATOM     24  O   UNL     1       6.724   4.211  15.709  0.00  0.00    +0.000 OA
ENDBRANCH   1  24
TORSDOF 3
ENDMDL
MODEL 2
REMARK VINA RESULT:      -7.3      0.225      1.015
REMARK  Name = 
REMARK  6 active torsions:
REMARK  status: ('A' for Active; 'I' for Inactive)
REMARK    1  A    between atoms: C_1  and  O_2
REMARK    2  A    between atoms: O_2  and  C_3
REMARK    3  A    between atoms: C_6  and  C_7
REMARK    4  A    between atoms: C_14  and  N_15
REMARK    5  A    between atoms: C_17  and  C_18
REMARK    6  A    between atoms: C_20  and  C_21
REMARK                            x       y       z     vdW  Elec       q    Type
REMARK                         _______ _______ _______ _____ _____    ______ ____
ROOT
ATOM      1  C   UNL     1       5.739   4.825  16.263  0.00  0.00    +0.000 A 
ATOM      2  C   UNL     1       5.716   6.204  16.155  0.00  0.00    +0.000 A 
ATOM      3  C   UNL     1       4.775   6.950  16.870  0.00  0.00    +0.000 A 
ATOM      4  C   UNL     1       3.811   6.360  17.731  0.00  0.00    +0.000 A 
ATOM      5  C   UNL     1       3.834   4.935  17.816  0.00  0.00    +0.000 A 
ATOM      6  C   UNL     1       4.815   4.211  17.104  0.00  0.00    +0.000 A 
ENDROOT
BRANCH   4   7
ATOM      7  C   UNL     1       2.871   7.289  18.419  0.00  0.00    +0.000 A 
ATOM      8  C   UNL     1       2.314   8.428  17.864  0.00  0.00    +0.000 A 
ATOM      9  N   UNL     1       1.448   9.266  18.489  0.00  0.00    +0.000 NA
ATOM     10  C   UNL     1       1.124   8.954  19.744  0.00  0.00    +0.000 A 
ATOM     11  N   UNL     1       0.228   9.775  20.397  0.00  0.00    +0.000 N 
ATOM     12  N   UNL     1       1.647   7.937  20.428  0.00  0.00    +0.000 NA
ATOM     13  C   UNL     1       2.489   7.126  19.743  0.00  0.00    +0.000 A 
ATOM     14  H   UNL     1       0.194  10.667  19.928  0.00  0.00    +0.000 HD
ATOM     15  H   UNL     1       0.420   9.767  21.389  0.00  0.00    +0.000 HD
ENDBRANCH   4   7
BRANCH   5  16
ATOM     16  N   UNL     1       2.933   4.175  18.636  0.00  0.00    +0.000 N 
ATOM     17  N   UNL     1       3.364   3.684  19.821  0.00  0.00    +0.000 NA
ATOM     18  C   UNL     1       2.287   3.198  20.435  0.00  0.00    +0.000 A 
ATOM     19  C   UNL     1       2.367   2.718  21.835  0.00  0.00    +0.000 C 
ATOM     20  C   UNL     1       1.163   3.239  19.603  0.00  0.00    +0.000 A 
ATOM     21  C   UNL     1       1.590   3.826  18.426  0.00  0.00    +0.000 A 
ATOM     22  C   UNL     1       0.736   4.138  17.248  0.00  0.00    +0.000 C 
ENDBRANCH   5  16
BRANCH   1  24
ATOM     23  C   UNL     1       6.440   3.976  14.158  0.00  0.00    +0.000 C 
ATOM     24  O   UNL     1       6.707   4.187  15.542  0.00  0.00    +0.000 OA
ENDBRANCH   1  24
TORSDOF 3
ENDMDL
MODEL 3
REMARK VINA RESULT:      -7.2      3.346      6.397
REMARK  Name = 
REMARK  6 active torsions:
REMARK  status: ('A' for Active; 'I' for Inactive)
REMARK    1  A    between atoms: C_1  and  O_2
REMARK    2  A    between atoms: O_2  and  C_3
REMARK    3  A    between atoms: C_6  and  C_7
REMARK    4  A    between atoms: C_14  and  N_15
REMARK    5  A    between atoms: C_17  and  C_18
REMARK    6  A    between atoms: C_20  and  C_21
REMARK                            x       y       z     vdW  Elec       q    Type
REMARK                         _______ _______ _______ _____ _____    ______ ____
ROOT
ATOM      1  C   UNL     1       2.805   8.020  17.714  0.00  0.00    +0.000 A 
ATOM      2  C   UNL     1       2.165   7.278  18.690  0.00  0.00    +0.000 A 
ATOM      3  C   UNL     1       2.557   5.959  18.940  0.00  0.00    +0.000 A 
ATOM      4  C   UNL     1       3.608   5.317  18.232  0.00  0.00    +0.000 A 
ATOM      5  C   UNL     1       4.245   6.089  17.215  0.00  0.00    +0.000 A 
ATOM      6  C   UNL     1       3.846   7.428  17.005  0.00  0.00    +0.000 A 
ENDROOT
BRANCH   4   7
ATOM      7  C   UNL     1       3.903   3.906  18.609  0.00  0.00    +0.000 A 
ATOM      8  C   UNL     1       3.399   2.781  17.979  0.00  0.00    +0.000 A 
ATOM      9  N   UNL     1       3.680   1.496  18.318  0.00  0.00    +0.000 NA
ATOM     10  C   UNL     1       4.505   1.322  19.350  0.00  0.00    +0.000 A 
ATOM     11  N   UNL     1       4.826   0.028  19.702  0.00  0.00    +0.000 N 
ATOM     12  N   UNL     1       4.997   2.310  20.097  0.00  0.00    +0.000 NA
ATOM     13  C   UNL     1       4.698   3.570  19.697  0.00  0.00    +0.000 A 
ATOM     14  H   UNL     1       4.136  -0.600  19.318  0.00  0.00    +0.000 HD
ATOM     15  H   UNL     1       5.012  -0.018  20.695  0.00  0.00    +0.000 HD
ENDBRANCH   4   7
BRANCH   5  16
ATOM     16  N   UNL     1       5.324   5.598  16.403  0.00  0.00    +0.000 N 
ATOM     17  N   UNL     1       5.057   4.754  15.381  0.00  0.00    +0.000 NA
ATOM     18  C   UNL     1       6.195   4.619  14.704  0.00  0.00    +0.000 A 
ATOM     19  C   UNL     1       6.230   3.880  13.420  0.00  0.00    +0.000 C 
ATOM     20  C   UNL     1       7.254   5.262  15.354  0.00  0.00    +0.000 A 
ATOM     21  C   UNL     1       6.701   5.855  16.474  0.00  0.00    +0.000 A 
ATOM     22  C   UNL     1       7.426   6.703  17.459  0.00  0.00    +0.000 C 
ENDBRANCH   5  16
BRANCH   1  24
ATOM     23  C   UNL     1       1.096   9.618  18.124  0.00  0.00    +0.000 C 
ATOM     24  O   UNL     1       2.365   9.303  17.558  0.00  0.00    +0.000 OA
ENDBRANCH   1  24
TORSDOF 3
ENDMDL
MODEL 4
REMARK VINA RESULT:      -7.1      2.758      5.031
REMARK  Name = 
REMARK  6 active torsions:
REMARK  status: ('A' for Active; 'I' for Inactive)
REMARK    1  A    between atoms: C_1  and  O_2
REMARK    2  A    between atoms: O_2  and  C_3
REMARK    3  A    between atoms: C_6  and  C_7
REMARK    4  A    between atoms: C_14  and  N_15
REMARK    5  A    between atoms: C_17  and  C_18
REMARK    6  A    between atoms: C_20  and  C_21
REMARK                            x       y       z     vdW  Elec       q    Type
REMARK                         _______ _______ _______ _____ _____    ______ ____
ROOT
ATOM      1  C   UNL     1       6.569   4.447  14.098  0.00  0.00    +0.000 A 
ATOM      2  C   UNL     1       5.265   4.036  14.311  0.00  0.00    +0.000 A 
ATOM      3  C   UNL     1       4.582   4.435  15.464  0.00  0.00    +0.000 A 
ATOM      4  C   UNL     1       5.163   5.266  16.460  0.00  0.00    +0.000 A 
ATOM      5  C   UNL     1       6.515   5.664  16.235  0.00  0.00    +0.000 A 
ATOM      6  C   UNL     1       7.169   5.269  15.048  0.00  0.00    +0.000 A 
ENDROOT
BRANCH   4   7
ATOM      7  C   UNL     1       4.308   5.598  17.634  0.00  0.00    +0.000 A 
ATOM      8  C   UNL     1       3.651   6.798  17.838  0.00  0.00    +0.000 A 
ATOM      9  N   UNL     1       2.862   7.094  18.904  0.00  0.00    +0.000 NA
ATOM     10  C   UNL     1       2.728   6.139  19.824  0.00  0.00    +0.000 A 
ATOM     11  N   UNL     1       1.915   6.403  20.906  0.00  0.00    +0.000 N 
ATOM     12  N   UNL     1       3.368   4.970  19.797  0.00  0.00    +0.000 NA
ATOM     13  C   UNL     1       4.122   4.726  18.698  0.00  0.00    +0.000 A 
ATOM     14  H   UNL     1       1.793   7.399  20.993  0.00  0.00    +0.000 HD
ATOM     15  H   UNL     1       2.246   5.891  21.713  0.00  0.00    +0.000 HD
ENDBRANCH   4   7
BRANCH   5  16
ATOM     16  N   UNL     1       7.256   6.501  17.138  0.00  0.00    +0.000 N 
ATOM     17  N   UNL     1       7.495   7.790  16.805  0.00  0.00    +0.000 NA
ATOM     18  C   UNL     1       8.022   8.361  17.886  0.00  0.00    +0.000 A 
ATOM     19  C   UNL     1       8.266   9.821  17.929  0.00  0.00    +0.000 C 
ATOM     20  C   UNL     1       8.263   7.419  18.893  0.00  0.00    +0.000 A 
ATOM     21  C   UNL     1       7.811   6.212  18.393  0.00  0.00    +0.000 A 
ATOM     22  C   UNL     1       7.803   4.914  19.123  0.00  0.00    +0.000 C 
ENDBRANCH   5  16
BRANCH   1  24
ATOM     23  C   UNL     1       6.355   3.178  12.102  0.00  0.00    +0.000 C 
ATOM     24  O   UNL     1       7.144   4.023  12.935  0.00  0.00    +0.000 OA
ENDBRANCH   1  24
TORSDOF 3
ENDMDL
MODEL 5
REMARK VINA RESULT:      -6.8      1.328      1.424
REMARK  Name = 
REMARK  6 active torsions:
REMARK  status: ('A' for Active; 'I' for Inactive)
REMARK    1  A    between atoms: C_1  and  O_2
REMARK    2  A    between atoms: O_2  and  C_3
REMARK    3  A    between atoms: C_6  and  C_7
REMARK    4  A    between atoms: C_14  and  N_15
REMARK    5  A    between atoms: C_17  and  C_18
REMARK    6  A    between atoms: C_20  and  C_21
REMARK                            x       y       z     vdW  Elec       q    Type
REMARK                         _______ _______ _______ _____ _____    ______ ____
ROOT
ATOM      1  C   UNL     1       5.909   4.733  15.299  0.00  0.00    +0.000 A 
ATOM      2  C   UNL     1       5.644   6.090  15.280  0.00  0.00    +0.000 A 
ATOM      3  C   UNL     1       4.809   6.657  16.248  0.00  0.00    +0.000 A 
ATOM      4  C   UNL     1       4.199   5.900  17.284  0.00  0.00    +0.000 A 
ATOM      5  C   UNL     1       4.466   4.498  17.278  0.00  0.00    +0.000 A 
ATOM      6  C   UNL     1       5.337   3.959  16.305  0.00  0.00    +0.000 A 
ENDROOT
BRANCH   4   7
ATOM      7  C   UNL     1       3.329   6.647  18.235  0.00  0.00    +0.000 A 
ATOM      8  C   UNL     1       3.017   6.251  19.523  0.00  0.00    +0.000 A 
ATOM      9  N   UNL     1       2.234   6.941  20.392  0.00  0.00    +0.000 NA
ATOM     10  C   UNL     1       1.726   8.090  19.947  0.00  0.00    +0.000 A 
ATOM     11  N   UNL     1       0.945   8.823  20.816  0.00  0.00    +0.000 N 
ATOM     12  N   UNL     1       1.876   8.550  18.706  0.00  0.00    +0.000 NA
ATOM     13  C   UNL     1       2.685   7.829  17.893  0.00  0.00    +0.000 A 
ATOM     14  H   UNL     1       0.620   8.222  21.557  0.00  0.00    +0.000 HD
ATOM     15  H   UNL     1       0.257   9.349  20.293  0.00  0.00    +0.000 HD
ENDBRANCH   4   7
BRANCH   5  16
ATOM     16  N   UNL     1       3.933   3.584  18.249  0.00  0.00    +0.000 N 
ATOM     17  N   UNL     1       4.769   2.974  19.120  0.00  0.00    +0.000 NA
ATOM     18  C   UNL     1       3.995   2.348  20.003  0.00  0.00    +0.000 A 
ATOM     19  C   UNL     1       4.582   1.699  21.199  0.00  0.00    +0.000 C 
ATOM     20  C   UNL     1       2.645   2.424  19.642  0.00  0.00    +0.000 A 
ATOM     21  C   UNL     1       2.609   3.182  18.486  0.00  0.00    +0.000 A 
ATOM     22  C   UNL     1       1.382   3.588  17.747  0.00  0.00    +0.000 C 
ENDBRANCH   5  16
BRANCH   1  24
ATOM     23  C   UNL     1       6.145   3.725  13.162  0.00  0.00    +0.000 C 
ATOM     24  O   UNL     1       6.752   4.277  14.327  0.00  0.00    +0.000 OA
ENDBRANCH   1  24
TORSDOF 3
ENDMDL
MODEL 6
REMARK VINA RESULT:      -6.7      1.213      1.812
REMARK  Name = 
REMARK  6 active torsions:
REMARK  status: ('A' for Active; 'I' for Inactive)
REMARK    1  A    between atoms: C_1  and  O_2
REMARK    2  A    between atoms: O_2  and  C_3
REMARK    3  A    between atoms: C_6  and  C_7
REMARK    4  A    between atoms: C_14  and  N_15
REMARK    5  A    between atoms: C_17  and  C_18
REMARK    6  A    between atoms: C_20  and  C_21
REMARK                            x       y       z     vdW  Elec       q    Type
REMARK                         _______ _______ _______ _____ _____    ______ ____
ROOT
ATOM      1  C   UNL     1       5.753   4.535  15.471  0.00  0.00    +0.000 A 
ATOM      2  C   UNL     1       5.696   5.914  15.393  0.00  0.00    +0.000 A 
ATOM      3  C   UNL     1       4.855   6.633  16.248  0.00  0.00    +0.000 A 
ATOM      4  C   UNL     1       4.031   6.012  17.225  0.00  0.00    +0.000 A 
ATOM      5  C   UNL     1       4.086   4.587  17.279  0.00  0.00    +0.000 A 
ATOM      6  C   UNL     1       4.967   3.891  16.422  0.00  0.00    +0.000 A 
ENDROOT
BRANCH   4   7
ATOM      7  C   UNL     1       3.185   6.914  18.056  0.00  0.00    +0.000 A 
ATOM      8  C   UNL     1       2.805   6.681  19.366  0.00  0.00    +0.000 A 
ATOM      9  N   UNL     1       2.044   7.511  20.125  0.00  0.00    +0.000 NA
ATOM     10  C   UNL     1       1.631   8.635  19.541  0.00  0.00    +0.000 A 
ATOM     11  N   UNL     1       0.875   9.508  20.295  0.00  0.00    +0.000 N 
ATOM     12  N   UNL     1       1.852   8.947  18.264  0.00  0.00    +0.000 NA
ATOM     13  C   UNL     1       2.635   8.090  17.565  0.00  0.00    +0.000 A 
ATOM     14  H   UNL     1       0.485   9.014  21.082  0.00  0.00    +0.000 HD
ATOM     15  H   UNL     1       0.242  10.018  19.693  0.00  0.00    +0.000 HD
ENDBRANCH   4   7
BRANCH   5  16
ATOM     16  N   UNL     1       3.321   3.798  18.204  0.00  0.00    +0.000 N 
ATOM     17  N   UNL     1       2.000   3.607  17.983  0.00  0.00    +0.000 NA
ATOM     18  C   UNL     1       1.602   2.702  18.875  0.00  0.00    +0.000 A 
ATOM     19  C   UNL     1       0.233   2.137  18.819  0.00  0.00    +0.000 C 
ATOM     20  C   UNL     1       2.623   2.394  19.780  0.00  0.00    +0.000 A 
ATOM     21  C   UNL     1       3.718   3.135  19.375  0.00  0.00    +0.000 A 
ATOM     22  C   UNL     1       5.070   3.103  19.998  0.00  0.00    +0.000 C 
ENDBRANCH   5  16
BRANCH   1  24
ATOM     23  C   UNL     1       6.179   3.771  13.263  0.00  0.00    +0.000 C 
ATOM     24  O   UNL     1       6.619   3.925  14.609  0.00  0.00    +0.000 OA
ENDBRANCH   1  24
TORSDOF 3
ENDMDL
MODEL 7
REMARK VINA RESULT:      -6.7      3.071      5.261
REMARK  Name = 
REMARK  6 active torsions:
REMARK  status: ('A' for Active; 'I' for Inactive)
REMARK    1  A    between atoms: C_1  and  O_2
REMARK    2  A    between atoms: O_2  and  C_3
REMARK    3  A    between atoms: C_6  and  C_7
REMARK    4  A    between atoms: C_14  and  N_15
REMARK    5  A    between atoms: C_17  and  C_18
REMARK    6  A    between atoms: C_20  and  C_21
REMARK                            x       y       z     vdW  Elec       q    Type
REMARK                         _______ _______ _______ _____ _____    ______ ____
ROOT
ATOM      1  C   UNL     1       1.650   7.337  20.262  0.00  0.00    +0.000 A 
ATOM      2  C   UNL     1       2.154   8.128  19.245  0.00  0.00    +0.000 A 
ATOM      3  C   UNL     1       2.974   7.569  18.260  0.00  0.00    +0.000 A 
ATOM      4  C   UNL     1       3.331   6.194  18.239  0.00  0.00    +0.000 A 
ATOM      5  C   UNL     1       2.820   5.395  19.306  0.00  0.00    +0.000 A 
ATOM      6  C   UNL     1       1.971   5.982  20.270  0.00  0.00    +0.000 A 
ENDROOT
BRANCH   4   7
ATOM      7  C   UNL     1       4.219   5.751  17.128  0.00  0.00    +0.000 A 
ATOM      8  C   UNL     1       4.325   4.458  16.647  0.00  0.00    +0.000 A 
ATOM      9  N   UNL     1       5.126   4.060  15.626  0.00  0.00    +0.000 NA
ATOM     10  C   UNL     1       5.872   5.006  15.055  0.00  0.00    +0.000 A 
ATOM     11  N   UNL     1       6.679   4.635  13.999  0.00  0.00    +0.000 N 
ATOM     12  N   UNL     1       5.932   6.271  15.469  0.00  0.00    +0.000 NA
ATOM     13  C   UNL     1       5.094   6.611  16.477  0.00  0.00    +0.000 A 
ATOM     14  H   UNL     1       6.816   3.636  14.023  0.00  0.00    +0.000 HD
ATOM     15  H   UNL     1       7.498   5.227  13.973  0.00  0.00    +0.000 HD
ENDBRANCH   4   7
BRANCH   5  16
ATOM     16  N   UNL     1       3.081   3.989  19.441  0.00  0.00    +0.000 N 
ATOM     17  N   UNL     1       4.254   3.577  19.974  0.00  0.00    +0.000 NA
ATOM     18  C   UNL     1       4.142   2.262  20.147  0.00  0.00    +0.000 A 
ATOM     19  C   UNL     1       5.193   1.500  20.860  0.00  0.00    +0.000 C 
ATOM     20  C   UNL     1       2.949   1.776  19.600  0.00  0.00    +0.000 A 
ATOM     21  C   UNL     1       2.286   2.883  19.103  0.00  0.00    +0.000 A 
ATOM     22  C   UNL     1       0.939   2.881  18.471  0.00  0.00    +0.000 C 
ENDBRANCH   5  16
BRANCH   1  24
ATOM     23  C   UNL     1       0.820   9.392  21.114  0.00  0.00    +0.000 C 
ATOM     24  O   UNL     1       0.843   7.968  21.164  0.00  0.00    +0.000 OA
ENDBRANCH   1  24
TORSDOF 3
ENDMDL
MODEL 8
REMARK VINA RESULT:      -6.6      3.065      5.311
REMARK  Name = 
REMARK  6 active torsions:
REMARK  status: ('A' for Active; 'I' for Inactive)
REMARK    1  A    between atoms: C_1  and  O_2
REMARK    2  A    between atoms: O_2  and  C_3
REMARK    3  A    between atoms: C_6  and  C_7
REMARK    4  A    between atoms: C_14  and  N_15
REMARK    5  A    between atoms: C_17  and  C_18
REMARK    6  A    between atoms: C_20  and  C_21
REMARK                            x       y       z     vdW  Elec       q    Type
REMARK                         _______ _______ _______ _____ _____    ______ ____
ROOT
ATOM      1  C   UNL     1       1.604   7.367  20.315  0.00  0.00    +0.000 A 
ATOM      2  C   UNL     1       2.108   8.175  19.311  0.00  0.00    +0.000 A 
ATOM      3  C   UNL     1       2.932   7.633  18.320  0.00  0.00    +0.000 A 
ATOM      4  C   UNL     1       3.292   6.259  18.278  0.00  0.00    +0.000 A 
ATOM      5  C   UNL     1       2.781   5.443  19.332  0.00  0.00    +0.000 A 
ATOM      6  C   UNL     1       1.928   6.014  20.303  0.00  0.00    +0.000 A 
ENDROOT
BRANCH   4   7
ATOM      7  C   UNL     1       4.184   5.835  17.162  0.00  0.00    +0.000 A 
ATOM      8  C   UNL     1       5.016   6.669  16.436  0.00  0.00    +0.000 A 
ATOM      9  N   UNL     1       5.837   6.277  15.427  0.00  0.00    +0.000 NA
ATOM     10  C   UNL     1       5.821   4.980  15.120  0.00  0.00    +0.000 A 
ATOM     11  N   UNL     1       6.662   4.550  14.115  0.00  0.00    +0.000 N 
ATOM     12  N   UNL     1       5.011   4.082  15.680  0.00  0.00    +0.000 NA
ATOM     13  C   UNL     1       4.231   4.529  16.694  0.00  0.00    +0.000 A 
ATOM     14  H   UNL     1       6.934   5.340  13.550  0.00  0.00    +0.000 HD
ATOM     15  H   UNL     1       6.254   3.751  13.649  0.00  0.00    +0.000 HD
ENDBRANCH   4   7
BRANCH   5  16
ATOM     16  N   UNL     1       3.044   4.036  19.446  0.00  0.00    +0.000 N 
ATOM     17  N   UNL     1       4.224   3.619  19.960  0.00  0.00    +0.000 NA
ATOM     18  C   UNL     1       4.116   2.301  20.117  0.00  0.00    +0.000 A 
ATOM     19  C   UNL     1       5.176   1.531  20.808  0.00  0.00    +0.000 C 
ATOM     20  C   UNL     1       2.917   1.821  19.579  0.00  0.00    +0.000 A 
ATOM     21  C   UNL     1       2.246   2.933  19.105  0.00  0.00    +0.000 A 
ATOM     22  C   UNL     1       0.891   2.938  18.489  0.00  0.00    +0.000 C 
ENDBRANCH   5  16
BRANCH   1  24
ATOM     23  C   UNL     1       0.265   9.254  20.853  0.00  0.00    +0.000 C 
ATOM     24  O   UNL     1       0.793   7.984  21.224  0.00  0.00    +0.000 OA
ENDBRANCH   1  24
TORSDOF 3
ENDMDL
MODEL 9
REMARK VINA RESULT:      -6.6      3.134      6.152
REMARK  Name = 
REMARK  6 active torsions:
REMARK  status: ('A' for Active; 'I' for Inactive)
REMARK    1  A    between atoms: C_1  and  O_2
REMARK    2  A    between atoms: O_2  and  C_3
REMARK    3  A    between atoms: C_6  and  C_7
REMARK    4  A    between atoms: C_14  and  N_15
REMARK    5  A    between atoms: C_17  and  C_18
REMARK    6  A    between atoms: C_20  and  C_21
REMARK                            x       y       z     vdW  Elec       q    Type
REMARK                         _______ _______ _______ _____ _____    ______ ____
ROOT
ATOM      1  C   UNL     1       2.528   8.537  17.840  0.00  0.00    +0.000 A 
ATOM      2  C   UNL     1       1.995   7.954  18.976  0.00  0.00    +0.000 A 
ATOM      3  C   UNL     1       2.470   6.718  19.421  0.00  0.00    +0.000 A 
ATOM      4  C   UNL     1       3.503   6.001  18.758  0.00  0.00    +0.000 A 
ATOM      5  C   UNL     1       4.029   6.606  17.577  0.00  0.00    +0.000 A 
ATOM      6  C   UNL     1       3.548   7.869  17.168  0.00  0.00    +0.000 A 
ENDROOT
BRANCH   4   7
ATOM      7  C   UNL     1       3.896   4.692  19.352  0.00  0.00    +0.000 A 
ATOM      8  C   UNL     1       5.128   4.080  19.208  0.00  0.00    +0.000 A 
ATOM      9  N   UNL     1       5.487   2.892  19.761  0.00  0.00    +0.000 NA
ATOM     10  C   UNL     1       4.560   2.276  20.494  0.00  0.00    +0.000 A 
ATOM     11  N   UNL     1       4.904   1.079  21.087  0.00  0.00    +0.000 N 
ATOM     12  N   UNL     1       3.309   2.709  20.648  0.00  0.00    +0.000 NA
ATOM     13  C   UNL     1       3.018   3.910  20.090  0.00  0.00    +0.000 A 
ATOM     14  H   UNL     1       5.709   0.696  20.617  0.00  0.00    +0.000 HD
ATOM     15  H   UNL     1       4.083   0.496  21.176  0.00  0.00    +0.000 HD
ENDBRANCH   4   7
BRANCH   5  16
ATOM     16  N   UNL     1       5.075   6.021  16.784  0.00  0.00    +0.000 N 
ATOM     17  N   UNL     1       4.764   5.083  15.860  0.00  0.00    +0.000 NA
ATOM     18  C   UNL     1       5.878   4.866  15.164  0.00  0.00    +0.000 A 
ATOM     19  C   UNL     1       5.861   4.003  13.959  0.00  0.00    +0.000 C 
ATOM     20  C   UNL     1       6.965   5.555  15.712  0.00  0.00    +0.000 A 
ATOM     21  C   UNL     1       6.457   6.263  16.785  0.00  0.00    +0.000 A 
ATOM     22  C   UNL     1       7.223   7.195  17.657  0.00  0.00    +0.000 C 
ENDBRANCH   5  16
BRANCH   1  24
ATOM     23  C   UNL     1       1.369  10.491  18.532  0.00  0.00    +0.000 C 
ATOM     24  O   UNL     1       2.013   9.754  17.497  0.00  0.00    +0.000 OA
ENDBRANCH   1  24
TORSDOF 3
ENDMDL
