MODEL 1
REMARK VINA RESULT:      -7.7      0.000      0.000
REMARK  Name = 
REMARK  5 active torsions:
REMARK  status: ('A' for Active; 'I' for Inactive)
REMARK    1  A    between atoms: C_1  and  O_2
REMARK    2  A    between atoms: O_2  and  C_3
REMARK    3  A    between atoms: C_9  and  N_10
REMARK    4  A    between atoms: N_10  and  C_11
REMARK    5  A    between atoms: C_12  and  C_14
REMARK                            x       y       z     vdW  Elec       q    Type
REMARK                         _______ _______ _______ _____ _____    ______ ____
ROOT
ATOM      1  C   UNL     1       1.567   8.041  20.031  0.00  0.00    +0.000 A 
ATOM      2  C   UNL     1       1.536   6.737  20.489  0.00  0.00    +0.000 A 
ATOM      3  C   UNL     1       2.423   5.854  19.773  0.00  0.00    +0.000 A 
ATOM      4  C   UNL     1       3.065   6.501  18.735  0.00  0.00    +0.000 A 
ATOM      5  S   UNL     1       2.713   8.173  18.754  0.00  0.00    +0.000 S 
ATOM      6  C   UNL     1       3.932   5.891  17.710  0.00  0.00    +0.000 A 
ATOM      7  C   UNL     1       4.444   6.622  16.622  0.00  0.00    +0.000 A 
ATOM      8  C   UNL     1       5.238   6.024  15.636  0.00  0.00    +0.000 A 
ATOM      9  C   UNL     1       5.547   4.670  15.708  0.00  0.00    +0.000 A 
ATOM     10  C   UNL     1       5.054   3.917  16.769  0.00  0.00    +0.000 A 
ATOM     11  C   UNL     1       4.252   4.528  17.753  0.00  0.00    +0.000 A 
ATOM     12  S   UNL     1       3.654   3.467  19.036  0.00  0.00    +0.000 S 
ATOM     13  O   UNL     1       2.860   2.447  18.373  0.00  0.00    +0.000 OA
ATOM     14  O   UNL     1       4.820   3.095  19.818  0.00  0.00    +0.000 OA
ATOM     15  C   UNL     1       2.565   4.401  20.085  0.00  0.00    +0.000 C 
ENDROOT
BRANCH   1  18
ATOM     16  N   UNL     1       0.857   9.874  21.627  0.00  0.00    +0.000 N 
ATOM     17  C   UNL     1       1.681   9.322  22.695  0.00  0.00    +0.000 C 
ATOM     18  C   UNL     1       0.776   9.246  20.345  0.00  0.00    +0.000 C 
ATOM     19  O   UNL     1       0.017   9.678  19.473  0.00  0.00    +0.000 OA
BRANCH  16  26
ATOM     20  C   UNL     1       0.539  12.409  21.517  0.00  0.00    +0.000 A 
ATOM     21  C   UNL     1      -0.258  13.535  21.818  0.00  0.00    +0.000 A 
ATOM     22  C   UNL     1      -1.447  13.412  22.530  0.00  0.00    +0.000 A 
ATOM     23  C   UNL     1      -1.873  12.156  22.916  0.00  0.00    +0.000 A 
ATOM     24 CL   UNL     1      -3.349  11.990  23.788  0.00  0.00    +0.000 Cl
ATOM     25  C   UNL     1      -1.121  11.025  22.593  0.00  0.00    +0.000 A 
ATOM     26  C   UNL     1       0.111  11.108  21.909  0.00  0.00    +0.000 A 
BRANCH  20  28
ATOM     27  C   UNL     1       1.739  12.780  19.476  0.00  0.00    +0.000 C 
ATOM     28  O   UNL     1       1.754  12.544  20.883  0.00  0.00    +0.000 OA
ENDBRANCH  20  28
ENDBRANCH  16  26
ENDBRANCH   1  18
TORSDOF 3
ENDMDL
MODEL 2
REMARK VINA RESULT:      -7.7      1.461      1.493
REMARK  Name = 
REMARK  5 active torsions:
REMARK  status: ('A' for Active; 'I' for Inactive)
REMARK    1  A    between atoms: C_1  and  O_2
REMARK    2  A    between atoms: O_2  and  C_3
REMARK    3  A    between atoms: C_9  and  N_10
REMARK    4  A    between atoms: N_10  and  C_11
REMARK    5  A    between atoms: C_12  and  C_14
REMARK                            x       y       z     vdW  Elec       q    Type
REMARK                         _______ _______ _______ _____ _____    ______ ____
ROOT
ATOM      1  C   UNL     1       2.049   8.224  18.948  0.00  0.00    +0.000 A 
ATOM      2  C   UNL     1       2.008   7.021  19.627  0.00  0.00    +0.000 A 
ATOM      3  C   UNL     1       2.900   6.024  19.088  0.00  0.00    +0.000 A 
ATOM      4  C   UNL     1       3.558   6.478  17.962  0.00  0.00    +0.000 A 
ATOM      5  S   UNL     1       3.213   8.128  17.683  0.00  0.00    +0.000 S 
ATOM      6  C   UNL     1       4.436   5.697  17.071  0.00  0.00    +0.000 A 
ATOM      7  C   UNL     1       4.966   6.225  15.879  0.00  0.00    +0.000 A 
ATOM      8  C   UNL     1       5.770   5.462  15.024  0.00  0.00    +0.000 A 
ATOM      9  C   UNL     1       6.073   4.141  15.336  0.00  0.00    +0.000 A 
ATOM     10  C   UNL     1       5.563   3.587  16.505  0.00  0.00    +0.000 A 
ATOM     11  C   UNL     1       4.750   4.362  17.357  0.00  0.00    +0.000 A 
ATOM     12  S   UNL     1       4.131   3.543  18.797  0.00  0.00    +0.000 S 
ATOM     13  O   UNL     1       3.342   2.424  18.312  0.00  0.00    +0.000 OA
ATOM     14  O   UNL     1       5.286   3.311  19.648  0.00  0.00    +0.000 OA
ATOM     15  C   UNL     1       3.032   4.647  19.652  0.00  0.00    +0.000 C 
ENDROOT
BRANCH   1  18
ATOM     16  N   UNL     1       0.809   9.973  20.294  0.00  0.00    +0.000 N 
ATOM     17  C   UNL     1       1.064   9.258  21.539  0.00  0.00    +0.000 C 
ATOM     18  C   UNL     1       1.259   9.467  19.036  0.00  0.00    +0.000 C 
ATOM     19  O   UNL     1       0.973  10.040  17.981  0.00  0.00    +0.000 OA
BRANCH  16  26
ATOM     20  C   UNL     1       0.666  12.487  20.739  0.00  0.00    +0.000 A 
ATOM     21  C   UNL     1      -0.121  13.660  20.771  0.00  0.00    +0.000 A 
ATOM     22  C   UNL     1      -1.483  13.627  20.489  0.00  0.00    +0.000 A 
ATOM     23  C   UNL     1      -2.068  12.426  20.135  0.00  0.00    +0.000 A 
ATOM     24 CL   UNL     1      -3.751  12.376  19.773  0.00  0.00    +0.000 Cl
ATOM     25  C   UNL     1      -1.301  11.263  20.058  0.00  0.00    +0.000 A 
ATOM     26  C   UNL     1       0.075  11.243  20.375  0.00  0.00    +0.000 A 
BRANCH  20  28
ATOM     27  C   UNL     1       2.749  13.671  20.751  0.00  0.00    +0.000 C 
ATOM     28  O   UNL     1       1.995  12.510  21.097  0.00  0.00    +0.000 OA
ENDBRANCH  20  28
ENDBRANCH  16  26
ENDBRANCH   1  18
TORSDOF 3
ENDMDL
MODEL 3
REMARK VINA RESULT:      -7.7      1.816      2.205
REMARK  Name = 
REMARK  5 active torsions:
REMARK  status: ('A' for Active; 'I' for Inactive)
REMARK    1  A    between atoms: C_1  and  O_2
REMARK    2  A    between atoms: O_2  and  C_3
REMARK    3  A    between atoms: C_9  and  N_10
REMARK    4  A    between atoms: N_10  and  C_11
REMARK    5  A    between atoms: C_12  and  C_14
REMARK                            x       y       z     vdW  Elec       q    Type
REMARK                         _______ _______ _______ _____ _____    ______ ____
ROOT
ATOM      1  C   UNL     1       2.175   8.118  18.850  0.00  0.00    +0.000 A 
ATOM      2  C   UNL     1       2.111   6.912  19.523  0.00  0.00    +0.000 A 
ATOM      3  C   UNL     1       2.995   5.906  18.988  0.00  0.00    +0.000 A 
ATOM      4  C   UNL     1       3.670   6.356  17.870  0.00  0.00    +0.000 A 
ATOM      5  S   UNL     1       3.350   8.012  17.596  0.00  0.00    +0.000 S 
ATOM      6  C   UNL     1       4.546   5.567  16.985  0.00  0.00    +0.000 A 
ATOM      7  C   UNL     1       5.094   6.093  15.800  0.00  0.00    +0.000 A 
ATOM      8  C   UNL     1       5.896   5.323  14.950  0.00  0.00    +0.000 A 
ATOM      9  C   UNL     1       6.178   3.997  15.259  0.00  0.00    +0.000 A 
ATOM     10  C   UNL     1       5.650   3.444  16.421  0.00  0.00    +0.000 A 
ATOM     11  C   UNL     1       4.839   4.227  17.268  0.00  0.00    +0.000 A 
ATOM     12  S   UNL     1       4.196   3.410  18.699  0.00  0.00    +0.000 S 
ATOM     13  O   UNL     1       3.396   2.304  18.201  0.00  0.00    +0.000 OA
ATOM     14  O   UNL     1       5.338   3.160  19.560  0.00  0.00    +0.000 OA
ATOM     15  C   UNL     1       3.103   4.526  19.547  0.00  0.00    +0.000 C 
ENDROOT
BRANCH   1  18
ATOM     16  N   UNL     1       0.647   9.699  20.104  0.00  0.00    +0.000 N 
ATOM     17  C   UNL     1       0.567   8.790  21.240  0.00  0.00    +0.000 C 
ATOM     18  C   UNL     1       1.401   9.371  18.935  0.00  0.00    +0.000 C 
ATOM     19  O   UNL     1       1.400  10.113  17.949  0.00  0.00    +0.000 OA
BRANCH  16  26
ATOM     20  C   UNL     1      -1.315  11.248  19.561  0.00  0.00    +0.000 A 
ATOM     21  C   UNL     1      -1.938  12.504  19.731  0.00  0.00    +0.000 A 
ATOM     22  C   UNL     1      -1.345  13.511  20.485  0.00  0.00    +0.000 A 
ATOM     23  C   UNL     1      -0.139  13.262  21.112  0.00  0.00    +0.000 A 
ATOM     24 CL   UNL     1       0.598  14.497  22.058  0.00  0.00    +0.000 Cl
ATOM     25  C   UNL     1       0.474  12.013  20.991  0.00  0.00    +0.000 A 
ATOM     26  C   UNL     1      -0.071  10.977  20.201  0.00  0.00    +0.000 A 
BRANCH  20  28
ATOM     27  C   UNL     1      -2.008  10.592  17.363  0.00  0.00    +0.000 C 
ATOM     28  O   UNL     1      -1.865  10.282  18.748  0.00  0.00    +0.000 OA
ENDBRANCH  20  28
ENDBRANCH  16  26
ENDBRANCH   1  18
TORSDOF 3
ENDMDL
MODEL 4
REMARK VINA RESULT:      -7.2      1.413      2.681
REMARK  Name = 
REMARK  5 active torsions:
REMARK  status: ('A' for Active; 'I' for Inactive)
REMARK    1  A    between atoms: C_1  and  O_2
REMARK    2  A    between atoms: O_2  and  C_3
REMARK    3  A    between atoms: C_9  and  N_10
REMARK    4  A    between atoms: N_10  and  C_11
REMARK    5  A    between atoms: C_12  and  C_14
REMARK                            x       y       z     vdW  Elec       q    Type
REMARK                         _______ _______ _______ _____ _____    ______ ____
ROOT
ATOM      1  C   UNL     1       1.429   8.461  19.533  0.00  0.00    +0.000 A 
ATOM      2  C   UNL     1       2.392   8.238  18.567  0.00  0.00    +0.000 A 
ATOM      3  C   UNL     1       2.917   6.894  18.576  0.00  0.00    +0.000 A 
ATOM      4  C   UNL     1       2.381   6.140  19.601  0.00  0.00    +0.000 A 
ATOM      5  S   UNL     1       1.152   7.007  20.412  0.00  0.00    +0.000 S 
ATOM      6  C   UNL     1       2.779   4.778  20.002  0.00  0.00    +0.000 A 
ATOM      7  C   UNL     1       2.249   4.140  21.139  0.00  0.00    +0.000 A 
ATOM      8  C   UNL     1       2.659   2.860  21.529  0.00  0.00    +0.000 A 
ATOM      9  C   UNL     1       3.616   2.173  20.790  0.00  0.00    +0.000 A 
ATOM     10  C   UNL     1       4.163   2.775  19.662  0.00  0.00    +0.000 A 
ATOM     11  C   UNL     1       3.746   4.067  19.281  0.00  0.00    +0.000 A 
ATOM     12  S   UNL     1       4.534   4.746  17.850  0.00  0.00    +0.000 S 
ATOM     13  O   UNL     1       5.951   4.802  18.163  0.00  0.00    +0.000 OA
ATOM     14  O   UNL     1       4.062   3.957  16.726  0.00  0.00    +0.000 OA
ATOM     15  C   UNL     1       3.965   6.415  17.627  0.00  0.00    +0.000 C 
ENDROOT
BRANCH   1  18
ATOM     16  N   UNL     1       0.756  10.081  21.357  0.00  0.00    +0.000 N 
ATOM     17  C   UNL     1       1.469   9.308  22.366  0.00  0.00    +0.000 C 
ATOM     18  C   UNL     1       0.710   9.665  19.991  0.00  0.00    +0.000 C 
ATOM     19  O   UNL     1       0.041  10.284  19.160  0.00  0.00    +0.000 OA
BRANCH  16  26
ATOM     20  C   UNL     1       0.595  12.625  21.564  0.00  0.00    +0.000 A 
ATOM     21  C   UNL     1      -0.133  13.753  22.003  0.00  0.00    +0.000 A 
ATOM     22  C   UNL     1      -1.333  13.616  22.694  0.00  0.00    +0.000 A 
ATOM     23  C   UNL     1      -1.839  12.350  22.921  0.00  0.00    +0.000 A 
ATOM     24 CL   UNL     1      -3.328  12.169  23.766  0.00  0.00    +0.000 Cl
ATOM     25  C   UNL     1      -1.155  11.224  22.459  0.00  0.00    +0.000 A 
ATOM     26  C   UNL     1       0.085  11.315  21.791  0.00  0.00    +0.000 A 
BRANCH  20  28
ATOM     27  C   UNL     1       1.849  13.392  19.671  0.00  0.00    +0.000 C 
ATOM     28  O   UNL     1       1.821  12.762  20.951  0.00  0.00    +0.000 OA
ENDBRANCH  20  28
ENDBRANCH  16  26
ENDBRANCH   1  18
TORSDOF 3
ENDMDL
MODEL 5
REMARK VINA RESULT:      -7.2      1.686      1.918
REMARK  Name = 
REMARK  5 active torsions:
REMARK  status: ('A' for Active; 'I' for Inactive)
REMARK    1  A    between atoms: C_1  and  O_2
REMARK    2  A    between atoms: O_2  and  C_3
REMARK    3  A    between atoms: C_9  and  N_10
REMARK    4  A    between atoms: N_10  and  C_11
REMARK    5  A    between atoms: C_12  and  C_14
REMARK                            x       y       z     vdW  Elec       q    Type
REMARK                         _______ _______ _______ _____ _____    ______ ____
ROOT
ATOM      1  C   UNL     1       1.471   8.113  20.481  0.00  0.00    +0.000 A 
ATOM      2  C   UNL     1       1.116   6.889  21.015  0.00  0.00    +0.000 A 
ATOM      3  C   UNL     1       1.793   5.773  20.401  0.00  0.00    +0.000 A 
ATOM      4  C   UNL     1       2.608   6.176  19.362  0.00  0.00    +0.000 A 
ATOM      5  S   UNL     1       2.663   7.881  19.260  0.00  0.00    +0.000 S 
ATOM      6  C   UNL     1       3.343   5.308  18.423  0.00  0.00    +0.000 A 
ATOM      7  C   UNL     1       4.055   5.819  17.321  0.00  0.00    +0.000 A 
ATOM      8  C   UNL     1       4.720   4.983  16.417  0.00  0.00    +0.000 A 
ATOM      9  C   UNL     1       4.697   3.603  16.588  0.00  0.00    +0.000 A 
ATOM     10  C   UNL     1       4.000   3.065  17.665  0.00  0.00    +0.000 A 
ATOM     11  C   UNL     1       3.330   3.915  18.566  0.00  0.00    +0.000 A 
ATOM     12  S   UNL     1       2.450   3.118  19.878  0.00  0.00    +0.000 S 
ATOM     13  O   UNL     1       1.462   2.268  19.237  0.00  0.00    +0.000 OA
ATOM     14  O   UNL     1       3.465   2.540  20.742  0.00  0.00    +0.000 OA
ATOM     15  C   UNL     1       1.575   4.354  20.809  0.00  0.00    +0.000 C 
ENDROOT
BRANCH   1  18
ATOM     16  N   UNL     1       0.411  10.236  19.600  0.00  0.00    +0.000 N 
ATOM     17  C   UNL     1       0.344   9.693  18.249  0.00  0.00    +0.000 C 
ATOM     18  C   UNL     1       0.978   9.489  20.678  0.00  0.00    +0.000 C 
ATOM     19  O   UNL     1       1.099   9.987  21.801  0.00  0.00    +0.000 OA
BRANCH  16  26
ATOM     20  C   UNL     1       0.639  12.779  19.751  0.00  0.00    +0.000 A 
ATOM     21  C   UNL     1       0.021  14.031  19.961  0.00  0.00    +0.000 A 
ATOM     22  C   UNL     1      -1.331  14.129  20.275  0.00  0.00    +0.000 A 
ATOM     23  C   UNL     1      -2.091  12.977  20.346  0.00  0.00    +0.000 A 
ATOM     24 CL   UNL     1      -3.767  13.086  20.722  0.00  0.00    +0.000 Cl
ATOM     25  C   UNL     1      -1.508  11.732  20.101  0.00  0.00    +0.000 A 
ATOM     26  C   UNL     1      -0.132  11.583  19.821  0.00  0.00    +0.000 A 
BRANCH  20  28
ATOM     27  C   UNL     1       2.449  12.891  18.184  0.00  0.00    +0.000 C 
ATOM     28  O   UNL     1       1.993  12.681  19.520  0.00  0.00    +0.000 OA
ENDBRANCH  20  28
ENDBRANCH  16  26
ENDBRANCH   1  18
TORSDOF 3
ENDMDL
MODEL 6
REMARK VINA RESULT:      -7.2      3.646      9.004
REMARK  Name = 
REMARK  5 active torsions:
REMARK  status: ('A' for Active; 'I' for Inactive)
REMARK    1  A    between atoms: C_1  and  O_2
REMARK    2  A    between atoms: O_2  and  C_3
REMARK    3  A    between atoms: C_9  and  N_10
REMARK    4  A    between atoms: N_10  and  C_11
REMARK    5  A    between atoms: C_12  and  C_14
REMARK                            x       y       z     vdW  Elec       q    Type
REMARK                         _______ _______ _______ _____ _____    ______ ____
ROOT
ATOM      1  C   UNL     1       1.471   8.850  19.327  0.00  0.00    +0.000 A 
ATOM      2  C   UNL     1       0.921   8.933  20.591  0.00  0.00    +0.000 A 
ATOM      3  C   UNL     1       0.264  10.191  20.853  0.00  0.00    +0.000 A 
ATOM      4  C   UNL     1       0.389  11.066  19.791  0.00  0.00    +0.000 A 
ATOM      5  S   UNL     1       1.139  10.300  18.460  0.00  0.00    +0.000 S 
ATOM      6  C   UNL     1      -0.031  12.479  19.751  0.00  0.00    +0.000 A 
ATOM      7  C   UNL     1       0.248  13.319  18.658  0.00  0.00    +0.000 A 
ATOM      8  C   UNL     1      -0.126  14.668  18.647  0.00  0.00    +0.000 A 
ATOM      9  C   UNL     1      -0.796  15.221  19.733  0.00  0.00    +0.000 A 
ATOM     10  C   UNL     1      -1.085  14.419  20.831  0.00  0.00    +0.000 A 
ATOM     11  C   UNL     1      -0.699  13.063  20.835  0.00  0.00    +0.000 A 
ATOM     12  S   UNL     1      -1.090  12.149  22.297  0.00  0.00    +0.000 S 
ATOM     13  O   UNL     1      -0.397  12.820  23.384  0.00  0.00    +0.000 OA
ATOM     14  O   UNL     1      -2.537  12.028  22.315  0.00  0.00    +0.000 OA
ATOM     15  C   UNL     1      -0.404  10.516  22.147  0.00  0.00    +0.000 C 
ENDROOT
BRANCH   1  18
ATOM     16  N   UNL     1       2.537   6.556  19.219  0.00  0.00    +0.000 N 
ATOM     17  C   UNL     1       1.966   6.183  20.507  0.00  0.00    +0.000 C 
ATOM     18  C   UNL     1       2.324   7.851  18.654  0.00  0.00    +0.000 C 
ATOM     19  O   UNL     1       2.874   8.183  17.600  0.00  0.00    +0.000 OA
BRANCH  16  26
ATOM     20  C   UNL     1       2.790   4.435  17.813  0.00  0.00    +0.000 A 
ATOM     21  C   UNL     1       3.645   3.529  17.146  0.00  0.00    +0.000 A 
ATOM     22  C   UNL     1       5.028   3.675  17.185  0.00  0.00    +0.000 A 
ATOM     23  C   UNL     1       5.573   4.751  17.860  0.00  0.00    +0.000 A 
ATOM     24 CL   UNL     1       7.283   4.947  17.905  0.00  0.00    +0.000 Cl
ATOM     25  C   UNL     1       4.745   5.681  18.491  0.00  0.00    +0.000 A 
ATOM     26  C   UNL     1       3.339   5.549  18.512  0.00  0.00    +0.000 A 
BRANCH  20  28
ATOM     27  C   UNL     1       0.935   3.125  18.577  0.00  0.00    +0.000 C 
ATOM     28  O   UNL     1       1.427   4.243  17.839  0.00  0.00    +0.000 OA
ENDBRANCH  20  28
ENDBRANCH  16  26
ENDBRANCH   1  18
TORSDOF 3
ENDMDL
MODEL 7
REMARK VINA RESULT:      -7.1      1.630      1.825
REMARK  Name = 
REMARK  5 active torsions:
REMARK  status: ('A' for Active; 'I' for Inactive)
REMARK    1  A    between atoms: C_1  and  O_2
REMARK    2  A    between atoms: O_2  and  C_3
REMARK    3  A    between atoms: C_9  and  N_10
REMARK    4  A    between atoms: N_10  and  C_11
REMARK    5  A    between atoms: C_12  and  C_14
REMARK                            x       y       z     vdW  Elec       q    Type
REMARK                         _______ _______ _______ _____ _____    ______ ____
ROOT
ATOM      1  C   UNL     1       1.825   7.688  20.010  0.00  0.00    +0.000 A 
ATOM      2  C   UNL     1       1.800   6.376  20.442  0.00  0.00    +0.000 A 
ATOM      3  C   UNL     1       2.672   5.505  19.694  0.00  0.00    +0.000 A 
ATOM      4  C   UNL     1       3.299   6.171  18.659  0.00  0.00    +0.000 A 
ATOM      5  S   UNL     1       2.952   7.844  18.717  0.00  0.00    +0.000 S 
ATOM      6  C   UNL     1       4.148   5.580  17.608  0.00  0.00    +0.000 A 
ATOM      7  C   UNL     1       4.645   6.332  16.527  0.00  0.00    +0.000 A 
ATOM      8  C   UNL     1       5.422   5.752  15.518  0.00  0.00    +0.000 A 
ATOM      9  C   UNL     1       5.730   4.396  15.558  0.00  0.00    +0.000 A 
ATOM     10  C   UNL     1       5.252   3.624  16.611  0.00  0.00    +0.000 A 
ATOM     11  C   UNL     1       4.466   4.216  17.620  0.00  0.00    +0.000 A 
ATOM     12  S   UNL     1       3.886   3.131  18.891  0.00  0.00    +0.000 S 
ATOM     13  O   UNL     1       3.079   2.126  18.220  0.00  0.00    +0.000 OA
ATOM     14  O   UNL     1       5.064   2.741  19.646  0.00  0.00    +0.000 OA
ATOM     15  C   UNL     1       2.816   4.046  19.975  0.00  0.00    +0.000 C 
ENDROOT
BRANCH   1  18
ATOM     16  N   UNL     1       0.746   9.891  19.385  0.00  0.00    +0.000 N 
ATOM     17  C   UNL     1       1.246   9.798  18.019  0.00  0.00    +0.000 C 
ATOM     18  C   UNL     1       1.043   8.889  20.360  0.00  0.00    +0.000 C 
ATOM     19  O   UNL     1       0.679   9.015  21.532  0.00  0.00    +0.000 OA
BRANCH  16  26
ATOM     20  C   UNL     1       0.392  12.201  20.426  0.00  0.00    +0.000 A 
ATOM     21  C   UNL     1      -0.482  13.277  20.695  0.00  0.00    +0.000 A 
ATOM     22  C   UNL     1      -1.823  13.232  20.327  0.00  0.00    +0.000 A 
ATOM     23  C   UNL     1      -2.299  12.124  19.651  0.00  0.00    +0.000 A 
ATOM     24 CL   UNL     1      -3.954  12.062  19.182  0.00  0.00    +0.000 Cl
ATOM     25  C   UNL     1      -1.443  11.066  19.339  0.00  0.00    +0.000 A 
ATOM     26  C   UNL     1      -0.086  11.053  19.730  0.00  0.00    +0.000 A 
BRANCH  20  28
ATOM     27  C   UNL     1       2.429  13.430  20.706  0.00  0.00    +0.000 C 
ATOM     28  O   UNL     1       1.698  12.215  20.862  0.00  0.00    +0.000 OA
ENDBRANCH  20  28
ENDBRANCH  16  26
ENDBRANCH   1  18
TORSDOF 3
ENDMDL
MODEL 8
REMARK VINA RESULT:      -7.1      2.014      3.187
REMARK  Name = 
REMARK  5 active torsions:
REMARK  status: ('A' for Active; 'I' for Inactive)
REMARK    1  A    between atoms: C_1  and  O_2
REMARK    2  A    between atoms: O_2  and  C_3
REMARK    3  A    between atoms: C_9  and  N_10
REMARK    4  A    between atoms: N_10  and  C_11
REMARK    5  A    between atoms: C_12  and  C_14
REMARK                            x       y       z     vdW  Elec       q    Type
REMARK                         _______ _______ _______ _____ _____    ______ ____
ROOT
ATOM      1  C   UNL     1       1.470   8.952  19.613  0.00  0.00    +0.000 A 
ATOM      2  C   UNL     1       2.350   8.637  18.595  0.00  0.00    +0.000 A 
ATOM      3  C   UNL     1       2.766   7.256  18.599  0.00  0.00    +0.000 A 
ATOM      4  C   UNL     1       2.235   6.563  19.669  0.00  0.00    +0.000 A 
ATOM      5  S   UNL     1       1.132   7.539  20.536  0.00  0.00    +0.000 S 
ATOM      6  C   UNL     1       2.546   5.179  20.073  0.00  0.00    +0.000 A 
ATOM      7  C   UNL     1       2.038   4.603  21.252  0.00  0.00    +0.000 A 
ATOM      8  C   UNL     1       2.368   3.300  21.642  0.00  0.00    +0.000 A 
ATOM      9  C   UNL     1       3.220   2.527  20.860  0.00  0.00    +0.000 A 
ATOM     10  C   UNL     1       3.743   3.066  19.690  0.00  0.00    +0.000 A 
ATOM     11  C   UNL     1       3.408   4.381  19.309  0.00  0.00    +0.000 A 
ATOM     12  S   UNL     1       4.158   4.974  17.821  0.00  0.00    +0.000 S 
ATOM     13  O   UNL     1       5.592   4.919  18.047  0.00  0.00    +0.000 OA
ATOM     14  O   UNL     1       3.556   4.209  16.742  0.00  0.00    +0.000 OA
ATOM     15  C   UNL     1       3.712   6.679  17.599  0.00  0.00    +0.000 C 
ENDROOT
BRANCH   1  18
ATOM     16  N   UNL     1      -0.209  10.834  19.398  0.00  0.00    +0.000 N 
ATOM     17  C   UNL     1      -0.747  10.271  18.166  0.00  0.00    +0.000 C 
ATOM     18  C   UNL     1       0.879  10.217  20.089  0.00  0.00    +0.000 C 
ATOM     19  O   UNL     1       1.376  10.742  21.089  0.00  0.00    +0.000 OA
BRANCH  16  26
ATOM     20  C   UNL     1      -0.437  13.378  19.536  0.00  0.00    +0.000 A 
ATOM     21  C   UNL     1      -1.109  14.497  20.075  0.00  0.00    +0.000 A 
ATOM     22  C   UNL     1      -2.133  14.350  21.005  0.00  0.00    +0.000 A 
ATOM     23  C   UNL     1      -2.524  13.079  21.381  0.00  0.00    +0.000 A 
ATOM     24 CL   UNL     1      -3.797  12.884  22.523  0.00  0.00    +0.000 Cl
ATOM     25  C   UNL     1      -1.901  11.957  20.829  0.00  0.00    +0.000 A 
ATOM     26  C   UNL     1      -0.830  12.062  19.914  0.00  0.00    +0.000 A 
BRANCH  20  28
ATOM     27  C   UNL     1       1.901  13.819  19.254  0.00  0.00    +0.000 C 
ATOM     28  O   UNL     1       0.628  13.530  18.677  0.00  0.00    +0.000 OA
ENDBRANCH  20  28
ENDBRANCH  16  26
ENDBRANCH   1  18
TORSDOF 3
ENDMDL
MODEL 9
REMARK VINA RESULT:      -7.0      1.935      2.436
REMARK  Name = 
REMARK  5 active torsions:
REMARK  status: ('A' for Active; 'I' for Inactive)
REMARK    1  A    between atoms: C_1  and  O_2
REMARK    2  A    between atoms: O_2  and  C_3
REMARK    3  A    between atoms: C_9  and  N_10
REMARK    4  A    between atoms: N_10  and  C_11
REMARK    5  A    between atoms: C_12  and  C_14
REMARK                            x       y       z     vdW  Elec       q    Type
REMARK                         _______ _______ _______ _____ _____    ______ ____
ROOT
ATOM      1  C   UNL     1       1.858   7.572  19.876  0.00  0.00    +0.000 A 
ATOM      2  C   UNL     1       1.840   6.263  20.319  0.00  0.00    +0.000 A 
ATOM      3  C   UNL     1       2.725   5.393  19.584  0.00  0.00    +0.000 A 
ATOM      4  C   UNL     1       3.354   6.057  18.548  0.00  0.00    +0.000 A 
ATOM      5  S   UNL     1       2.993   7.726  18.591  0.00  0.00    +0.000 S 
ATOM      6  C   UNL     1       4.215   5.464  17.508  0.00  0.00    +0.000 A 
ATOM      7  C   UNL     1       4.714   6.211  16.425  0.00  0.00    +0.000 A 
ATOM      8  C   UNL     1       5.503   5.630  15.425  0.00  0.00    +0.000 A 
ATOM      9  C   UNL     1       5.820   4.277  15.478  0.00  0.00    +0.000 A 
ATOM     10  C   UNL     1       5.341   3.509  16.534  0.00  0.00    +0.000 A 
ATOM     11  C   UNL     1       4.544   4.103  17.533  0.00  0.00    +0.000 A 
ATOM     12  S   UNL     1       3.963   3.023  18.808  0.00  0.00    +0.000 S 
ATOM     13  O   UNL     1       3.169   2.006  18.139  0.00  0.00    +0.000 OA
ATOM     14  O   UNL     1       5.138   2.648  19.575  0.00  0.00    +0.000 OA
ATOM     15  C   UNL     1       2.878   3.938  19.877  0.00  0.00    +0.000 C 
ENDROOT
BRANCH   1  18
ATOM     16  N   UNL     1       0.865   9.818  19.261  0.00  0.00    +0.000 N 
ATOM     17  C   UNL     1       1.482   9.777  17.941  0.00  0.00    +0.000 C 
ATOM     18  C   UNL     1       1.063   8.769  20.212  0.00  0.00    +0.000 C 
ATOM     19  O   UNL     1       0.600   8.849  21.352  0.00  0.00    +0.000 OA
BRANCH  16  26
ATOM     20  C   UNL     1      -1.344  11.105  19.201  0.00  0.00    +0.000 A 
ATOM     21  C   UNL     1      -2.078  12.252  19.577  0.00  0.00    +0.000 A 
ATOM     22  C   UNL     1      -1.486  13.291  20.287  0.00  0.00    +0.000 A 
ATOM     23  C   UNL     1      -0.161  13.180  20.665  0.00  0.00    +0.000 A 
ATOM     24 CL   UNL     1       0.579  14.455  21.555  0.00  0.00    +0.000 Cl
ATOM     25  C   UNL     1       0.571  12.036  20.340  0.00  0.00    +0.000 A 
ATOM     26  C   UNL     1       0.022  10.977  19.585  0.00  0.00    +0.000 A 
BRANCH  20  28
ATOM     27  C   UNL     1      -2.246  10.444  17.082  0.00  0.00    +0.000 C 
ATOM     28  O   UNL     1      -1.911  10.116  18.430  0.00  0.00    +0.000 OA
ENDBRANCH  20  28
ENDBRANCH  16  26
ENDBRANCH   1  18
TORSDOF 3
ENDMDL
