MODEL 1
REMARK VINA RESULT:      -7.6      0.000      0.000
REMARK  Name = 
REMARK  8 active torsions:
REMARK  status: ('A' for Active; 'I' for Inactive)
REMARK    1  A    between atoms: C_1  and  C_2
REMARK    2  A    between atoms: C_2  and  C_3
REMARK    3  A    between atoms: C_3  and  C_4
REMARK    4  A    between atoms: C_3  and  C_6
REMARK    5  A    between atoms: C_4  and  C_5
REMARK    6  A    between atoms: C_6  and  N_7
REMARK    7  A    between atoms: C_14  and  C_15
REMARK    8  A    between atoms: C_19  and  N_20
REMARK                            x       y       z     vdW  Elec       q    Type
REMARK                         _______ _______ _______ _____ _____    ______ ____
ROOT
ATOM      1  N   UNL     1       5.509   4.305  17.881  0.00  0.00    +0.000 N 
ATOM      2  C   UNL     1       4.863   3.213  17.170  0.00  0.00    +0.000 C 
ATOM      3  C   UNL     1       3.494   3.118  17.808  0.00  0.00    +0.000 C 
ATOM      4  C   UNL     1       2.880   1.887  18.383  0.00  0.00    +0.000 C 
ATOM      5  C   UNL     1       1.590   2.217  18.548  0.00  0.00    +0.000 C 
ATOM      6  C   UNL     1       1.379   3.601  17.955  0.00  0.00    +0.000 C 
ATOM      7  O   UNL     1       2.407   3.488  16.905  0.00  0.00    +0.000 OA
ATOM      8  C   UNL     1       2.049   4.808  18.625  0.00  0.00    +0.000 C 
ATOM      9  C   UNL     1       3.424   4.208  18.900  0.00  0.00    +0.000 C 
ATOM     10  C   UNL     1       4.647   5.037  18.684  0.00  0.00    +0.000 C 
ATOM     11  O   UNL     1       4.893   6.089  19.236  0.00  0.00    +0.000 OA
ENDROOT
BRANCH   8  12
ATOM     12  C   UNL     1       1.485   5.412  19.878  0.00  0.00    +0.000 C 
ATOM     13  O   UNL     1       0.834   4.778  20.699  0.00  0.00    +0.000 OA
ATOM     14  N   UNL     1       1.944   6.709  20.053  0.00  0.00    +0.000 N 
ATOM     15  C   UNL     1       1.928   7.523  21.265  0.00  0.00    +0.000 C 
ATOM     16  C   UNL     1       1.410   8.704  20.420  0.00  0.00    +0.000 C 
ATOM     17  C   UNL     1       1.648   7.848  19.170  0.00  0.00    +0.000 C 
BRANCH  16  18
ATOM     18  N   UNL     1       0.019   9.011  20.805  0.00  0.00    +0.000 NA
ATOM     19  C   UNL     1      -0.571  10.309  20.456  0.00  0.00    +0.000 C 
ATOM     20  C   UNL     1      -0.462  11.397  21.536  0.00  0.00    +0.000 C 
ATOM     21  O   UNL     1      -0.876  10.920  22.822  0.00  0.00    +0.000 OA
ATOM     22  C   UNL     1      -0.118   9.766  23.200  0.00  0.00    +0.000 C 
ATOM     23  C   UNL     1      -0.304   8.632  22.185  0.00  0.00    +0.000 C 
ENDBRANCH  16  18
ENDBRANCH   8  12
BRANCH   1  24
ATOM     24  C   UNL     1       6.926   4.601  17.761  0.00  0.00    +0.000 C 
BRANCH  24  25
ATOM     25  C   UNL     1       7.234   5.623  16.635  0.00  0.00    +0.000 C 
BRANCH  25  27
ATOM     26  C   UNL     1       6.675   4.490  14.386  0.00  0.00    +0.000 C 
ATOM     27  C   UNL     1       6.245   5.492  15.451  0.00  0.00    +0.000 C 
ENDBRANCH  25  27
BRANCH  25  28
ATOM     28  C   UNL     1       7.315   7.054  17.208  0.00  0.00    +0.000 C 
ATOM     29  C   UNL     1       8.123   7.184  18.493  0.00  0.00    +0.000 C 
ENDBRANCH  25  28
ENDBRANCH  24  25
ENDBRANCH   1  24
TORSDOF 6
ENDMDL
MODEL 2
REMARK VINA RESULT:      -7.3      3.395      5.737
REMARK  Name = 
REMARK  8 active torsions:
REMARK  status: ('A' for Active; 'I' for Inactive)
REMARK    1  A    between atoms: C_1  and  C_2
REMARK    2  A    between atoms: C_2  and  C_3
REMARK    3  A    between atoms: C_3  and  C_4
REMARK    4  A    between atoms: C_3  and  C_6
REMARK    5  A    between atoms: C_4  and  C_5
REMARK    6  A    between atoms: C_6  and  N_7
REMARK    7  A    between atoms: C_14  and  C_15
REMARK    8  A    between atoms: C_19  and  N_20
REMARK                            x       y       z     vdW  Elec       q    Type
REMARK                         _______ _______ _______ _____ _____    ______ ____
ROOT
ATOM      1  N   UNL     1       6.570   4.387  14.022  0.00  0.00    +0.000 N 
ATOM      2  C   UNL     1       7.733   4.757  14.814  0.00  0.00    +0.000 C 
ATOM      3  C   UNL     1       7.146   5.281  16.106  0.00  0.00    +0.000 C 
ATOM      4  C   UNL     1       7.447   6.600  16.731  0.00  0.00    +0.000 C 
ATOM      5  C   UNL     1       6.945   6.492  17.971  0.00  0.00    +0.000 C 
ATOM      6  C   UNL     1       6.452   5.065  18.155  0.00  0.00    +0.000 C 
ATOM      7  O   UNL     1       7.438   4.434  17.260  0.00  0.00    +0.000 OA
ATOM      8  C   UNL     1       5.247   4.582  17.338  0.00  0.00    +0.000 C 
ATOM      9  C   UNL     1       5.610   5.181  15.983  0.00  0.00    +0.000 C 
ATOM     10  C   UNL     1       5.382   4.386  14.740  0.00  0.00    +0.000 C 
ATOM     11  O   UNL     1       4.313   3.952  14.365  0.00  0.00    +0.000 OA
ENDROOT
BRANCH   8  12
ATOM     12  C   UNL     1       3.847   4.965  17.718  0.00  0.00    +0.000 C 
ATOM     13  O   UNL     1       3.512   6.112  17.990  0.00  0.00    +0.000 OA
ATOM     14  N   UNL     1       2.977   3.899  17.549  0.00  0.00    +0.000 N 
ATOM     15  C   UNL     1       1.519   3.917  17.471  0.00  0.00    +0.000 C 
ATOM     16  C   UNL     1       1.490   2.715  18.436  0.00  0.00    +0.000 C 
ATOM     17  C   UNL     1       3.015   2.636  18.303  0.00  0.00    +0.000 C 
BRANCH  16  18
ATOM     18  N   UNL     1       0.920   3.136  19.730  0.00  0.00    +0.000 NA
ATOM     19  C   UNL     1       1.068   4.525  20.181  0.00  0.00    +0.000 C 
ATOM     20  C   UNL     1       2.279   4.801  21.087  0.00  0.00    +0.000 C 
ATOM     21  O   UNL     1       2.378   3.852  22.154  0.00  0.00    +0.000 OA
ATOM     22  C   UNL     1       2.437   2.517  21.638  0.00  0.00    +0.000 C 
ATOM     23  C   UNL     1       1.182   2.190  20.821  0.00  0.00    +0.000 C 
ENDBRANCH  16  18
ENDBRANCH   8  12
BRANCH   1  24
ATOM     24  C   UNL     1       6.645   4.052  12.611  0.00  0.00    +0.000 C 
BRANCH  24  25
ATOM     25  C   UNL     1       5.469   3.154  12.143  0.00  0.00    +0.000 C 
BRANCH  25  27
ATOM     26  C   UNL     1       3.298   3.106  10.751  0.00  0.00    +0.000 C 
ATOM     27  C   UNL     1       4.548   3.888  11.138  0.00  0.00    +0.000 C 
ENDBRANCH  25  27
BRANCH  25  28
ATOM     28  C   UNL     1       5.995   1.801  11.616  0.00  0.00    +0.000 C 
ATOM     29  C   UNL     1       7.413   1.838  11.064  0.00  0.00    +0.000 C 
ENDBRANCH  25  28
ENDBRANCH  24  25
ENDBRANCH   1  24
TORSDOF 6
ENDMDL
MODEL 3
REMARK VINA RESULT:      -7.2      2.795      8.629
REMARK  Name = 
REMARK  8 active torsions:
REMARK  status: ('A' for Active; 'I' for Inactive)
REMARK    1  A    between atoms: C_1  and  C_2
REMARK    2  A    between atoms: C_2  and  C_3
REMARK    3  A    between atoms: C_3  and  C_4
REMARK    4  A    between atoms: C_3  and  C_6
REMARK    5  A    between atoms: C_4  and  C_5
REMARK    6  A    between atoms: C_6  and  N_7
REMARK    7  A    between atoms: C_14  and  C_15
REMARK    8  A    between atoms: C_19  and  N_20
REMARK                            x       y       z     vdW  Elec       q    Type
REMARK                         _______ _______ _______ _____ _____    ______ ____
ROOT
ATOM      1  N   UNL     1      -0.935  10.931  18.979  0.00  0.00    +0.000 N 
ATOM      2  C   UNL     1      -0.771  11.517  20.300  0.00  0.00    +0.000 C 
ATOM      3  C   UNL     1      -0.086  10.432  21.101  0.00  0.00    +0.000 C 
ATOM      4  C   UNL     1      -0.548   9.887  22.409  0.00  0.00    +0.000 C 
ATOM      5  C   UNL     1       0.506   9.188  22.859  0.00  0.00    +0.000 C 
ATOM      6  C   UNL     1       1.661   9.409  21.894  0.00  0.00    +0.000 C 
ATOM      7  O   UNL     1       1.280  10.773  21.491  0.00  0.00    +0.000 OA
ATOM      8  C   UNL     1       1.559   8.848  20.470  0.00  0.00    +0.000 C 
ATOM      9  C   UNL     1       0.114   9.226  20.157  0.00  0.00    +0.000 C 
ATOM     10  C   UNL     1      -0.235   9.746  18.802  0.00  0.00    +0.000 C 
ATOM     11  O   UNL     1      -0.065   9.158  17.755  0.00  0.00    +0.000 OA
ENDROOT
BRANCH   8  12
ATOM     12  C   UNL     1       1.787   7.391  20.190  0.00  0.00    +0.000 C 
ATOM     13  O   UNL     1       1.478   6.498  20.970  0.00  0.00    +0.000 OA
ATOM     14  N   UNL     1       2.221   7.198  18.888  0.00  0.00    +0.000 N 
ATOM     15  C   UNL     1       2.236   5.964  18.107  0.00  0.00    +0.000 C 
ATOM     16  C   UNL     1       3.668   6.312  17.654  0.00  0.00    +0.000 C 
ATOM     17  C   UNL     1       3.496   7.677  18.331  0.00  0.00    +0.000 C 
BRANCH  16  18
ATOM     18  N   UNL     1       4.619   5.351  18.246  0.00  0.00    +0.000 NA
ATOM     19  C   UNL     1       5.867   5.829  18.851  0.00  0.00    +0.000 C 
ATOM     20  C   UNL     1       7.091   5.843  17.920  0.00  0.00    +0.000 C 
ATOM     21  O   UNL     1       7.246   4.604  17.220  0.00  0.00    +0.000 OA
ATOM     22  C   UNL     1       6.061   4.291  16.479  0.00  0.00    +0.000 C 
ATOM     23  C   UNL     1       4.850   4.166  17.411  0.00  0.00    +0.000 C 
ENDBRANCH  16  18
ENDBRANCH   8  12
BRANCH   1  24
ATOM     24  C   UNL     1      -1.758  11.529  17.943  0.00  0.00    +0.000 C 
BRANCH  24  25
ATOM     25  C   UNL     1      -3.135  10.832  17.790  0.00  0.00    +0.000 C 
BRANCH  25  27
ATOM     26  C   UNL     1      -5.686  11.206  17.863  0.00  0.00    +0.000 C 
ATOM     27  C   UNL     1      -4.303  11.846  17.832  0.00  0.00    +0.000 C 
ENDBRANCH  25  27
BRANCH  25  28
ATOM     28  C   UNL     1      -3.152   9.931  16.535  0.00  0.00    +0.000 C 
ATOM     29  C   UNL     1      -2.908  10.661  15.221  0.00  0.00    +0.000 C 
ENDBRANCH  25  28
ENDBRANCH  24  25
ENDBRANCH   1  24
TORSDOF 6
ENDMDL
MODEL 4
REMARK VINA RESULT:      -7.1      2.115      2.990
REMARK  Name = 
REMARK  8 active torsions:
REMARK  status: ('A' for Active; 'I' for Inactive)
REMARK    1  A    between atoms: C_1  and  C_2
REMARK    2  A    between atoms: C_2  and  C_3
REMARK    3  A    between atoms: C_3  and  C_4
REMARK    4  A    between atoms: C_3  and  C_6
REMARK    5  A    between atoms: C_4  and  C_5
REMARK    6  A    between atoms: C_6  and  N_7
REMARK    7  A    between atoms: C_14  and  C_15
REMARK    8  A    between atoms: C_19  and  N_20
REMARK                            x       y       z     vdW  Elec       q    Type
REMARK                         _______ _______ _______ _____ _____    ______ ____
ROOT
ATOM      1  N   UNL     1       4.357   3.966  17.200  0.00  0.00    +0.000 N 
ATOM      2  C   UNL     1       3.684   2.898  17.922  0.00  0.00    +0.000 C 
ATOM      3  C   UNL     1       2.986   3.608  19.062  0.00  0.00    +0.000 C 
ATOM      4  C   UNL     1       3.102   3.266  20.507  0.00  0.00    +0.000 C 
ATOM      5  C   UNL     1       2.102   3.952  21.083  0.00  0.00    +0.000 C 
ATOM      6  C   UNL     1       1.289   4.611  19.979  0.00  0.00    +0.000 C 
ATOM      7  O   UNL     1       1.529   3.576  18.958  0.00  0.00    +0.000 OA
ATOM      8  C   UNL     1       1.931   5.728  19.147  0.00  0.00    +0.000 C 
ATOM      9  C   UNL     1       3.310   5.113  18.927  0.00  0.00    +0.000 C 
ATOM     10  C   UNL     1       3.970   5.239  17.594  0.00  0.00    +0.000 C 
ATOM     11  O   UNL     1       4.245   6.282  17.039  0.00  0.00    +0.000 OA
ENDROOT
BRANCH   8  12
ATOM     12  C   UNL     1       2.064   7.122  19.689  0.00  0.00    +0.000 C 
ATOM     13  O   UNL     1       2.337   7.368  20.858  0.00  0.00    +0.000 OA
ATOM     14  N   UNL     1       2.011   8.058  18.668  0.00  0.00    +0.000 N 
ATOM     15  C   UNL     1       2.428   9.458  18.695  0.00  0.00    +0.000 C 
ATOM     16  C   UNL     1       1.113   9.823  17.978  0.00  0.00    +0.000 C 
ATOM     17  C   UNL     1       0.846   8.323  17.810  0.00  0.00    +0.000 C 
BRANCH  16  18
ATOM     18  N   UNL     1       0.250  10.591  18.896  0.00  0.00    +0.000 NA
ATOM     19  C   UNL     1      -1.184  10.729  18.614  0.00  0.00    +0.000 C 
ATOM     20  C   UNL     1      -1.586  11.991  17.833  0.00  0.00    +0.000 C 
ATOM     21  O   UNL     1      -1.008  13.175  18.393  0.00  0.00    +0.000 OA
ATOM     22  C   UNL     1       0.418  13.061  18.453  0.00  0.00    +0.000 C 
ATOM     23  C   UNL     1       0.836  11.868  19.320  0.00  0.00    +0.000 C 
ENDBRANCH  16  18
ENDBRANCH   8  12
BRANCH   1  24
ATOM     24  C   UNL     1       5.344   3.723  16.163  0.00  0.00    +0.000 C 
BRANCH  24  25
ATOM     25  C   UNL     1       6.473   4.786  16.146  0.00  0.00    +0.000 C 
BRANCH  25  27
ATOM     26  C   UNL     1       7.576   5.581  18.338  0.00  0.00    +0.000 C 
ATOM     27  C   UNL     1       7.532   4.521  17.243  0.00  0.00    +0.000 C 
ENDBRANCH  25  27
BRANCH  25  28
ATOM     28  C   UNL     1       7.079   4.913  14.730  0.00  0.00    +0.000 C 
ATOM     29  C   UNL     1       6.417   4.042  13.672  0.00  0.00    +0.000 C 
ENDBRANCH  25  28
ENDBRANCH  24  25
ENDBRANCH   1  24
TORSDOF 6
ENDMDL
MODEL 5
REMARK VINA RESULT:      -7.0      3.313      6.598
REMARK  Name = 
REMARK  8 active torsions:
REMARK  status: ('A' for Active; 'I' for Inactive)
REMARK    1  A    between atoms: C_1  and  C_2
REMARK    2  A    between atoms: C_2  and  C_3
REMARK    3  A    between atoms: C_3  and  C_4
REMARK    4  A    between atoms: C_3  and  C_6
REMARK    5  A    between atoms: C_4  and  C_5
REMARK    6  A    between atoms: C_6  and  N_7
REMARK    7  A    between atoms: C_14  and  C_15
REMARK    8  A    between atoms: C_19  and  N_20
REMARK                            x       y       z     vdW  Elec       q    Type
REMARK                         _______ _______ _______ _____ _____    ______ ____
ROOT
ATOM      1  N   UNL     1       1.954   8.049  19.349  0.00  0.00    +0.000 N 
ATOM      2  C   UNL     1       1.698   8.819  18.142  0.00  0.00    +0.000 C 
ATOM      3  C   UNL     1       0.614   9.792  18.549  0.00  0.00    +0.000 C 
ATOM      4  C   UNL     1      -0.687   9.995  17.851  0.00  0.00    +0.000 C 
ATOM      5  C   UNL     1      -1.165  11.131  18.381  0.00  0.00    +0.000 C 
ATOM      6  C   UNL     1      -0.102  11.699  19.309  0.00  0.00    +0.000 C 
ATOM      7  O   UNL     1       1.060  11.183  18.564  0.00  0.00    +0.000 OA
ATOM      8  C   UNL     1       0.252  10.936  20.592  0.00  0.00    +0.000 C 
ATOM      9  C   UNL     1       0.290   9.517  20.035  0.00  0.00    +0.000 C 
ATOM     10  C   UNL     1       1.357   8.575  20.485  0.00  0.00    +0.000 C 
ATOM     11  O   UNL     1       1.555   8.229  21.631  0.00  0.00    +0.000 OA
ENDROOT
BRANCH   8  12
ATOM     12  C   UNL     1      -0.636  10.997  21.801  0.00  0.00    +0.000 C 
ATOM     13  O   UNL     1      -0.797  10.055  22.568  0.00  0.00    +0.000 OA
ATOM     14  N   UNL     1      -1.092  12.288  22.016  0.00  0.00    +0.000 N 
ATOM     15  C   UNL     1      -1.680  12.855  23.227  0.00  0.00    +0.000 C 
ATOM     16  C   UNL     1      -2.770  13.503  22.350  0.00  0.00    +0.000 C 
ATOM     17  C   UNL     1      -1.981  13.042  21.118  0.00  0.00    +0.000 C 
BRANCH  16  18
ATOM     18  N   UNL     1      -4.070  12.862  22.629  0.00  0.00    +0.000 NA
ATOM     19  C   UNL     1      -5.026  12.635  21.540  0.00  0.00    +0.000 C 
ATOM     20  C   UNL     1      -6.075  13.741  21.338  0.00  0.00    +0.000 C 
ATOM     21  O   UNL     1      -6.705  14.114  22.569  0.00  0.00    +0.000 OA
ATOM     22  C   UNL     1      -5.728  14.524  23.532  0.00  0.00    +0.000 C 
ATOM     23  C   UNL     1      -4.738  13.391  23.825  0.00  0.00    +0.000 C 
ENDBRANCH  16  18
ENDBRANCH   8  12
BRANCH   1  24
ATOM     24  C   UNL     1       2.759   6.840  19.363  0.00  0.00    +0.000 C 
BRANCH  24  25
ATOM     25  C   UNL     1       1.913   5.552  19.186  0.00  0.00    +0.000 C 
BRANCH  25  27
ATOM     26  C   UNL     1       3.776   5.129  17.453  0.00  0.00    +0.000 C 
ATOM     27  C   UNL     1       2.443   4.667  18.033  0.00  0.00    +0.000 C 
ENDBRANCH  25  27
BRANCH  25  28
ATOM     28  C   UNL     1       1.787   4.797  20.528  0.00  0.00    +0.000 C 
ATOM     29  C   UNL     1       1.081   3.451  20.440  0.00  0.00    +0.000 C 
ENDBRANCH  25  28
ENDBRANCH  24  25
ENDBRANCH   1  24
TORSDOF 6
ENDMDL
MODEL 6
REMARK VINA RESULT:      -7.0      2.602      8.543
REMARK  Name = 
REMARK  8 active torsions:
REMARK  status: ('A' for Active; 'I' for Inactive)
REMARK    1  A    between atoms: C_1  and  C_2
REMARK    2  A    between atoms: C_2  and  C_3
REMARK    3  A    between atoms: C_3  and  C_4
REMARK    4  A    between atoms: C_3  and  C_6
REMARK    5  A    between atoms: C_4  and  C_5
REMARK    6  A    between atoms: C_6  and  N_7
REMARK    7  A    between atoms: C_14  and  C_15
REMARK    8  A    between atoms: C_19  and  N_20
REMARK                            x       y       z     vdW  Elec       q    Type
REMARK                         _______ _______ _______ _____ _____    ______ ____
ROOT
ATOM      1  N   UNL     1      -0.673  11.199  18.995  0.00  0.00    +0.000 N 
ATOM      2  C   UNL     1      -0.596  11.704  20.357  0.00  0.00    +0.000 C 
ATOM      3  C   UNL     1      -0.045  10.540  21.150  0.00  0.00    +0.000 C 
ATOM      4  C   UNL     1      -0.650   9.954  22.379  0.00  0.00    +0.000 C 
ATOM      5  C   UNL     1       0.321   9.173  22.877  0.00  0.00    +0.000 C 
ATOM      6  C   UNL     1       1.568   9.378  22.031  0.00  0.00    +0.000 C 
ATOM      7  O   UNL     1       1.297  10.782  21.676  0.00  0.00    +0.000 OA
ATOM      8  C   UNL     1       1.565   8.901  20.572  0.00  0.00    +0.000 C 
ATOM      9  C   UNL     1       0.176   9.377  20.158  0.00  0.00    +0.000 C 
ATOM     10  C   UNL     1      -0.022   9.987  18.811  0.00  0.00    +0.000 C 
ATOM     11  O   UNL     1       0.210   9.447  17.750  0.00  0.00    +0.000 OA
ENDROOT
BRANCH   8  12
ATOM     12  C   UNL     1       1.742   7.450  20.230  0.00  0.00    +0.000 C 
ATOM     13  O   UNL     1       1.404   6.536  20.972  0.00  0.00    +0.000 OA
ATOM     14  N   UNL     1       2.164   7.298  18.918  0.00  0.00    +0.000 N 
ATOM     15  C   UNL     1       2.132   6.099  18.085  0.00  0.00    +0.000 C 
ATOM     16  C   UNL     1       3.574   6.416  17.640  0.00  0.00    +0.000 C 
ATOM     17  C   UNL     1       3.452   7.756  18.376  0.00  0.00    +0.000 C 
BRANCH  16  18
ATOM     18  N   UNL     1       4.492   5.397  18.185  0.00  0.00    +0.000 NA
ATOM     19  C   UNL     1       5.824   5.788  18.662  0.00  0.00    +0.000 C 
ATOM     20  C   UNL     1       6.957   5.669  17.630  0.00  0.00    +0.000 C 
ATOM     21  O   UNL     1       6.949   4.400  16.968  0.00  0.00    +0.000 OA
ATOM     22  C   UNL     1       5.682   4.164  16.344  0.00  0.00    +0.000 C 
ATOM     23  C   UNL     1       4.551   4.172  17.380  0.00  0.00    +0.000 C 
ENDBRANCH  16  18
ENDBRANCH   8  12
BRANCH   1  24
ATOM     24  C   UNL     1      -1.366  11.898  17.928  0.00  0.00    +0.000 C 
BRANCH  24  25
ATOM     25  C   UNL     1      -2.873  11.539  17.853  0.00  0.00    +0.000 C 
BRANCH  25  27
ATOM     26  C   UNL     1      -2.852   9.792  15.956  0.00  0.00    +0.000 C 
ATOM     27  C   UNL     1      -3.095  10.065  17.436  0.00  0.00    +0.000 C 
ENDBRANCH  25  27
BRANCH  25  28
ATOM     28  C   UNL     1      -3.587  11.915  19.171  0.00  0.00    +0.000 C 
ATOM     29  C   UNL     1      -5.070  12.227  19.028  0.00  0.00    +0.000 C 
ENDBRANCH  25  28
ENDBRANCH  24  25
ENDBRANCH   1  24
TORSDOF 6
ENDMDL
MODEL 7
REMARK VINA RESULT:      -7.0      3.572      6.160
REMARK  Name = 
REMARK  8 active torsions:
REMARK  status: ('A' for Active; 'I' for Inactive)
REMARK    1  A    between atoms: C_1  and  C_2
REMARK    2  A    between atoms: C_2  and  C_3
REMARK    3  A    between atoms: C_3  and  C_4
REMARK    4  A    between atoms: C_3  and  C_6
REMARK    5  A    between atoms: C_4  and  C_5
REMARK    6  A    between atoms: C_6  and  N_7
REMARK    7  A    between atoms: C_14  and  C_15
REMARK    8  A    between atoms: C_19  and  N_20
REMARK                            x       y       z     vdW  Elec       q    Type
REMARK                         _______ _______ _______ _____ _____    ______ ____
ROOT
ATOM      1  N   UNL     1       2.388   7.709  18.913  0.00  0.00    +0.000 N 
ATOM      2  C   UNL     1       2.227   7.340  20.310  0.00  0.00    +0.000 C 
ATOM      3  C   UNL     1       1.304   8.402  20.867  0.00  0.00    +0.000 C 
ATOM      4  C   UNL     1       1.561   9.241  22.071  0.00  0.00    +0.000 C 
ATOM      5  C   UNL     1       0.370   9.799  22.336  0.00  0.00    +0.000 C 
ATOM      6  C   UNL     1      -0.651   9.204  21.379  0.00  0.00    +0.000 C 
ATOM      7  O   UNL     1      -0.008   7.885  21.252  0.00  0.00    +0.000 OA
ATOM      8  C   UNL     1      -0.539   9.518  19.881  0.00  0.00    +0.000 C 
ATOM      9  C   UNL     1       0.969   9.367  19.708  0.00  0.00    +0.000 C 
ATOM     10  C   UNL     1       1.507   8.694  18.489  0.00  0.00    +0.000 C 
ATOM     11  O   UNL     1       1.319   9.050  17.345  0.00  0.00    +0.000 OA
ENDROOT
BRANCH   8  12
ATOM     12  C   UNL     1      -0.997  10.837  19.328  0.00  0.00    +0.000 C 
ATOM     13  O   UNL     1      -0.534  11.914  19.682  0.00  0.00    +0.000 OA
ATOM     14  N   UNL     1      -1.865  10.653  18.263  0.00  0.00    +0.000 N 
ATOM     15  C   UNL     1      -2.271  11.616  17.243  0.00  0.00    +0.000 C 
ATOM     16  C   UNL     1      -3.728  11.151  17.437  0.00  0.00    +0.000 C 
ATOM     17  C   UNL     1      -3.197  10.033  18.342  0.00  0.00    +0.000 C 
BRANCH  16  18
ATOM     18  N   UNL     1      -4.513  12.238  18.052  0.00  0.00    +0.000 NA
ATOM     19  C   UNL     1      -4.741  12.251  19.502  0.00  0.00    +0.000 C 
ATOM     20  C   UNL     1      -6.048  11.591  19.971  0.00  0.00    +0.000 C 
ATOM     21  O   UNL     1      -7.180  12.049  19.222  0.00  0.00    +0.000 OA
ATOM     22  C   UNL     1      -6.983  11.820  17.822  0.00  0.00    +0.000 C 
ATOM     23  C   UNL     1      -5.741  12.563  17.315  0.00  0.00    +0.000 C 
ENDBRANCH  16  18
ENDBRANCH   8  12
BRANCH   1  24
ATOM     24  C   UNL     1       3.380   7.103  18.042  0.00  0.00    +0.000 C 
BRANCH  24  25
ATOM     25  C   UNL     1       3.478   5.566  18.221  0.00  0.00    +0.000 C 
BRANCH  25  27
ATOM     26  C   UNL     1       2.302   3.444  17.346  0.00  0.00    +0.000 C 
ATOM     27  C   UNL     1       2.142   4.859  17.890  0.00  0.00    +0.000 C 
ENDBRANCH  25  27
BRANCH  25  28
ATOM     28  C   UNL     1       4.680   5.003  17.430  0.00  0.00    +0.000 C 
ATOM     29  C   UNL     1       5.109   5.844  16.236  0.00  0.00    +0.000 C 
ENDBRANCH  25  28
ENDBRANCH  24  25
ENDBRANCH   1  24
TORSDOF 6
ENDMDL
MODEL 8
REMARK VINA RESULT:      -7.0      2.195      2.935
REMARK  Name = 
REMARK  8 active torsions:
REMARK  status: ('A' for Active; 'I' for Inactive)
REMARK    1  A    between atoms: C_1  and  C_2
REMARK    2  A    between atoms: C_2  and  C_3
REMARK    3  A    between atoms: C_3  and  C_4
REMARK    4  A    between atoms: C_3  and  C_6
REMARK    5  A    between atoms: C_4  and  C_5
REMARK    6  A    between atoms: C_6  and  N_7
REMARK    7  A    between atoms: C_14  and  C_15
REMARK    8  A    between atoms: C_19  and  N_20
REMARK                            x       y       z     vdW  Elec       q    Type
REMARK                         _______ _______ _______ _____ _____    ______ ____
ROOT
ATOM      1  N   UNL     1       5.274   4.377  16.537  0.00  0.00    +0.000 N 
ATOM      2  C   UNL     1       4.395   3.234  16.731  0.00  0.00    +0.000 C 
ATOM      3  C   UNL     1       3.380   3.718  17.744  0.00  0.00    +0.000 C 
ATOM      4  C   UNL     1       3.029   3.039  19.023  0.00  0.00    +0.000 C 
ATOM      5  C   UNL     1       1.906   3.657  19.419  0.00  0.00    +0.000 C 
ATOM      6  C   UNL     1       1.491   4.626  18.322  0.00  0.00    +0.000 C 
ATOM      7  O   UNL     1       2.030   3.841  17.198  0.00  0.00    +0.000 OA
ATOM      8  C   UNL     1       2.377   5.845  18.031  0.00  0.00    +0.000 C 
ATOM      9  C   UNL     1       3.747   5.178  18.094  0.00  0.00    +0.000 C 
ATOM     10  C   UNL     1       4.796   5.552  17.100  0.00  0.00    +0.000 C 
ATOM     11  O   UNL     1       5.244   6.666  16.933  0.00  0.00    +0.000 OA
ENDROOT
BRANCH   8  12
ATOM     12  C   UNL     1       2.346   7.056  18.918  0.00  0.00    +0.000 C 
ATOM     13  O   UNL     1       2.613   7.023  20.113  0.00  0.00    +0.000 OA
ATOM     14  N   UNL     1       2.154   8.210  18.175  0.00  0.00    +0.000 N 
ATOM     15  C   UNL     1       2.393   9.596  18.568  0.00  0.00    +0.000 C 
ATOM     16  C   UNL     1       1.027   9.966  17.956  0.00  0.00    +0.000 C 
ATOM     17  C   UNL     1       0.945   8.538  17.402  0.00  0.00    +0.000 C 
BRANCH  16  18
ATOM     18  N   UNL     1       0.096  10.354  19.033  0.00  0.00    +0.000 NA
ATOM     19  C   UNL     1      -1.350  10.382  18.780  0.00  0.00    +0.000 C 
ATOM     20  C   UNL     1      -1.920  11.744  18.352  0.00  0.00    +0.000 C 
ATOM     21  O   UNL     1      -1.480  12.804  19.209  0.00  0.00    +0.000 OA
ATOM     22  C   UNL     1      -0.050  12.855  19.254  0.00  0.00    +0.000 C 
ATOM     23  C   UNL     1       0.530  11.538  19.784  0.00  0.00    +0.000 C 
ENDBRANCH  16  18
ENDBRANCH   8  12
BRANCH   1  24
ATOM     24  C   UNL     1       6.535   4.295  15.823  0.00  0.00    +0.000 C 
BRANCH  24  25
ATOM     25  C   UNL     1       6.408   4.703  14.331  0.00  0.00    +0.000 C 
BRANCH  25  27
ATOM     26  C   UNL     1       7.907   5.412  12.355  0.00  0.00    +0.000 C 
ATOM     27  C   UNL     1       7.631   5.521  13.851  0.00  0.00    +0.000 C 
ENDBRANCH  25  27
BRANCH  25  28
ATOM     28  C   UNL     1       6.118   3.465  13.453  0.00  0.00    +0.000 C 
ATOM     29  C   UNL     1       4.943   3.621  12.497  0.00  0.00    +0.000 C 
ENDBRANCH  25  28
ENDBRANCH  24  25
ENDBRANCH   1  24
TORSDOF 6
ENDMDL
MODEL 9
REMARK VINA RESULT:      -6.8      3.448      6.832
REMARK  Name = 
REMARK  8 active torsions:
REMARK  status: ('A' for Active; 'I' for Inactive)
REMARK    1  A    between atoms: C_1  and  C_2
REMARK    2  A    between atoms: C_2  and  C_3
REMARK    3  A    between atoms: C_3  and  C_4
REMARK    4  A    between atoms: C_3  and  C_6
REMARK    5  A    between atoms: C_4  and  C_5
REMARK    6  A    between atoms: C_6  and  N_7
REMARK    7  A    between atoms: C_14  and  C_15
REMARK    8  A    between atoms: C_19  and  N_20
REMARK                            x       y       z     vdW  Elec       q    Type
REMARK                         _______ _______ _______ _____ _____    ______ ____
ROOT
ATOM      1  N   UNL     1       1.637   8.403  19.511  0.00  0.00    +0.000 N 
ATOM      2  C   UNL     1       1.302   9.106  18.283  0.00  0.00    +0.000 C 
ATOM      3  C   UNL     1       0.249  10.106  18.708  0.00  0.00    +0.000 C 
ATOM      4  C   UNL     1      -1.096  10.277  18.087  0.00  0.00    +0.000 C 
ATOM      5  C   UNL     1      -1.536  11.443  18.585  0.00  0.00    +0.000 C 
ATOM      6  C   UNL     1      -0.412  12.056  19.407  0.00  0.00    +0.000 C 
ATOM      7  O   UNL     1       0.696  11.494  18.615  0.00  0.00    +0.000 OA
ATOM      8  C   UNL     1       0.025  11.363  20.704  0.00  0.00    +0.000 C 
ATOM      9  C   UNL     1       0.024   9.914  20.224  0.00  0.00    +0.000 C 
ATOM     10  C   UNL     1       1.117   8.994  20.654  0.00  0.00    +0.000 C 
ATOM     11  O   UNL     1       1.391   8.710  21.801  0.00  0.00    +0.000 OA
ENDROOT
BRANCH   8  12
ATOM     12  C   UNL     1      -0.780  11.494  21.964  0.00  0.00    +0.000 C 
ATOM     13  O   UNL     1      -1.038  10.550  22.701  0.00  0.00    +0.000 OA
ATOM     14  N   UNL     1      -1.027  12.826  22.257  0.00  0.00    +0.000 N 
ATOM     15  C   UNL     1      -1.460  13.414  23.522  0.00  0.00    +0.000 C 
ATOM     16  C   UNL     1      -2.486  14.255  22.736  0.00  0.00    +0.000 C 
ATOM     17  C   UNL     1      -1.840  13.744  21.444  0.00  0.00    +0.000 C 
BRANCH  16  18
ATOM     18  N   UNL     1      -3.850  13.799  23.066  0.00  0.00    +0.000 NA
ATOM     19  C   UNL     1      -4.682  13.163  22.036  0.00  0.00    +0.000 C 
ATOM     20  C   UNL     1      -5.621  14.107  21.268  0.00  0.00    +0.000 C 
ATOM     21  O   UNL     1      -6.369  14.953  22.149  0.00  0.00    +0.000 OA
ATOM     22  C   UNL     1      -5.491  15.705  22.994  0.00  0.00    +0.000 C 
ATOM     23  C   UNL     1      -4.621  14.773  23.847  0.00  0.00    +0.000 C 
ENDBRANCH  16  18
ENDBRANCH   8  12
BRANCH   1  24
ATOM     24  C   UNL     1       2.439   7.193  19.538  0.00  0.00    +0.000 C 
BRANCH  24  25
ATOM     25  C   UNL     1       2.562   6.521  18.145  0.00  0.00    +0.000 C 
BRANCH  25  27
ATOM     26  C   UNL     1       4.645   5.386  17.133  0.00  0.00    +0.000 C 
ATOM     27  C   UNL     1       3.978   6.694  17.545  0.00  0.00    +0.000 C 
ENDBRANCH  25  27
BRANCH  25  28
ATOM     28  C   UNL     1       2.100   5.049  18.209  0.00  0.00    +0.000 C 
ATOM     29  C   UNL     1       1.737   4.553  19.602  0.00  0.00    +0.000 C 
ENDBRANCH  25  28
ENDBRANCH  24  25
ENDBRANCH   1  24
TORSDOF 6
ENDMDL
