MODEL 1
REMARK VINA RESULT:      -8.1      0.000      0.000
REMARK  Name = 
REMARK  2 active torsions:
REMARK  status: ('A' for Active; 'I' for Inactive)
REMARK    1  A    between atoms: C_5  and  N_6
REMARK    2  A    between atoms: C_10  and  C_11
REMARK                            x       y       z     vdW  Elec       q    Type
REMARK                         _______ _______ _______ _____ _____    ______ ____
ROOT
ATOM      1  N   UNL     1       2.896   7.562  18.090  0.00  0.00    +0.000 N 
ATOM      2  C   UNL     1       2.091   7.993  19.097  0.00  0.00    +0.000 A 
ATOM      3  N   UNL     1       1.921   7.426  20.273  0.00  0.00    +0.000 NA
ATOM      4  N   UNL     1       1.078   8.137  21.101  0.00  0.00    +0.000 NA
ATOM      5  C   UNL     1       0.648   9.254  20.548  0.00  0.00    +0.000 A 
ATOM      6  S   UNL     1       1.168   9.439  18.915  0.00  0.00    +0.000 S 
ATOM      7  H   UNL     1       2.781   8.041  17.202  0.00  0.00    +0.000 HD
ENDROOT
BRANCH   1  12
ATOM      8  C   UNL     1       7.037   4.987  16.434  0.00  0.00    +0.000 A 
ATOM      9  C   UNL     1       6.849   6.297  16.857  0.00  0.00    +0.000 A 
ATOM     10  C   UNL     1       5.599   6.707  17.331  0.00  0.00    +0.000 A 
ATOM     11  C   UNL     1       4.504   5.816  17.399  0.00  0.00    +0.000 A 
ATOM     12  C   UNL     1       3.207   6.192  17.860  0.00  0.00    +0.000 A 
ATOM     13  C   UNL     1       2.197   5.219  17.946  0.00  0.00    +0.000 A 
ATOM     14  C   UNL     1       2.444   3.895  17.588  0.00  0.00    +0.000 A 
ATOM     15  C   UNL     1       3.700   3.528  17.111  0.00  0.00    +0.000 A 
ATOM     16  C   UNL     1       4.730   4.469  17.009  0.00  0.00    +0.000 A 
ATOM     17  C   UNL     1       5.983   4.077  16.519  0.00  0.00    +0.000 A 
ENDBRANCH   1  12
BRANCH   5  18
ATOM     18  C   UNL     1      -0.181  10.256  21.236  0.00  0.00    +0.000 A 
ATOM     19  C   UNL     1      -0.486  10.178  22.600  0.00  0.00    +0.000 A 
ATOM     20  C   UNL     1      -1.328  11.131  23.154  0.00  0.00    +0.000 A 
ATOM     21  N   UNL     1      -1.874  12.145  22.457  0.00  0.00    +0.000 NA
ATOM     22  C   UNL     1      -1.575  12.211  21.143  0.00  0.00    +0.000 A 
ATOM     23  C   UNL     1      -0.747  11.305  20.500  0.00  0.00    +0.000 A 
ENDBRANCH   5  18
TORSDOF 2
ENDMDL
MODEL 2
REMARK VINA RESULT:      -8.0      0.186      1.003
REMARK  Name = 
REMARK  2 active torsions:
REMARK  status: ('A' for Active; 'I' for Inactive)
REMARK    1  A    between atoms: C_5  and  N_6
REMARK    2  A    between atoms: C_10  and  C_11
REMARK                            x       y       z     vdW  Elec       q    Type
REMARK                         _______ _______ _______ _____ _____    ______ ____
ROOT
ATOM      1  N   UNL     1       2.909   7.545  18.044  0.00  0.00    +0.000 N 
ATOM      2  C   UNL     1       2.124   7.990  19.062  0.00  0.00    +0.000 A 
ATOM      3  N   UNL     1       1.976   7.437  20.247  0.00  0.00    +0.000 NA
ATOM      4  N   UNL     1       1.152   8.161  21.083  0.00  0.00    +0.000 NA
ATOM      5  C   UNL     1       0.714   9.272  20.526  0.00  0.00    +0.000 A 
ATOM      6  S   UNL     1       1.202   9.436  18.880  0.00  0.00    +0.000 S 
ATOM      7  H   UNL     1       2.777   8.013  17.152  0.00  0.00    +0.000 HD
ENDROOT
BRANCH   1  12
ATOM      8  C   UNL     1       7.028   4.935  16.391  0.00  0.00    +0.000 A 
ATOM      9  C   UNL     1       6.849   6.249  16.804  0.00  0.00    +0.000 A 
ATOM     10  C   UNL     1       5.603   6.670  17.280  0.00  0.00    +0.000 A 
ATOM     11  C   UNL     1       4.504   5.784  17.360  0.00  0.00    +0.000 A 
ATOM     12  C   UNL     1       3.212   6.171  17.824  0.00  0.00    +0.000 A 
ATOM     13  C   UNL     1       2.197   5.204  17.923  0.00  0.00    +0.000 A 
ATOM     14  C   UNL     1       2.436   3.876  17.575  0.00  0.00    +0.000 A 
ATOM     15  C   UNL     1       3.687   3.498  17.096  0.00  0.00    +0.000 A 
ATOM     16  C   UNL     1       4.722   4.434  16.981  0.00  0.00    +0.000 A 
ATOM     17  C   UNL     1       5.971   4.031  16.488  0.00  0.00    +0.000 A 
ENDBRANCH   1  12
BRANCH   5  18
ATOM     18  C   UNL     1      -0.099  10.284  21.218  0.00  0.00    +0.000 A 
ATOM     19  C   UNL     1      -0.404  11.527  20.650  0.00  0.00    +0.000 A 
ATOM     20  C   UNL     1      -1.123  12.447  21.398  0.00  0.00    +0.000 A 
ATOM     21  N   UNL     1      -1.561  12.218  22.651  0.00  0.00    +0.000 NA
ATOM     22  C   UNL     1      -1.261  11.017  23.188  0.00  0.00    +0.000 A 
ATOM     23  C   UNL     1      -0.546  10.035  22.521  0.00  0.00    +0.000 A 
ENDBRANCH   5  18
TORSDOF 2
ENDMDL
MODEL 3
REMARK VINA RESULT:      -7.6      1.872      3.311
REMARK  Name = 
REMARK  2 active torsions:
REMARK  status: ('A' for Active; 'I' for Inactive)
REMARK    1  A    between atoms: C_5  and  N_6
REMARK    2  A    between atoms: C_10  and  C_11
REMARK                            x       y       z     vdW  Elec       q    Type
REMARK                         _______ _______ _______ _____ _____    ______ ____
ROOT
ATOM      1  N   UNL     1       1.834   7.013  20.697  0.00  0.00    +0.000 N 
ATOM      2  C   UNL     1       1.288   8.258  20.665  0.00  0.00    +0.000 A 
ATOM      3  N   UNL     1       0.653   8.819  19.657  0.00  0.00    +0.000 NA
ATOM      4  N   UNL     1       0.165  10.074  19.955  0.00  0.00    +0.000 NA
ATOM      5  C   UNL     1       0.411  10.431  21.200  0.00  0.00    +0.000 A 
ATOM      6  S   UNL     1       1.370   9.279  22.052  0.00  0.00    +0.000 S 
ATOM      7  H   UNL     1       2.418   6.811  21.503  0.00  0.00    +0.000 HD
ENDROOT
BRANCH   1  12
ATOM      8  C   UNL     1       1.532   2.241  18.785  0.00  0.00    +0.000 A 
ATOM      9  C   UNL     1       0.828   2.903  19.783  0.00  0.00    +0.000 A 
ATOM     10  C   UNL     1       1.083   4.253  20.044  0.00  0.00    +0.000 A 
ATOM     11  C   UNL     1       2.049   4.978  19.309  0.00  0.00    +0.000 A 
ATOM     12  C   UNL     1       2.356   6.350  19.549  0.00  0.00    +0.000 A 
ATOM     13  C   UNL     1       3.290   7.002  18.727  0.00  0.00    +0.000 A 
ATOM     14  C   UNL     1       3.920   6.327  17.683  0.00  0.00    +0.000 A 
ATOM     15  C   UNL     1       3.645   4.981  17.461  0.00  0.00    +0.000 A 
ATOM     16  C   UNL     1       2.722   4.297  18.261  0.00  0.00    +0.000 A 
ATOM     17  C   UNL     1       2.469   2.939  18.023  0.00  0.00    +0.000 A 
ENDBRANCH   1  12
BRANCH   5  18
ATOM     18  C   UNL     1      -0.078  11.672  21.820  0.00  0.00    +0.000 A 
ATOM     19  C   UNL     1      -1.075  11.685  22.803  0.00  0.00    +0.000 A 
ATOM     20  C   UNL     1      -1.521  12.905  23.288  0.00  0.00    +0.000 A 
ATOM     21  N   UNL     1      -1.047  14.096  22.875  0.00  0.00    +0.000 NA
ATOM     22  C   UNL     1      -0.088  14.072  21.928  0.00  0.00    +0.000 A 
ATOM     23  C   UNL     1       0.420  12.905  21.380  0.00  0.00    +0.000 A 
ENDBRANCH   5  18
TORSDOF 2
ENDMDL
MODEL 4
REMARK VINA RESULT:      -7.6      1.887      3.447
REMARK  Name = 
REMARK  2 active torsions:
REMARK  status: ('A' for Active; 'I' for Inactive)
REMARK    1  A    between atoms: C_5  and  N_6
REMARK    2  A    between atoms: C_10  and  C_11
REMARK                            x       y       z     vdW  Elec       q    Type
REMARK                         _______ _______ _______ _____ _____    ______ ____
ROOT
ATOM      1  N   UNL     1       1.828   7.018  20.779  0.00  0.00    +0.000 N 
ATOM      2  C   UNL     1       1.243   8.245  20.731  0.00  0.00    +0.000 A 
ATOM      3  N   UNL     1       0.557   8.756  19.729  0.00  0.00    +0.000 NA
ATOM      4  N   UNL     1       0.041  10.004  20.007  0.00  0.00    +0.000 NA
ATOM      5  C   UNL     1       0.316  10.405  21.233  0.00  0.00    +0.000 A 
ATOM      6  S   UNL     1       1.338   9.308  22.085  0.00  0.00    +0.000 S 
ATOM      7  H   UNL     1       2.443   6.858  21.571  0.00  0.00    +0.000 HD
ENDROOT
BRANCH   1  12
ATOM      8  C   UNL     1       1.481   2.223  18.935  0.00  0.00    +0.000 A 
ATOM      9  C   UNL     1       0.792   2.901  19.933  0.00  0.00    +0.000 A 
ATOM     10  C   UNL     1       1.057   4.253  20.173  0.00  0.00    +0.000 A 
ATOM     11  C   UNL     1       2.016   4.964  19.416  0.00  0.00    +0.000 A 
ATOM     12  C   UNL     1       2.332   6.338  19.634  0.00  0.00    +0.000 A 
ATOM     13  C   UNL     1       3.259   6.975  18.791  0.00  0.00    +0.000 A 
ATOM     14  C   UNL     1       3.872   6.283  17.749  0.00  0.00    +0.000 A 
ATOM     15  C   UNL     1       3.589   4.935  17.548  0.00  0.00    +0.000 A 
ATOM     16  C   UNL     1       2.673   4.267  18.369  0.00  0.00    +0.000 A 
ATOM     17  C   UNL     1       2.410   2.907  18.152  0.00  0.00    +0.000 A 
ENDBRANCH   1  12
BRANCH   5  18
ATOM     18  C   UNL     1      -0.191  11.648  21.834  0.00  0.00    +0.000 A 
ATOM     19  C   UNL     1       0.328  12.909  21.514  0.00  0.00    +0.000 A 
ATOM     20  C   UNL     1      -0.165  14.024  22.175  0.00  0.00    +0.000 A 
ATOM     21  N   UNL     1      -1.130  13.974  23.114  0.00  0.00    +0.000 NA
ATOM     22  C   UNL     1      -1.622  12.754  23.414  0.00  0.00    +0.000 A 
ATOM     23  C   UNL     1      -1.191  11.583  22.811  0.00  0.00    +0.000 A 
ENDBRANCH   5  18
TORSDOF 2
ENDMDL
MODEL 5
REMARK VINA RESULT:      -7.2      2.535      3.772
REMARK  Name = 
REMARK  2 active torsions:
REMARK  status: ('A' for Active; 'I' for Inactive)
REMARK    1  A    between atoms: C_5  and  N_6
REMARK    2  A    between atoms: C_10  and  C_11
REMARK                            x       y       z     vdW  Elec       q    Type
REMARK                         _______ _______ _______ _____ _____    ______ ____
ROOT
ATOM      1  N   UNL     1       2.190   6.524  20.010  0.00  0.00    +0.000 N 
ATOM      2  C   UNL     1       1.961   7.720  19.403  0.00  0.00    +0.000 A 
ATOM      3  N   UNL     1       2.037   7.982  18.115  0.00  0.00    +0.000 NA
ATOM      4  N   UNL     1       1.692   9.281  17.805  0.00  0.00    +0.000 NA
ATOM      5  C   UNL     1       1.326   9.974  18.865  0.00  0.00    +0.000 A 
ATOM      6  S   UNL     1       1.500   9.095  20.337  0.00  0.00    +0.000 S 
ATOM      7  H   UNL     1       2.235   6.549  21.024  0.00  0.00    +0.000 HD
ENDROOT
BRANCH   1  12
ATOM      8  C   UNL     1       1.843   1.570  18.650  0.00  0.00    +0.000 A 
ATOM      9  C   UNL     1       0.888   2.543  18.915  0.00  0.00    +0.000 A 
ATOM     10  C   UNL     1       1.283   3.855  19.197  0.00  0.00    +0.000 A 
ATOM     11  C   UNL     1       2.647   4.228  19.215  0.00  0.00    +0.000 A 
ATOM     12  C   UNL     1       3.099   5.548  19.512  0.00  0.00    +0.000 A 
ATOM     13  C   UNL     1       4.473   5.837  19.449  0.00  0.00    +0.000 A 
ATOM     14  C   UNL     1       5.396   4.853  19.101  0.00  0.00    +0.000 A 
ATOM     15  C   UNL     1       4.964   3.557  18.837  0.00  0.00    +0.000 A 
ATOM     16  C   UNL     1       3.604   3.231  18.893  0.00  0.00    +0.000 A 
ATOM     17  C   UNL     1       3.194   1.916  18.631  0.00  0.00    +0.000 A 
ENDBRANCH   1  12
BRANCH   5  18
ATOM     18  C   UNL     1       0.813  11.353  18.819  0.00  0.00    +0.000 A 
ATOM     19  C   UNL     1      -0.555  11.651  18.809  0.00  0.00    +0.000 A 
ATOM     20  C   UNL     1      -0.951  12.975  18.701  0.00  0.00    +0.000 A 
ATOM     21  N   UNL     1      -0.094  14.010  18.608  0.00  0.00    +0.000 NA
ATOM     22  C   UNL     1       1.221  13.711  18.617  0.00  0.00    +0.000 A 
ATOM     23  C   UNL     1       1.714  12.420  18.719  0.00  0.00    +0.000 A 
ENDBRANCH   5  18
TORSDOF 2
ENDMDL
MODEL 6
REMARK VINA RESULT:      -7.2      1.513      2.136
REMARK  Name = 
REMARK  2 active torsions:
REMARK  status: ('A' for Active; 'I' for Inactive)
REMARK    1  A    between atoms: C_5  and  N_6
REMARK    2  A    between atoms: C_10  and  C_11
REMARK                            x       y       z     vdW  Elec       q    Type
REMARK                         _______ _______ _______ _____ _____    ______ ____
ROOT
ATOM      1  N   UNL     1       2.063   7.781  19.344  0.00  0.00    +0.000 N 
ATOM      2  C   UNL     1       1.485   8.545  20.310  0.00  0.00    +0.000 A 
ATOM      3  N   UNL     1       1.612   8.403  21.613  0.00  0.00    +0.000 NA
ATOM      4  N   UNL     1       0.944   9.373  22.331  0.00  0.00    +0.000 NA
ATOM      5  C   UNL     1       0.349  10.257  21.556  0.00  0.00    +0.000 A 
ATOM      6  S   UNL     1       0.478   9.877  19.880  0.00  0.00    +0.000 S 
ATOM      7  H   UNL     1       1.728   7.943  18.399  0.00  0.00    +0.000 HD
ENDROOT
BRANCH   1  12
ATOM      8  C   UNL     1       4.864   4.335  16.737  0.00  0.00    +0.000 A 
ATOM      9  C   UNL     1       4.765   5.719  16.663  0.00  0.00    +0.000 A 
ATOM     10  C   UNL     1       3.956   6.413  17.569  0.00  0.00    +0.000 A 
ATOM     11  C   UNL     1       3.228   5.740  18.576  0.00  0.00    +0.000 A 
ATOM     12  C   UNL     1       2.379   6.403  19.511  0.00  0.00    +0.000 A 
ATOM     13  C   UNL     1       1.741   5.654  20.515  0.00  0.00    +0.000 A 
ATOM     14  C   UNL     1       1.926   4.276  20.607  0.00  0.00    +0.000 A 
ATOM     15  C   UNL     1       2.732   3.620  19.681  0.00  0.00    +0.000 A 
ATOM     16  C   UNL     1       3.381   4.332  18.666  0.00  0.00    +0.000 A 
ATOM     17  C   UNL     1       4.181   3.647  17.740  0.00  0.00    +0.000 A 
ENDBRANCH   1  12
BRANCH   5  18
ATOM     18  C   UNL     1      -0.351  11.455  22.047  0.00  0.00    +0.000 A 
ATOM     19  C   UNL     1       0.024  12.753  21.683  0.00  0.00    +0.000 A 
ATOM     20  C   UNL     1      -0.651  13.828  22.242  0.00  0.00    +0.000 A 
ATOM     21  N   UNL     1      -1.663  13.702  23.122  0.00  0.00    +0.000 NA
ATOM     22  C   UNL     1      -2.015  12.447  23.467  0.00  0.00    +0.000 A 
ATOM     23  C   UNL     1      -1.400  11.312  22.964  0.00  0.00    +0.000 A 
ENDBRANCH   5  18
TORSDOF 2
ENDMDL
MODEL 7
REMARK VINA RESULT:      -7.2      1.330      1.790
REMARK  Name = 
REMARK  2 active torsions:
REMARK  status: ('A' for Active; 'I' for Inactive)
REMARK    1  A    between atoms: C_5  and  N_6
REMARK    2  A    between atoms: C_10  and  C_11
REMARK                            x       y       z     vdW  Elec       q    Type
REMARK                         _______ _______ _______ _____ _____    ______ ____
ROOT
ATOM      1  N   UNL     1       2.253   7.774  19.328  0.00  0.00    +0.000 N 
ATOM      2  C   UNL     1       1.435   8.464  20.167  0.00  0.00    +0.000 A 
ATOM      3  N   UNL     1       1.195   8.200  21.434  0.00  0.00    +0.000 NA
ATOM      4  N   UNL     1       0.360   9.121  22.031  0.00  0.00    +0.000 NA
ATOM      5  C   UNL     1       0.008  10.092  21.211  0.00  0.00    +0.000 A 
ATOM      6  S   UNL     1       0.595   9.862  19.607  0.00  0.00    +0.000 S 
ATOM      7  H   UNL     1       2.195   8.032  18.348  0.00  0.00    +0.000 HD
ENDROOT
BRANCH   1  12
ATOM      8  C   UNL     1       4.849   4.291  16.562  0.00  0.00    +0.000 A 
ATOM      9  C   UNL     1       4.818   5.680  16.539  0.00  0.00    +0.000 A 
ATOM     10  C   UNL     1       4.056   6.380  17.480  0.00  0.00    +0.000 A 
ATOM     11  C   UNL     1       3.307   5.707  18.472  0.00  0.00    +0.000 A 
ATOM     12  C   UNL     1       2.502   6.376  19.442  0.00  0.00    +0.000 A 
ATOM     13  C   UNL     1       1.840   5.623  20.427  0.00  0.00    +0.000 A 
ATOM     14  C   UNL     1       1.958   4.236  20.467  0.00  0.00    +0.000 A 
ATOM     15  C   UNL     1       2.719   3.575  19.507  0.00  0.00    +0.000 A 
ATOM     16  C   UNL     1       3.391   4.291  18.510  0.00  0.00    +0.000 A 
ATOM     17  C   UNL     1       4.145   3.602  17.549  0.00  0.00    +0.000 A 
ENDBRANCH   1  12
BRANCH   5  18
ATOM     18  C   UNL     1      -0.793  11.261  21.604  0.00  0.00    +0.000 A 
ATOM     19  C   UNL     1      -1.221  11.478  22.919  0.00  0.00    +0.000 A 
ATOM     20  C   UNL     1      -2.027  12.573  23.190  0.00  0.00    +0.000 A 
ATOM     21  N   UNL     1      -2.426  13.460  22.258  0.00  0.00    +0.000 NA
ATOM     22  C   UNL     1      -2.009  13.241  20.994  0.00  0.00    +0.000 A 
ATOM     23  C   UNL     1      -1.205  12.174  20.625  0.00  0.00    +0.000 A 
ENDBRANCH   5  18
TORSDOF 2
ENDMDL
MODEL 8
REMARK VINA RESULT:      -7.1      1.632      3.013
REMARK  Name = 
REMARK  2 active torsions:
REMARK  status: ('A' for Active; 'I' for Inactive)
REMARK    1  A    between atoms: C_5  and  N_6
REMARK    2  A    between atoms: C_10  and  C_11
REMARK                            x       y       z     vdW  Elec       q    Type
REMARK                         _______ _______ _______ _____ _____    ______ ____
ROOT
ATOM      1  N   UNL     1       3.423   7.192  17.836  0.00  0.00    +0.000 N 
ATOM      2  C   UNL     1       2.482   7.855  18.560  0.00  0.00    +0.000 A 
ATOM      3  N   UNL     1       2.302   7.802  19.864  0.00  0.00    +0.000 NA
ATOM      4  N   UNL     1       1.296   8.635  20.306  0.00  0.00    +0.000 NA
ATOM      5  C   UNL     1       0.751   9.334  19.330  0.00  0.00    +0.000 A 
ATOM      6  S   UNL     1       1.370   8.916  17.777  0.00  0.00    +0.000 S 
ATOM      7  H   UNL     1       3.311   7.236  16.828  0.00  0.00    +0.000 HD
ENDROOT
BRANCH   1  12
ATOM      8  C   UNL     1       1.472   2.480  18.544  0.00  0.00    +0.000 A 
ATOM      9  C   UNL     1       0.960   3.635  17.967  0.00  0.00    +0.000 A 
ATOM     10  C   UNL     1       1.763   4.773  17.845  0.00  0.00    +0.000 A 
ATOM     11  C   UNL     1       3.103   4.784  18.294  0.00  0.00    +0.000 A 
ATOM     12  C   UNL     1       3.955   5.925  18.206  0.00  0.00    +0.000 A 
ATOM     13  C   UNL     1       5.292   5.820  18.627  0.00  0.00    +0.000 A 
ATOM     14  C   UNL     1       5.795   4.622  19.127  0.00  0.00    +0.000 A 
ATOM     15  C   UNL     1       4.961   3.513  19.241  0.00  0.00    +0.000 A 
ATOM     16  C   UNL     1       3.623   3.579  18.835  0.00  0.00    +0.000 A 
ATOM     17  C   UNL     1       2.801   2.451  18.968  0.00  0.00    +0.000 A 
ENDBRANCH   1  12
BRANCH   5  18
ATOM     18  C   UNL     1      -0.274  10.371  19.524  0.00  0.00    +0.000 A 
ATOM     19  C   UNL     1      -0.443  11.051  20.736  0.00  0.00    +0.000 A 
ATOM     20  C   UNL     1      -1.476  11.970  20.851  0.00  0.00    +0.000 A 
ATOM     21  N   UNL     1      -2.336  12.260  19.857  0.00  0.00    +0.000 NA
ATOM     22  C   UNL     1      -2.165  11.598  18.694  0.00  0.00    +0.000 A 
ATOM     23  C   UNL     1      -1.166  10.662  18.484  0.00  0.00    +0.000 A 
ENDBRANCH   5  18
TORSDOF 2
ENDMDL
MODEL 9
REMARK VINA RESULT:      -7.1      2.159      3.529
REMARK  Name = 
REMARK  2 active torsions:
REMARK  status: ('A' for Active; 'I' for Inactive)
REMARK    1  A    between atoms: C_5  and  N_6
REMARK    2  A    between atoms: C_10  and  C_11
REMARK                            x       y       z     vdW  Elec       q    Type
REMARK                         _______ _______ _______ _____ _____    ______ ____
ROOT
ATOM      1  N   UNL     1       2.150   6.900  18.984  0.00  0.00    +0.000 N 
ATOM      2  C   UNL     1       1.983   8.211  18.660  0.00  0.00    +0.000 A 
ATOM      3  N   UNL     1       2.166   8.764  17.479  0.00  0.00    +0.000 NA
ATOM      4  N   UNL     1       1.859  10.108  17.458  0.00  0.00    +0.000 NA
ATOM      5  C   UNL     1       1.413  10.545  18.619  0.00  0.00    +0.000 A 
ATOM      6  S   UNL     1       1.457   9.341  19.851  0.00  0.00    +0.000 S 
ATOM      7  H   UNL     1       2.112   6.686  19.976  0.00  0.00    +0.000 HD
ENDROOT
BRANCH   1  12
ATOM      8  C   UNL     1       2.419   1.847  18.029  0.00  0.00    +0.000 A 
ATOM      9  C   UNL     1       1.385   2.672  18.455  0.00  0.00    +0.000 A 
ATOM     10  C   UNL     1       1.588   4.052  18.560  0.00  0.00    +0.000 A 
ATOM     11  C   UNL     1       2.830   4.644  18.237  0.00  0.00    +0.000 A 
ATOM     12  C   UNL     1       3.089   6.042  18.343  0.00  0.00    +0.000 A 
ATOM     13  C   UNL     1       4.338   6.545  17.942  0.00  0.00    +0.000 A 
ATOM     14  C   UNL     1       5.325   5.697  17.444  0.00  0.00    +0.000 A 
ATOM     15  C   UNL     1       5.089   4.328  17.364  0.00  0.00    +0.000 A 
ATOM     16  C   UNL     1       3.857   3.790  17.756  0.00  0.00    +0.000 A 
ATOM     17  C   UNL     1       3.646   2.407  17.673  0.00  0.00    +0.000 A 
ENDBRANCH   1  12
BRANCH   5  18
ATOM     18  C   UNL     1       0.917  11.909  18.858  0.00  0.00    +0.000 A 
ATOM     19  C   UNL     1      -0.427  12.189  19.134  0.00  0.00    +0.000 A 
ATOM     20  C   UNL     1      -0.820  13.510  19.285  0.00  0.00    +0.000 A 
ATOM     21  N   UNL     1       0.021  14.558  19.187  0.00  0.00    +0.000 NA
ATOM     22  C   UNL     1       1.313  14.278  18.920  0.00  0.00    +0.000 A 
ATOM     23  C   UNL     1       1.800  12.992  18.751  0.00  0.00    +0.000 A 
ENDBRANCH   5  18
TORSDOF 2
ENDMDL
