MODEL 1
REMARK VINA RESULT:      -6.6      0.000      0.000
REMARK  Name = 
REMARK  13 active torsions:
REMARK  status: ('A' for Active; 'I' for Inactive)
REMARK    1  A    between atoms: C_1  and  S_2
REMARK    2  A    between atoms: S_2  and  C_3
REMARK    3  A    between atoms: C_3  and  S_4
REMARK    4  A    between atoms: S_4  and  C_6
REMARK    5  A    between atoms: C_6  and  C_7
REMARK    6  A    between atoms: C_7  and  C_8
REMARK    7  A    between atoms: C_7  and  N_10
REMARK    8  A    between atoms: C_8  and  O_9
REMARK    9  A    between atoms: C_11  and  C_13
REMARK   10  A    between atoms: C_14  and  C_15
REMARK   11  A    between atoms: C_16  and  C_17
REMARK   12  A    between atoms: C_19  and  O_20
REMARK   13  A    between atoms: C_22  and  O_23
REMARK                            x       y       z     vdW  Elec       q    Type
REMARK                         _______ _______ _______ _____ _____    ______ ____
ROOT
ATOM      1  N   UNK A   1       1.218   8.929  19.454  0.00  0.00    +0.000 N 
ATOM      2  C   UNK A   0       1.909   8.650  18.306  0.00  0.00    +0.000 C 
ATOM      3  O   UNK A   0       2.093   9.467  17.413  0.00  0.00    +0.000 OA
ATOM      4  H   UNK A   1       1.030   8.208  20.144  0.00  0.00    +0.000 HD
ENDROOT
BRANCH   2   5
ATOM      5  C   UNK A   0       2.427   7.262  18.242  0.00  0.00    +0.000 C 
ATOM      6  C   UNK A   0       2.811   6.656  19.379  0.00  0.00    +0.000 C 
BRANCH   6   7
ATOM      7  C   UNK A   0       3.372   5.297  19.470  0.00  0.00    +0.000 A 
ATOM      8  C   UNK A   0       2.658   4.204  19.965  0.00  0.00    +0.000 A 
ATOM      9  C   UNK A   0       1.220   4.268  20.394  0.00  0.00    +0.000 C 
ATOM     10  N   UNK A   0       3.210   2.970  20.102  0.00  0.00    +0.000 NA
ATOM     11  C   UNK A   0       4.488   2.850  19.740  0.00  0.00    +0.000 A 
ATOM     12  N   UNK A   0       5.286   3.798  19.266  0.00  0.00    +0.000 NA
ATOM     13  C   UNK A   0       4.695   4.993  19.156  0.00  0.00    +0.000 A 
BRANCH  11  14
ATOM     14  O   UNK A   0       5.013   1.610  19.904  0.00  0.00    +0.000 OA
ATOM     15  H   UNK A   0       4.517   1.340  20.697  0.00  0.00    +0.000 HD
ENDBRANCH  11  14
BRANCH  13  16
ATOM     16  O   UNK A   0       5.560   5.941  18.707  0.00  0.00    +0.000 OA
ATOM     17  H   UNK A   0       6.225   5.911  19.420  0.00  0.00    +0.000 HD
ENDBRANCH  13  16
ENDBRANCH   6   7
ENDBRANCH   2   5
BRANCH   1  18
ATOM     18  C   UNK A   1       0.631  10.255  19.704  0.00  0.00    +0.000 C 
BRANCH  18  19
ATOM     19  C   UNK A   1      -0.849  10.246  19.292  0.00  0.00    +0.000 C 
BRANCH  19  20
ATOM     20  S   UNK A   1      -1.631  11.861  19.010  0.00  0.00    +0.000 S 
ATOM     21  O   UNK A   1      -0.513  12.964  19.043  0.00  0.00    +0.000 OA
BRANCH  20  22
ATOM     22  C   UNK A   1      -2.211  11.663  17.300  0.00  0.00    +0.000 C 
BRANCH  22  24
ATOM     23  C   UNK A   1      -2.939  10.200  15.092  0.00  0.00    +0.000 C 
ATOM     24  S   UNK A   1      -2.642   9.960  16.863  0.00  0.00    +0.000 S 
ENDBRANCH  22  24
ENDBRANCH  20  22
ENDBRANCH  19  20
ENDBRANCH  18  19
BRANCH  18  25
ATOM     25  C   UNK A   1       0.899  10.618  21.172  0.00  0.00    +0.000 C 
BRANCH  25  26
ATOM     26  O   UNK A   1       1.245  11.996  21.292  0.00  0.00    +0.000 OA
ATOM     27  H   UNK A   1       2.220  12.032  21.323  0.00  0.00    +0.000 HD
ENDBRANCH  25  26
ENDBRANCH  18  25
ENDBRANCH   1  18
TORSDOF 11
ENDMDL
MODEL 2
REMARK VINA RESULT:      -6.2      2.076      2.908
REMARK  Name = 
REMARK  13 active torsions:
REMARK  status: ('A' for Active; 'I' for Inactive)
REMARK    1  A    between atoms: C_1  and  S_2
REMARK    2  A    between atoms: S_2  and  C_3
REMARK    3  A    between atoms: C_3  and  S_4
REMARK    4  A    between atoms: S_4  and  C_6
REMARK    5  A    between atoms: C_6  and  C_7
REMARK    6  A    between atoms: C_7  and  C_8
REMARK    7  A    between atoms: C_7  and  N_10
REMARK    8  A    between atoms: C_8  and  O_9
REMARK    9  A    between atoms: C_11  and  C_13
REMARK   10  A    between atoms: C_14  and  C_15
REMARK   11  A    between atoms: C_16  and  C_17
REMARK   12  A    between atoms: C_19  and  O_20
REMARK   13  A    between atoms: C_22  and  O_23
REMARK                            x       y       z     vdW  Elec       q    Type
REMARK                         _______ _______ _______ _____ _____    ______ ____
ROOT
ATOM      1  N   UNK A   1       1.223   9.296  19.554  0.00  0.00    +0.000 N 
ATOM      2  C   UNK A   0       1.841   8.559  18.583  0.00  0.00    +0.000 C 
ATOM      3  O   UNK A   0       1.791   8.834  17.390  0.00  0.00    +0.000 OA
ATOM      4  H   UNK A   1       1.233   9.001  20.526  0.00  0.00    +0.000 HD
ENDROOT
BRANCH   2   5
ATOM      5  C   UNK A   0       2.593   7.391  19.105  0.00  0.00    +0.000 C 
ATOM      6  C   UNK A   0       2.534   6.226  18.438  0.00  0.00    +0.000 C 
BRANCH   6   7
ATOM      7  C   UNK A   0       3.199   4.977  18.849  0.00  0.00    +0.000 A 
ATOM      8  C   UNK A   0       2.556   3.967  19.569  0.00  0.00    +0.000 A 
ATOM      9  C   UNK A   0       1.103   4.004  19.948  0.00  0.00    +0.000 C 
ATOM     10  N   UNK A   0       3.199   2.849  19.994  0.00  0.00    +0.000 NA
ATOM     11  C   UNK A   0       4.495   2.761  19.692  0.00  0.00    +0.000 A 
ATOM     12  N   UNK A   0       5.232   3.641  19.027  0.00  0.00    +0.000 NA
ATOM     13  C   UNK A   0       4.552   4.724  18.635  0.00  0.00    +0.000 A 
BRANCH  11  14
ATOM     14  O   UNK A   0       5.111   1.639  20.145  0.00  0.00    +0.000 OA
ATOM     15  H   UNK A   0       4.337   1.052  20.192  0.00  0.00    +0.000 HD
ENDBRANCH  11  14
BRANCH  13  16
ATOM     16  O   UNK A   0       5.354   5.616  17.995  0.00  0.00    +0.000 OA
ATOM     17  H   UNK A   0       5.785   6.033  18.764  0.00  0.00    +0.000 HD
ENDBRANCH  13  16
ENDBRANCH   6   7
ENDBRANCH   2   5
BRANCH   1  18
ATOM     18  C   UNK A   1       0.432  10.496  19.234  0.00  0.00    +0.000 C 
BRANCH  18  19
ATOM     19  C   UNK A   1      -0.629  10.716  20.322  0.00  0.00    +0.000 C 
BRANCH  19  20
ATOM     20  S   UNK A   1      -0.305   9.969  21.946  0.00  0.00    +0.000 S 
ATOM     21  O   UNK A   1       1.222  10.145  22.274  0.00  0.00    +0.000 OA
BRANCH  20  22
ATOM     22  C   UNK A   1      -1.268  11.069  23.024  0.00  0.00    +0.000 C 
BRANCH  22  24
ATOM     23  C   UNK A   1      -0.856  13.773  22.784  0.00  0.00    +0.000 C 
ATOM     24  S   UNK A   1      -1.983  12.495  22.168  0.00  0.00    +0.000 S 
ENDBRANCH  22  24
ENDBRANCH  20  22
ENDBRANCH  19  20
ENDBRANCH  18  19
BRANCH  18  25
ATOM     25  C   UNK A   1       1.411  11.662  19.030  0.00  0.00    +0.000 C 
BRANCH  25  26
ATOM     26  O   UNK A   1       1.584  12.389  20.244  0.00  0.00    +0.000 OA
ATOM     27  H   UNK A   1       1.753  11.724  20.939  0.00  0.00    +0.000 HD
ENDBRANCH  25  26
ENDBRANCH  18  25
ENDBRANCH   1  18
TORSDOF 11
ENDMDL
MODEL 3
REMARK VINA RESULT:      -6.1      1.463      1.475
REMARK  Name = 
REMARK  13 active torsions:
REMARK  status: ('A' for Active; 'I' for Inactive)
REMARK    1  A    between atoms: C_1  and  S_2
REMARK    2  A    between atoms: S_2  and  C_3
REMARK    3  A    between atoms: C_3  and  S_4
REMARK    4  A    between atoms: S_4  and  C_6
REMARK    5  A    between atoms: C_6  and  C_7
REMARK    6  A    between atoms: C_7  and  C_8
REMARK    7  A    between atoms: C_7  and  N_10
REMARK    8  A    between atoms: C_8  and  O_9
REMARK    9  A    between atoms: C_11  and  C_13
REMARK   10  A    between atoms: C_14  and  C_15
REMARK   11  A    between atoms: C_16  and  C_17
REMARK   12  A    between atoms: C_19  and  O_20
REMARK   13  A    between atoms: C_22  and  O_23
REMARK                            x       y       z     vdW  Elec       q    Type
REMARK                         _______ _______ _______ _____ _____    ______ ____
ROOT
ATOM      1  N   UNK A   1       1.405   8.680  19.439  0.00  0.00    +0.000 N 
ATOM      2  C   UNK A   0       2.195   8.276  18.398  0.00  0.00    +0.000 C 
ATOM      3  O   UNK A   0       2.396   8.956  17.400  0.00  0.00    +0.000 OA
ATOM      4  H   UNK A   1       1.209   8.063  20.222  0.00  0.00    +0.000 HD
ENDROOT
BRANCH   2   5
ATOM      5  C   UNK A   0       2.799   6.935  18.590  0.00  0.00    +0.000 C 
ATOM      6  C   UNK A   0       2.212   5.869  18.021  0.00  0.00    +0.000 C 
BRANCH   6   7
ATOM      7  C   UNK A   0       2.676   4.475  18.148  0.00  0.00    +0.000 A 
ATOM      8  C   UNK A   0       2.150   3.574  19.076  0.00  0.00    +0.000 A 
ATOM      9  C   UNK A   0       1.013   3.893  20.002  0.00  0.00    +0.000 C 
ATOM     10  N   UNK A   0       2.631   2.311  19.223  0.00  0.00    +0.000 NA
ATOM     11  C   UNK A   0       3.647   1.969  18.429  0.00  0.00    +0.000 A 
ATOM     12  N   UNK A   0       4.248   2.721  17.515  0.00  0.00    +0.000 NA
ATOM     13  C   UNK A   0       3.739   3.953  17.415  0.00  0.00    +0.000 A 
BRANCH  11  14
ATOM     14  O   UNK A   0       4.114   0.708  18.612  0.00  0.00    +0.000 OA
ATOM     15  H   UNK A   0       3.341   0.214  18.286  0.00  0.00    +0.000 HD
ENDBRANCH  11  14
BRANCH  13  16
ATOM     16  O   UNK A   0       4.411   4.699  16.498  0.00  0.00    +0.000 OA
ATOM     17  H   UNK A   0       5.329   4.481  16.745  0.00  0.00    +0.000 HD
ENDBRANCH  13  16
ENDBRANCH   6   7
ENDBRANCH   2   5
BRANCH   1  18
ATOM     18  C   UNK A   1       0.722   9.984  19.436  0.00  0.00    +0.000 C 
BRANCH  18  19
ATOM     19  C   UNK A   1      -0.340  10.003  18.327  0.00  0.00    +0.000 C 
BRANCH  19  20
ATOM     20  S   UNK A   1      -1.783  11.076  18.591  0.00  0.00    +0.000 S 
ATOM     21  O   UNK A   1      -1.545  12.422  17.816  0.00  0.00    +0.000 OA
BRANCH  20  22
ATOM     22  C   UNK A   1      -3.075  10.126  17.738  0.00  0.00    +0.000 C 
BRANCH  22  24
ATOM     23  C   UNK A   1      -2.949  10.398  15.008  0.00  0.00    +0.000 C 
ATOM     24  S   UNK A   1      -3.900  11.039  16.410  0.00  0.00    +0.000 S 
ENDBRANCH  22  24
ENDBRANCH  20  22
ENDBRANCH  19  20
ENDBRANCH  18  19
BRANCH  18  25
ATOM     25  C   UNK A   1       0.191  10.239  20.855  0.00  0.00    +0.000 C 
BRANCH  25  26
ATOM     26  O   UNK A   1       1.263  10.267  21.794  0.00  0.00    +0.000 OA
ATOM     27  H   UNK A   1       1.938  10.866  21.421  0.00  0.00    +0.000 HD
ENDBRANCH  25  26
ENDBRANCH  18  25
ENDBRANCH   1  18
TORSDOF 11
ENDMDL
MODEL 4
REMARK VINA RESULT:      -6.0      1.395      2.180
REMARK  Name = 
REMARK  13 active torsions:
REMARK  status: ('A' for Active; 'I' for Inactive)
REMARK    1  A    between atoms: C_1  and  S_2
REMARK    2  A    between atoms: S_2  and  C_3
REMARK    3  A    between atoms: C_3  and  S_4
REMARK    4  A    between atoms: S_4  and  C_6
REMARK    5  A    between atoms: C_6  and  C_7
REMARK    6  A    between atoms: C_7  and  C_8
REMARK    7  A    between atoms: C_7  and  N_10
REMARK    8  A    between atoms: C_8  and  O_9
REMARK    9  A    between atoms: C_11  and  C_13
REMARK   10  A    between atoms: C_14  and  C_15
REMARK   11  A    between atoms: C_16  and  C_17
REMARK   12  A    between atoms: C_19  and  O_20
REMARK   13  A    between atoms: C_22  and  O_23
REMARK                            x       y       z     vdW  Elec       q    Type
REMARK                         _______ _______ _______ _____ _____    ______ ____
ROOT
ATOM      1  N   UNK A   1       1.273   8.970  19.542  0.00  0.00    +0.000 N 
ATOM      2  C   UNK A   0       1.914   8.715  18.361  0.00  0.00    +0.000 C 
ATOM      3  O   UNK A   0       2.014   9.533  17.455  0.00  0.00    +0.000 OA
ATOM      4  H   UNK A   1       1.155   8.246  20.245  0.00  0.00    +0.000 HD
ENDROOT
BRANCH   2   5
ATOM      5  C   UNK A   0       2.491   7.351  18.276  0.00  0.00    +0.000 C 
ATOM      6  C   UNK A   0       2.685   6.654  19.408  0.00  0.00    +0.000 C 
BRANCH   6   7
ATOM      7  C   UNK A   0       3.275   5.306  19.486  0.00  0.00    +0.000 A 
ATOM      8  C   UNK A   0       2.596   4.200  20.004  0.00  0.00    +0.000 A 
ATOM      9  C   UNK A   0       1.172   4.239  20.477  0.00  0.00    +0.000 C 
ATOM     10  N   UNK A   0       3.176   2.978  20.127  0.00  0.00    +0.000 NA
ATOM     11  C   UNK A   0       4.445   2.881  19.728  0.00  0.00    +0.000 A 
ATOM     12  N   UNK A   0       5.210   3.843  19.228  0.00  0.00    +0.000 NA
ATOM     13  C   UNK A   0       4.593   5.026  19.132  0.00  0.00    +0.000 A 
BRANCH  11  14
ATOM     14  O   UNK A   0       4.998   1.651  19.879  0.00  0.00    +0.000 OA
ATOM     15  H   UNK A   0       5.837   1.806  19.409  0.00  0.00    +0.000 HD
ENDBRANCH  11  14
BRANCH  13  16
ATOM     16  O   UNK A   0       5.426   5.989  18.655  0.00  0.00    +0.000 OA
ATOM     17  H   UNK A   0       6.254   5.727  19.099  0.00  0.00    +0.000 HD
ENDBRANCH  13  16
ENDBRANCH   6   7
ENDBRANCH   2   5
BRANCH   1  18
ATOM     18  C   UNK A   1       0.640  10.270  19.817  0.00  0.00    +0.000 C 
BRANCH  18  19
ATOM     19  C   UNK A   1      -0.810  10.251  19.311  0.00  0.00    +0.000 C 
BRANCH  19  20
ATOM     20  S   UNK A   1      -1.472  11.813  18.660  0.00  0.00    +0.000 S 
ATOM     21  O   UNK A   1      -2.306  12.507  19.796  0.00  0.00    +0.000 OA
BRANCH  20  22
ATOM     22  C   UNK A   1       0.062  12.751  18.401  0.00  0.00    +0.000 C 
BRANCH  22  24
ATOM     23  C   UNK A   1       1.760  14.082  20.101  0.00  0.00    +0.000 C 
ATOM     24  S   UNK A   1       0.137  14.305  19.327  0.00  0.00    +0.000 S 
ENDBRANCH  22  24
ENDBRANCH  20  22
ENDBRANCH  19  20
ENDBRANCH  18  19
BRANCH  18  25
ATOM     25  C   UNK A   1       0.806  10.566  21.315  0.00  0.00    +0.000 C 
BRANCH  25  26
ATOM     26  O   UNK A   1      -0.176  11.503  21.752  0.00  0.00    +0.000 OA
ATOM     27  H   UNK A   1      -0.972  11.338  21.211  0.00  0.00    +0.000 HD
ENDBRANCH  25  26
ENDBRANCH  18  25
ENDBRANCH   1  18
TORSDOF 11
ENDMDL
MODEL 5
REMARK VINA RESULT:      -6.0      6.984      9.475
REMARK  Name = 
REMARK  13 active torsions:
REMARK  status: ('A' for Active; 'I' for Inactive)
REMARK    1  A    between atoms: C_1  and  S_2
REMARK    2  A    between atoms: S_2  and  C_3
REMARK    3  A    between atoms: C_3  and  S_4
REMARK    4  A    between atoms: S_4  and  C_6
REMARK    5  A    between atoms: C_6  and  C_7
REMARK    6  A    between atoms: C_7  and  C_8
REMARK    7  A    between atoms: C_7  and  N_10
REMARK    8  A    between atoms: C_8  and  O_9
REMARK    9  A    between atoms: C_11  and  C_13
REMARK   10  A    between atoms: C_14  and  C_15
REMARK   11  A    between atoms: C_16  and  C_17
REMARK   12  A    between atoms: C_19  and  O_20
REMARK   13  A    between atoms: C_22  and  O_23
REMARK                            x       y       z     vdW  Elec       q    Type
REMARK                         _______ _______ _______ _____ _____    ______ ____
ROOT
ATOM      1  N   UNK A   1       6.976   7.673  17.245  0.00  0.00    +0.000 N 
ATOM      2  C   UNK A   0       7.935   7.926  18.186  0.00  0.00    +0.000 C 
ATOM      3  O   UNK A   0       8.370   7.077  18.954  0.00  0.00    +0.000 OA
ATOM      4  H   UNK A   1       6.593   8.417  16.669  0.00  0.00    +0.000 HD
ENDROOT
BRANCH   2   5
ATOM      5  C   UNK A   0       8.413   9.331  18.190  0.00  0.00    +0.000 C 
ATOM      6  C   UNK A   0       9.344   9.700  19.085  0.00  0.00    +0.000 C 
BRANCH   6   7
ATOM      7  C   UNK A   0       9.892  11.060  19.230  0.00  0.00    +0.000 A 
ATOM      8  C   UNK A   0       9.637  11.877  20.335  0.00  0.00    +0.000 A 
ATOM      9  C   UNK A   0       8.835  11.444  21.528  0.00  0.00    +0.000 C 
ATOM     10  N   UNK A   0      10.098  13.151  20.425  0.00  0.00    +0.000 NA
ATOM     11  C   UNK A   0      10.813  13.596  19.391  0.00  0.00    +0.000 A 
ATOM     12  N   UNK A   0      11.124  12.939  18.281  0.00  0.00    +0.000 NA
ATOM     13  C   UNK A   0      10.643  11.692  18.241  0.00  0.00    +0.000 A 
BRANCH  11  14
ATOM     14  O   UNK A   0      11.245  14.878  19.505  0.00  0.00    +0.000 OA
ATOM     15  H   UNK A   0      11.271  14.941  20.476  0.00  0.00    +0.000 HD
ENDBRANCH  11  14
BRANCH  13  16
ATOM     16  O   UNK A   0      10.950  11.073  17.070  0.00  0.00    +0.000 OA
ATOM     17  H   UNK A   0      11.897  10.892  17.221  0.00  0.00    +0.000 HD
ENDBRANCH  13  16
ENDBRANCH   6   7
ENDBRANCH   2   5
BRANCH   1  18
ATOM     18  C   UNK A   1       6.380   6.337  17.084  0.00  0.00    +0.000 C 
BRANCH  18  19
ATOM     19  C   UNK A   1       4.849   6.458  17.058  0.00  0.00    +0.000 C 
BRANCH  19  20
ATOM     20  S   UNK A   1       3.949   5.774  18.481  0.00  0.00    +0.000 S 
ATOM     21  O   UNK A   1       2.458   5.531  18.051  0.00  0.00    +0.000 OA
BRANCH  20  22
ATOM     22  C   UNK A   1       4.777   4.168  18.667  0.00  0.00    +0.000 C 
BRANCH  22  24
ATOM     23  C   UNK A   1       3.194   1.977  18.181  0.00  0.00    +0.000 C 
ATOM     24  S   UNK A   1       3.808   2.944  19.584  0.00  0.00    +0.000 S 
ENDBRANCH  22  24
ENDBRANCH  20  22
ENDBRANCH  19  20
ENDBRANCH  18  19
BRANCH  18  25
ATOM     25  C   UNK A   1       7.006   5.691  15.838  0.00  0.00    +0.000 C 
BRANCH  25  26
ATOM     26  O   UNK A   1       7.861   4.612  16.208  0.00  0.00    +0.000 OA
ATOM     27  H   UNK A   1       7.371   4.092  16.875  0.00  0.00    +0.000 HD
ENDBRANCH  25  26
ENDBRANCH  18  25
ENDBRANCH   1  18
TORSDOF 11
ENDMDL
MODEL 6
REMARK VINA RESULT:      -6.0      1.964      2.638
REMARK  Name = 
REMARK  13 active torsions:
REMARK  status: ('A' for Active; 'I' for Inactive)
REMARK    1  A    between atoms: C_1  and  S_2
REMARK    2  A    between atoms: S_2  and  C_3
REMARK    3  A    between atoms: C_3  and  S_4
REMARK    4  A    between atoms: S_4  and  C_6
REMARK    5  A    between atoms: C_6  and  C_7
REMARK    6  A    between atoms: C_7  and  C_8
REMARK    7  A    between atoms: C_7  and  N_10
REMARK    8  A    between atoms: C_8  and  O_9
REMARK    9  A    between atoms: C_11  and  C_13
REMARK   10  A    between atoms: C_14  and  C_15
REMARK   11  A    between atoms: C_16  and  C_17
REMARK   12  A    between atoms: C_19  and  O_20
REMARK   13  A    between atoms: C_22  and  O_23
REMARK                            x       y       z     vdW  Elec       q    Type
REMARK                         _______ _______ _______ _____ _____    ______ ____
ROOT
ATOM      1  N   UNK A   1       1.298   9.426  19.146  0.00  0.00    +0.000 N 
ATOM      2  C   UNK A   0       2.014   8.652  18.275  0.00  0.00    +0.000 C 
ATOM      3  O   UNK A   0       2.260   8.982  17.122  0.00  0.00    +0.000 OA
ATOM      4  H   UNK A   1       1.059   9.092  20.075  0.00  0.00    +0.000 HD
ENDROOT
BRANCH   2   5
ATOM      5  C   UNK A   0       2.478   7.369  18.858  0.00  0.00    +0.000 C 
ATOM      6  C   UNK A   0       3.142   6.501  18.077  0.00  0.00    +0.000 C 
BRANCH   6   7
ATOM      7  C   UNK A   0       3.636   5.180  18.504  0.00  0.00    +0.000 A 
ATOM      8  C   UNK A   0       2.829   4.041  18.563  0.00  0.00    +0.000 A 
ATOM      9  C   UNK A   0       1.389   4.012  18.137  0.00  0.00    +0.000 C 
ATOM     10  N   UNK A   0       3.283   2.845  19.018  0.00  0.00    +0.000 NA
ATOM     11  C   UNK A   0       4.556   2.808  19.417  0.00  0.00    +0.000 A 
ATOM     12  N   UNK A   0       5.429   3.806  19.425  0.00  0.00    +0.000 NA
ATOM     13  C   UNK A   0       4.930   4.961  18.972  0.00  0.00    +0.000 A 
BRANCH  11  14
ATOM     14  O   UNK A   0       4.973   1.603  19.880  0.00  0.00    +0.000 OA
ATOM     15  H   UNK A   0       5.310   1.230  19.046  0.00  0.00    +0.000 HD
ENDBRANCH  11  14
BRANCH  13  16
ATOM     16  O   UNK A   0       5.846   5.964  19.037  0.00  0.00    +0.000 OA
ATOM     17  H   UNK A   0       5.502   6.453  19.807  0.00  0.00    +0.000 HD
ENDBRANCH  13  16
ENDBRANCH   6   7
ENDBRANCH   2   5
BRANCH   1  18
ATOM     18  C   UNK A   1       0.757  10.738  18.754  0.00  0.00    +0.000 C 
BRANCH  18  19
ATOM     19  C   UNK A   1      -0.453  11.077  19.638  0.00  0.00    +0.000 C 
BRANCH  19  20
ATOM     20  S   UNK A   1      -1.665  12.246  18.954  0.00  0.00    +0.000 S 
ATOM     21  O   UNK A   1      -2.555  11.480  17.910  0.00  0.00    +0.000 OA
BRANCH  20  22
ATOM     22  C   UNK A   1      -2.664  12.602  20.429  0.00  0.00    +0.000 C 
BRANCH  22  24
ATOM     23  C   UNK A   1      -2.194  11.904  23.044  0.00  0.00    +0.000 C 
ATOM     24  S   UNK A   1      -1.697  13.173  21.850  0.00  0.00    +0.000 S 
ENDBRANCH  22  24
ENDBRANCH  20  22
ENDBRANCH  19  20
ENDBRANCH  18  19
BRANCH  18  25
ATOM     25  C   UNK A   1       1.907  11.755  18.803  0.00  0.00    +0.000 C 
BRANCH  25  26
ATOM     26  O   UNK A   1       2.392  12.026  17.490  0.00  0.00    +0.000 OA
ATOM     27  H   UNK A   1       2.612  12.978  17.471  0.00  0.00    +0.000 HD
ENDBRANCH  25  26
ENDBRANCH  18  25
ENDBRANCH   1  18
TORSDOF 11
ENDMDL
MODEL 7
REMARK VINA RESULT:      -6.0      3.886      8.117
REMARK  Name = 
REMARK  13 active torsions:
REMARK  status: ('A' for Active; 'I' for Inactive)
REMARK    1  A    between atoms: C_1  and  S_2
REMARK    2  A    between atoms: S_2  and  C_3
REMARK    3  A    between atoms: C_3  and  S_4
REMARK    4  A    between atoms: S_4  and  C_6
REMARK    5  A    between atoms: C_6  and  C_7
REMARK    6  A    between atoms: C_7  and  C_8
REMARK    7  A    between atoms: C_7  and  N_10
REMARK    8  A    between atoms: C_8  and  O_9
REMARK    9  A    between atoms: C_11  and  C_13
REMARK   10  A    between atoms: C_14  and  C_15
REMARK   11  A    between atoms: C_16  and  C_17
REMARK   12  A    between atoms: C_19  and  O_20
REMARK   13  A    between atoms: C_22  and  O_23
REMARK                            x       y       z     vdW  Elec       q    Type
REMARK                         _______ _______ _______ _____ _____    ______ ____
ROOT
ATOM      1  N   UNK A   1       3.545   5.549  19.854  0.00  0.00    +0.000 N 
ATOM      2  C   UNK A   0       2.831   6.546  19.248  0.00  0.00    +0.000 C 
ATOM      3  O   UNK A   0       2.937   6.828  18.061  0.00  0.00    +0.000 OA
ATOM      4  H   UNK A   1       3.478   5.386  20.854  0.00  0.00    +0.000 HD
ENDROOT
BRANCH   2   5
ATOM      5  C   UNK A   0       1.903   7.256  20.161  0.00  0.00    +0.000 C 
ATOM      6  C   UNK A   0       1.652   8.559  19.953  0.00  0.00    +0.000 C 
BRANCH   6   7
ATOM      7  C   UNK A   0       0.781   9.403  20.790  0.00  0.00    +0.000 A 
ATOM      8  C   UNK A   0      -0.291  10.140  20.281  0.00  0.00    +0.000 A 
ATOM      9  C   UNK A   0      -0.721  10.109  18.842  0.00  0.00    +0.000 C 
ATOM     10  N   UNK A   0      -1.046  10.962  21.055  0.00  0.00    +0.000 NA
ATOM     11  C   UNK A   0      -0.710  11.037  22.343  0.00  0.00    +0.000 A 
ATOM     12  N   UNK A   0       0.282  10.404  22.957  0.00  0.00    +0.000 NA
ATOM     13  C   UNK A   0       0.996   9.613  22.150  0.00  0.00    +0.000 A 
BRANCH  11  14
ATOM     14  O   UNK A   0      -1.474  11.878  23.085  0.00  0.00    +0.000 OA
ATOM     15  H   UNK A   0      -0.970  12.699  22.947  0.00  0.00    +0.000 HD
ENDBRANCH  11  14
BRANCH  13  16
ATOM     16  O   UNK A   0       2.025   9.018  22.812  0.00  0.00    +0.000 OA
ATOM     17  H   UNK A   0       2.673   9.747  22.800  0.00  0.00    +0.000 HD
ENDBRANCH  13  16
ENDBRANCH   6   7
ENDBRANCH   2   5
BRANCH   1  18
ATOM     18  C   UNK A   1       4.515   4.727  19.111  0.00  0.00    +0.000 C 
BRANCH  18  19
ATOM     19  C   UNK A   1       5.928   5.296  19.312  0.00  0.00    +0.000 C 
BRANCH  19  20
ATOM     20  S   UNK A   1       6.709   6.078  17.870  0.00  0.00    +0.000 S 
ATOM     21  O   UNK A   1       7.996   6.837  18.357  0.00  0.00    +0.000 OA
BRANCH  20  22
ATOM     22  C   UNK A   1       7.213   4.614  16.920  0.00  0.00    +0.000 C 
BRANCH  22  24
ATOM     23  C   UNK A   1       6.834   4.664  14.201  0.00  0.00    +0.000 C 
ATOM     24  S   UNK A   1       5.993   4.078  15.694  0.00  0.00    +0.000 S 
ENDBRANCH  22  24
ENDBRANCH  20  22
ENDBRANCH  19  20
ENDBRANCH  18  19
BRANCH  18  25
ATOM     25  C   UNK A   1       4.329   3.267  19.553  0.00  0.00    +0.000 C 
BRANCH  25  26
ATOM     26  O   UNK A   1       3.220   3.150  20.441  0.00  0.00    +0.000 OA
ATOM     27  H   UNK A   1       2.518   3.726  20.080  0.00  0.00    +0.000 HD
ENDBRANCH  25  26
ENDBRANCH  18  25
ENDBRANCH   1  18
TORSDOF 11
ENDMDL
MODEL 8
REMARK VINA RESULT:      -6.0      1.160      1.827
REMARK  Name = 
REMARK  13 active torsions:
REMARK  status: ('A' for Active; 'I' for Inactive)
REMARK    1  A    between atoms: C_1  and  S_2
REMARK    2  A    between atoms: S_2  and  C_3
REMARK    3  A    between atoms: C_3  and  S_4
REMARK    4  A    between atoms: S_4  and  C_6
REMARK    5  A    between atoms: C_6  and  C_7
REMARK    6  A    between atoms: C_7  and  C_8
REMARK    7  A    between atoms: C_7  and  N_10
REMARK    8  A    between atoms: C_8  and  O_9
REMARK    9  A    between atoms: C_11  and  C_13
REMARK   10  A    between atoms: C_14  and  C_15
REMARK   11  A    between atoms: C_16  and  C_17
REMARK   12  A    between atoms: C_19  and  O_20
REMARK   13  A    between atoms: C_22  and  O_23
REMARK                            x       y       z     vdW  Elec       q    Type
REMARK                         _______ _______ _______ _____ _____    ______ ____
ROOT
ATOM      1  N   UNK A   1       1.065   9.306  19.359  0.00  0.00    +0.000 N 
ATOM      2  C   UNK A   0       1.766   8.952  18.239  0.00  0.00    +0.000 C 
ATOM      3  O   UNK A   0       2.013   9.726  17.323  0.00  0.00    +0.000 OA
ATOM      4  H   UNK A   1       0.824   8.620  20.069  0.00  0.00    +0.000 HD
ENDROOT
BRANCH   2   5
ATOM      5  C   UNK A   0       2.213   7.538  18.236  0.00  0.00    +0.000 C 
ATOM      6  C   UNK A   0       2.952   7.085  19.263  0.00  0.00    +0.000 C 
BRANCH   6   7
ATOM      7  C   UNK A   0       3.493   5.720  19.385  0.00  0.00    +0.000 A 
ATOM      8  C   UNK A   0       4.635   5.284  18.708  0.00  0.00    +0.000 A 
ATOM      9  C   UNK A   0       5.481   6.168  17.837  0.00  0.00    +0.000 C 
ATOM     10  N   UNK A   0       5.086   4.005  18.782  0.00  0.00    +0.000 NA
ATOM     11  C   UNK A   0       4.373   3.169  19.538  0.00  0.00    +0.000 A 
ATOM     12  N   UNK A   0       3.270   3.441  20.225  0.00  0.00    +0.000 NA
ATOM     13  C   UNK A   0       2.868   4.711  20.115  0.00  0.00    +0.000 A 
BRANCH  11  14
ATOM     14  O   UNK A   0       4.840   1.895  19.578  0.00  0.00    +0.000 OA
ATOM     15  H   UNK A   0       5.392   1.914  18.776  0.00  0.00    +0.000 HD
ENDBRANCH  11  14
BRANCH  13  16
ATOM     16  O   UNK A   0       1.715   4.933  20.799  0.00  0.00    +0.000 OA
ATOM     17  H   UNK A   0       1.905   4.433  21.614  0.00  0.00    +0.000 HD
ENDBRANCH  13  16
ENDBRANCH   6   7
ENDBRANCH   2   5
BRANCH   1  18
ATOM     18  C   UNK A   1       0.541  10.669  19.549  0.00  0.00    +0.000 C 
BRANCH  18  19
ATOM     19  C   UNK A   1      -0.993  10.626  19.592  0.00  0.00    +0.000 C 
BRANCH  19  20
ATOM     20  S   UNK A   1      -1.872  12.091  18.974  0.00  0.00    +0.000 S 
ATOM     21  O   UNK A   1      -0.836  13.011  18.232  0.00  0.00    +0.000 OA
BRANCH  20  22
ATOM     22  C   UNK A   1      -2.973  11.334  17.744  0.00  0.00    +0.000 C 
BRANCH  22  24
ATOM     23  C   UNK A   1      -2.883  10.366  15.175  0.00  0.00    +0.000 C 
ATOM     24  S   UNK A   1      -2.212   9.980  16.813  0.00  0.00    +0.000 S 
ENDBRANCH  22  24
ENDBRANCH  20  22
ENDBRANCH  19  20
ENDBRANCH  18  19
BRANCH  18  25
ATOM     25  C   UNK A   1       1.215  11.261  20.797  0.00  0.00    +0.000 C 
BRANCH  25  26
ATOM     26  O   UNK A   1       0.243  11.562  21.795  0.00  0.00    +0.000 OA
ATOM     27  H   UNK A   1       0.547  11.125  22.614  0.00  0.00    +0.000 HD
ENDBRANCH  25  26
ENDBRANCH  18  25
ENDBRANCH   1  18
TORSDOF 11
ENDMDL
MODEL 9
REMARK VINA RESULT:      -5.9      1.578      2.229
REMARK  Name = 
REMARK  13 active torsions:
REMARK  status: ('A' for Active; 'I' for Inactive)
REMARK    1  A    between atoms: C_1  and  S_2
REMARK    2  A    between atoms: S_2  and  C_3
REMARK    3  A    between atoms: C_3  and  S_4
REMARK    4  A    between atoms: S_4  and  C_6
REMARK    5  A    between atoms: C_6  and  C_7
REMARK    6  A    between atoms: C_7  and  C_8
REMARK    7  A    between atoms: C_7  and  N_10
REMARK    8  A    between atoms: C_8  and  O_9
REMARK    9  A    between atoms: C_11  and  C_13
REMARK   10  A    between atoms: C_14  and  C_15
REMARK   11  A    between atoms: C_16  and  C_17
REMARK   12  A    between atoms: C_19  and  O_20
REMARK   13  A    between atoms: C_22  and  O_23
REMARK                            x       y       z     vdW  Elec       q    Type
REMARK                         _______ _______ _______ _____ _____    ______ ____
ROOT
ATOM      1  N   UNK A   1       1.162   9.319  19.336  0.00  0.00    +0.000 N 
ATOM      2  C   UNK A   0       1.935   8.585  18.479  0.00  0.00    +0.000 C 
ATOM      3  O   UNK A   0       2.095   8.870  17.299  0.00  0.00    +0.000 OA
ATOM      4  H   UNK A   1       1.001   9.016  20.292  0.00  0.00    +0.000 HD
ENDROOT
BRANCH   2   5
ATOM      5  C   UNK A   0       2.578   7.407  19.113  0.00  0.00    +0.000 C 
ATOM      6  C   UNK A   0       2.846   6.327  18.361  0.00  0.00    +0.000 C 
BRANCH   6   7
ATOM      7  C   UNK A   0       3.450   5.077  18.853  0.00  0.00    +0.000 A 
ATOM      8  C   UNK A   0       4.823   4.820  18.811  0.00  0.00    +0.000 A 
ATOM      9  C   UNK A   0       5.845   5.807  18.326  0.00  0.00    +0.000 C 
ATOM     10  N   UNK A   0       5.358   3.637  19.211  0.00  0.00    +0.000 NA
ATOM     11  C   UNK A   0       4.498   2.716  19.648  0.00  0.00    +0.000 A 
ATOM     12  N   UNK A   0       3.178   2.818  19.734  0.00  0.00    +0.000 NA
ATOM     13  C   UNK A   0       2.703   3.999  19.324  0.00  0.00    +0.000 A 
BRANCH  11  14
ATOM     14  O   UNK A   0       5.064   1.541  20.025  0.00  0.00    +0.000 OA
ATOM     15  H   UNK A   0       4.297   0.956  19.889  0.00  0.00    +0.000 HD
ENDBRANCH  11  14
BRANCH  13  16
ATOM     16  O   UNK A   0       1.346   4.044  19.390  0.00  0.00    +0.000 OA
ATOM     17  H   UNK A   0       1.231   4.217  20.343  0.00  0.00    +0.000 HD
ENDBRANCH  13  16
ENDBRANCH   6   7
ENDBRANCH   2   5
BRANCH   1  18
ATOM     18  C   UNK A   1       0.446  10.527  18.894  0.00  0.00    +0.000 C 
BRANCH  18  19
ATOM     19  C   UNK A   1      -0.897  10.625  19.633  0.00  0.00    +0.000 C 
BRANCH  19  20
ATOM     20  S   UNK A   1      -2.107  11.811  18.977  0.00  0.00    +0.000 S 
ATOM     21  O   UNK A   1      -1.448  13.237  18.971  0.00  0.00    +0.000 OA
BRANCH  20  22
ATOM     22  C   UNK A   1      -2.262  11.227  17.264  0.00  0.00    +0.000 C 
BRANCH  22  24
ATOM     23  C   UNK A   1      -4.816  11.696  18.160  0.00  0.00    +0.000 C 
ATOM     24  S   UNK A   1      -3.955  11.272  16.624  0.00  0.00    +0.000 S 
ENDBRANCH  22  24
ENDBRANCH  20  22
ENDBRANCH  19  20
ENDBRANCH  18  19
BRANCH  18  25
ATOM     25  C   UNK A   1       1.387  11.726  19.086  0.00  0.00    +0.000 C 
BRANCH  25  26
ATOM     26  O   UNK A   1       1.369  12.566  17.934  0.00  0.00    +0.000 OA
ATOM     27  H   UNK A   1       2.168  13.125  17.990  0.00  0.00    +0.000 HD
ENDBRANCH  25  26
ENDBRANCH  18  25
ENDBRANCH   1  18
TORSDOF 11
ENDMDL
