MODEL 1
REMARK VINA RESULT:      -7.2      0.000      0.000
REMARK  Name = 
REMARK  7 active torsions:
REMARK  status: ('A' for Active; 'I' for Inactive)
REMARK    1  A    between atoms: C_1  and  C_2
REMARK    2  A    between atoms: N_7  and  C_8
REMARK    3  A    between atoms: C_8  and  C_9
REMARK    4  A    between atoms: C_9  and  O_10
REMARK    5  A    between atoms: C_9  and  C_11
REMARK    6  A    between atoms: C_11  and  O_12
REMARK    7  A    between atoms: O_12  and  C_13
REMARK                            x       y       z     vdW  Elec       q    Type
REMARK                         _______ _______ _______ _____ _____    ______ ____
ROOT
ATOM      1  C   UNL     1       7.285   5.160  17.826  0.00  0.00    +0.000 C 
ENDROOT
BRANCH   1   2
ATOM      2  O   UNL     1       8.196   4.094  17.531  0.00  0.00    +0.000 OA
ATOM      3  H   UNL     1       7.673   3.376  17.128  0.00  0.00    +0.000 HD
ENDBRANCH   1   2
BRANCH   1   4
ATOM      4  C   UNL     1       6.046   4.616  18.575  0.00  0.00    +0.000 C 
BRANCH   4  11
ATOM      5  C   UNL     1       0.714   3.198  20.654  0.00  0.00    +0.000 C 
ATOM      6  C   UNL     1       1.441   2.826  19.390  0.00  0.00    +0.000 C 
ATOM      7  O   UNL     1       0.902   2.089  18.564  0.00  0.00    +0.000 OA
ATOM      8  N   UNL     1       2.696   3.373  19.201  0.00  0.00    +0.000 N 
ATOM      9  C   UNL     1       3.410   3.115  17.947  0.00  0.00    +0.000 C 
ATOM     10  C   UNL     1       3.900   4.441  17.337  0.00  0.00    +0.000 C 
ATOM     11  N   UNL     1       4.748   5.258  18.247  0.00  0.00    +0.000 NA
ATOM     12  C   UNL     1       3.962   5.499  19.483  0.00  0.00    +0.000 C 
ATOM     13  C   UNL     1       3.416   4.221  20.160  0.00  0.00    +0.000 C 
ENDBRANCH   4  11
ENDBRANCH   1   4
BRANCH   1  14
ATOM     14  C   UNL     1       6.876   5.947  16.576  0.00  0.00    +0.000 C 
BRANCH  14  15
ATOM     15  O   UNL     1       7.723   5.561  15.488  0.00  0.00    +0.000 OA
BRANCH  15  16
ATOM     16  C   UNL     1       7.105   4.951  14.429  0.00  0.00    +0.000 A 
ATOM     17  C   UNL     1       7.625   4.846  13.138  0.00  0.00    +0.000 A 
ATOM     18  C   UNL     1       6.894   4.190  12.137  0.00  0.00    +0.000 A 
ATOM     19  C   UNL     1       5.653   3.640  12.436  0.00  0.00    +0.000 A 
ATOM     20 BR   UNL     1       4.681   2.744  11.084  0.00  0.00    +0.000 Br
ATOM     21  C   UNL     1       5.125   3.744  13.718  0.00  0.00    +0.000 A 
ATOM     22  C   UNL     1       5.853   4.401  14.712  0.00  0.00    +0.000 A 
ENDBRANCH  15  16
ENDBRANCH  14  15
ENDBRANCH   1  14
TORSDOF 6
ENDMDL
MODEL 2
REMARK VINA RESULT:      -7.0      0.442      1.141
REMARK  Name = 
REMARK  7 active torsions:
REMARK  status: ('A' for Active; 'I' for Inactive)
REMARK    1  A    between atoms: C_1  and  C_2
REMARK    2  A    between atoms: N_7  and  C_8
REMARK    3  A    between atoms: C_8  and  C_9
REMARK    4  A    between atoms: C_9  and  O_10
REMARK    5  A    between atoms: C_9  and  C_11
REMARK    6  A    between atoms: C_11  and  O_12
REMARK    7  A    between atoms: O_12  and  C_13
REMARK                            x       y       z     vdW  Elec       q    Type
REMARK                         _______ _______ _______ _____ _____    ______ ____
ROOT
ATOM      1  C   UNL     1       7.384   5.331  17.820  0.00  0.00    +0.000 C 
ENDROOT
BRANCH   1   2
ATOM      2  O   UNL     1       8.117   4.127  17.560  0.00  0.00    +0.000 OA
ATOM      3  H   UNL     1       8.173   4.032  16.592  0.00  0.00    +0.000 HD
ENDBRANCH   1   2
BRANCH   1   4
ATOM      4  C   UNL     1       6.129   5.022  18.668  0.00  0.00    +0.000 C 
BRANCH   4  11
ATOM      5  C   UNL     1       0.816   3.450  20.688  0.00  0.00    +0.000 C 
ATOM      6  C   UNL     1       1.805   2.758  19.786  0.00  0.00    +0.000 C 
ATOM      7  O   UNL     1       1.545   1.645  19.328  0.00  0.00    +0.000 OA
ATOM      8  N   UNL     1       2.967   3.441  19.486  0.00  0.00    +0.000 N 
ATOM      9  C   UNL     1       3.923   2.851  18.542  0.00  0.00    +0.000 C 
ATOM     10  C   UNL     1       4.290   3.876  17.454  0.00  0.00    +0.000 C 
ATOM     11  N   UNL     1       4.821   5.164  17.978  0.00  0.00    +0.000 NA
ATOM     12  C   UNL     1       3.802   5.715  18.907  0.00  0.00    +0.000 C 
ATOM     13  C   UNL     1       3.361   4.747  20.029  0.00  0.00    +0.000 C 
ENDBRANCH   4  11
ENDBRANCH   1   4
BRANCH   1  14
ATOM     14  C   UNL     1       7.015   6.084  16.537  0.00  0.00    +0.000 C 
BRANCH  14  15
ATOM     15  O   UNL     1       7.720   5.497  15.437  0.00  0.00    +0.000 OA
BRANCH  15  16
ATOM     16  C   UNL     1       6.951   4.864  14.497  0.00  0.00    +0.000 A 
ATOM     17  C   UNL     1       5.670   4.351  14.710  0.00  0.00    +0.000 A 
ATOM     18  C   UNL     1       4.980   3.726  13.662  0.00  0.00    +0.000 A 
ATOM     19  C   UNL     1       5.573   3.624  12.409  0.00  0.00    +0.000 A 
ATOM     20 BR   UNL     1       4.629   2.793  10.996  0.00  0.00    +0.000 Br
ATOM     21  C   UNL     1       6.850   4.128  12.188  0.00  0.00    +0.000 A 
ATOM     22  C   UNL     1       7.537   4.746  13.235  0.00  0.00    +0.000 A 
ENDBRANCH  15  16
ENDBRANCH  14  15
ENDBRANCH   1  14
TORSDOF 6
ENDMDL
MODEL 3
REMARK VINA RESULT:      -6.9      5.005      6.353
REMARK  Name = 
REMARK  7 active torsions:
REMARK  status: ('A' for Active; 'I' for Inactive)
REMARK    1  A    between atoms: C_1  and  C_2
REMARK    2  A    between atoms: N_7  and  C_8
REMARK    3  A    between atoms: C_8  and  C_9
REMARK    4  A    between atoms: C_9  and  O_10
REMARK    5  A    between atoms: C_9  and  C_11
REMARK    6  A    between atoms: C_11  and  O_12
REMARK    7  A    between atoms: O_12  and  C_13
REMARK                            x       y       z     vdW  Elec       q    Type
REMARK                         _______ _______ _______ _____ _____    ______ ____
ROOT
ATOM      1  C   UNL     1       7.557   6.766  17.471  0.00  0.00    +0.000 C 
ENDROOT
BRANCH   1   2
ATOM      2  O   UNL     1       7.426   6.345  16.107  0.00  0.00    +0.000 OA
ATOM      3  H   UNL     1       8.296   6.472  15.685  0.00  0.00    +0.000 HD
ENDBRANCH   1   2
BRANCH   1   4
ATOM      4  C   UNL     1       6.358   6.259  18.306  0.00  0.00    +0.000 C 
BRANCH   4  11
ATOM      5  C   UNL     1       1.202   4.323  20.414  0.00  0.00    +0.000 C 
ATOM      6  C   UNL     1       2.501   3.624  20.112  0.00  0.00    +0.000 C 
ATOM      7  O   UNL     1       2.608   2.413  20.306  0.00  0.00    +0.000 OA
ATOM      8  N   UNL     1       3.522   4.393  19.586  0.00  0.00    +0.000 N 
ATOM      9  C   UNL     1       4.777   3.746  19.191  0.00  0.00    +0.000 C 
ATOM     10  C   UNL     1       5.153   4.157  17.755  0.00  0.00    +0.000 C 
ATOM     11  N   UNL     1       5.249   5.628  17.545  0.00  0.00    +0.000 NA
ATOM     12  C   UNL     1       3.946   6.217  17.943  0.00  0.00    +0.000 C 
ATOM     13  C   UNL     1       3.480   5.845  19.370  0.00  0.00    +0.000 C 
ENDBRANCH   4  11
ENDBRANCH   1   4
BRANCH   1  14
ATOM     14  C   UNL     1       7.722   8.283  17.604  0.00  0.00    +0.000 C 
BRANCH  14  15
ATOM     15  O   UNL     1       8.608   8.559  18.695  0.00  0.00    +0.000 OA
BRANCH  15  16
ATOM     16  C   UNL     1       8.969   9.869  18.862  0.00  0.00    +0.000 A 
ATOM     17  C   UNL     1       9.650  10.389  19.965  0.00  0.00    +0.000 A 
ATOM     18  C   UNL     1       9.968  11.752  20.016  0.00  0.00    +0.000 A 
ATOM     19  C   UNL     1       9.609  12.586  18.964  0.00  0.00    +0.000 A 
ATOM     20 BR   UNL     1      10.055  14.422  19.035  0.00  0.00    +0.000 Br
ATOM     21  C   UNL     1       8.926  12.080  17.863  0.00  0.00    +0.000 A 
ATOM     22  C   UNL     1       8.607  10.721  17.816  0.00  0.00    +0.000 A 
ENDBRANCH  15  16
ENDBRANCH  14  15
ENDBRANCH   1  14
TORSDOF 6
ENDMDL
MODEL 4
REMARK VINA RESULT:      -6.7      3.916      7.208
REMARK  Name = 
REMARK  7 active torsions:
REMARK  status: ('A' for Active; 'I' for Inactive)
REMARK    1  A    between atoms: C_1  and  C_2
REMARK    2  A    between atoms: N_7  and  C_8
REMARK    3  A    between atoms: C_8  and  C_9
REMARK    4  A    between atoms: C_9  and  O_10
REMARK    5  A    between atoms: C_9  and  C_11
REMARK    6  A    between atoms: C_11  and  O_12
REMARK    7  A    between atoms: O_12  and  C_13
REMARK                            x       y       z     vdW  Elec       q    Type
REMARK                         _______ _______ _______ _____ _____    ______ ____
ROOT
ATOM      1  C   UNL     1       1.562   3.929  19.409  0.00  0.00    +0.000 C 
ENDROOT
BRANCH   1   2
ATOM      2  O   UNL     1       1.988   2.679  19.966  0.00  0.00    +0.000 OA
ATOM      3  H   UNL     1       1.200   2.109  20.024  0.00  0.00    +0.000 HD
ENDBRANCH   1   2
BRANCH   1   4
ATOM      4  C   UNL     1       2.507   4.354  18.261  0.00  0.00    +0.000 C 
BRANCH   4  11
ATOM      5  C   UNL     1       8.019   6.413  18.654  0.00  0.00    +0.000 C 
ATOM      6  C   UNL     1       7.122   6.133  17.478  0.00  0.00    +0.000 C 
ATOM      7  O   UNL     1       7.526   6.341  16.333  0.00  0.00    +0.000 OA
ATOM      8  N   UNL     1       5.871   5.615  17.749  0.00  0.00    +0.000 N 
ATOM      9  C   UNL     1       4.992   5.242  16.636  0.00  0.00    +0.000 C 
ATOM     10  C   UNL     1       4.467   3.808  16.836  0.00  0.00    +0.000 C 
ATOM     11  N   UNL     1       3.770   3.585  18.133  0.00  0.00    +0.000 NA
ATOM     12  C   UNL     1       4.718   3.961  19.213  0.00  0.00    +0.000 C 
ATOM     13  C   UNL     1       5.308   5.385  19.086  0.00  0.00    +0.000 C 
ENDBRANCH   4  11
ENDBRANCH   1   4
BRANCH   1  14
ATOM     14  C   UNL     1       1.441   5.033  20.465  0.00  0.00    +0.000 C 
BRANCH  14  15
ATOM     15  O   UNL     1       2.429   6.036  20.202  0.00  0.00    +0.000 OA
BRANCH  15  16
ATOM     16  C   UNL     1       1.955   7.289  19.917  0.00  0.00    +0.000 A 
ATOM     17  C   UNL     1       2.113   7.959  18.702  0.00  0.00    +0.000 A 
ATOM     18  C   UNL     1       1.575   9.241  18.532  0.00  0.00    +0.000 A 
ATOM     19  C   UNL     1       0.880   9.843  19.574  0.00  0.00    +0.000 A 
ATOM     20 BR   UNL     1       0.144  11.568  19.330  0.00  0.00    +0.000 Br
ATOM     21  C   UNL     1       0.721   9.186  20.789  0.00  0.00    +0.000 A 
ATOM     22  C   UNL     1       1.261   7.910  20.958  0.00  0.00    +0.000 A 
ENDBRANCH  15  16
ENDBRANCH  14  15
ENDBRANCH   1  14
TORSDOF 6
ENDMDL
MODEL 5
REMARK VINA RESULT:      -6.7      3.922      7.198
REMARK  Name = 
REMARK  7 active torsions:
REMARK  status: ('A' for Active; 'I' for Inactive)
REMARK    1  A    between atoms: C_1  and  C_2
REMARK    2  A    between atoms: N_7  and  C_8
REMARK    3  A    between atoms: C_8  and  C_9
REMARK    4  A    between atoms: C_9  and  O_10
REMARK    5  A    between atoms: C_9  and  C_11
REMARK    6  A    between atoms: C_11  and  O_12
REMARK    7  A    between atoms: O_12  and  C_13
REMARK                            x       y       z     vdW  Elec       q    Type
REMARK                         _______ _______ _______ _____ _____    ______ ____
ROOT
ATOM      1  C   UNL     1       1.324   4.238  19.471  0.00  0.00    +0.000 C 
ENDROOT
BRANCH   1   2
ATOM      2  O   UNL     1       1.154   2.920  20.009  0.00  0.00    +0.000 OA
ATOM      3  H   UNL     1       1.657   2.886  20.843  0.00  0.00    +0.000 HD
ENDBRANCH   1   2
BRANCH   1   4
ATOM      4  C   UNL     1       2.384   4.226  18.346  0.00  0.00    +0.000 C 
BRANCH   4  11
ATOM      5  C   UNL     1       8.228   4.966  18.616  0.00  0.00    +0.000 C 
ATOM      6  C   UNL     1       7.294   4.672  17.471  0.00  0.00    +0.000 C 
ATOM      7  O   UNL     1       7.741   4.540  16.331  0.00  0.00    +0.000 OA
ATOM      8  N   UNL     1       5.954   4.528  17.774  0.00  0.00    +0.000 N 
ATOM      9  C   UNL     1       5.015   4.154  16.711  0.00  0.00    +0.000 C 
ATOM     10  C   UNL     1       4.160   2.955  17.162  0.00  0.00    +0.000 C 
ATOM     11  N   UNL     1       3.426   3.171  18.439  0.00  0.00    +0.000 NA
ATOM     12  C   UNL     1       4.432   3.526  19.471  0.00  0.00    +0.000 C 
ATOM     13  C   UNL     1       5.348   4.714  19.098  0.00  0.00    +0.000 C 
ENDBRANCH   4  11
ENDBRANCH   1   4
BRANCH   1  14
ATOM     14  C   UNL     1       1.670   5.272  20.548  0.00  0.00    +0.000 C 
BRANCH  14  15
ATOM     15  O   UNL     1       2.523   6.270  19.975  0.00  0.00    +0.000 OA
BRANCH  15  16
ATOM     16  C   UNL     1       1.977   7.516  19.824  0.00  0.00    +0.000 A 
ATOM     17  C   UNL     1       1.298   8.229  20.815  0.00  0.00    +0.000 A 
ATOM     18  C   UNL     1       0.786   9.504  20.538  0.00  0.00    +0.000 A 
ATOM     19  C   UNL     1       0.961  10.059  19.276  0.00  0.00    +0.000 A 
ATOM     20 BR   UNL     1       0.281  11.786  18.915  0.00  0.00    +0.000 Br
ATOM     21  C   UNL     1       1.631   9.355  18.281  0.00  0.00    +0.000 A 
ATOM     22  C   UNL     1       2.136   8.084  18.558  0.00  0.00    +0.000 A 
ENDBRANCH  15  16
ENDBRANCH  14  15
ENDBRANCH   1  14
TORSDOF 6
ENDMDL
MODEL 6
REMARK VINA RESULT:      -6.7      4.819      6.161
REMARK  Name = 
REMARK  7 active torsions:
REMARK  status: ('A' for Active; 'I' for Inactive)
REMARK    1  A    between atoms: C_1  and  C_2
REMARK    2  A    between atoms: N_7  and  C_8
REMARK    3  A    between atoms: C_8  and  C_9
REMARK    4  A    between atoms: C_9  and  O_10
REMARK    5  A    between atoms: C_9  and  C_11
REMARK    6  A    between atoms: C_11  and  O_12
REMARK    7  A    between atoms: O_12  and  C_13
REMARK                            x       y       z     vdW  Elec       q    Type
REMARK                         _______ _______ _______ _____ _____    ______ ____
ROOT
ATOM      1  C   UNL     1       7.202   6.362  17.415  0.00  0.00    +0.000 C 
ENDROOT
BRANCH   1   2
ATOM      2  O   UNL     1       7.484   6.305  16.011  0.00  0.00    +0.000 OA
ATOM      3  H   UNL     1       7.974   7.117  15.785  0.00  0.00    +0.000 HD
ENDBRANCH   1   2
BRANCH   1   4
ATOM      4  C   UNL     1       5.687   6.563  17.650  0.00  0.00    +0.000 C 
BRANCH   4  11
ATOM      5  C   UNL     1       1.296   4.018  20.652  0.00  0.00    +0.000 C 
ATOM      6  C   UNL     1       2.739   3.639  20.448  0.00  0.00    +0.000 C 
ATOM      7  O   UNL     1       3.185   2.614  20.967  0.00  0.00    +0.000 OA
ATOM      8  N   UNL     1       3.499   4.464  19.643  0.00  0.00    +0.000 N 
ATOM      9  C   UNL     1       4.885   4.093  19.340  0.00  0.00    +0.000 C 
ATOM     10  C   UNL     1       5.126   4.150  17.820  0.00  0.00    +0.000 C 
ATOM     11  N   UNL     1       4.801   5.462  17.196  0.00  0.00    +0.000 NA
ATOM     12  C   UNL     1       3.385   5.767  17.522  0.00  0.00    +0.000 C 
ATOM     13  C   UNL     1       3.047   5.720  19.030  0.00  0.00    +0.000 C 
ENDBRANCH   4  11
ENDBRANCH   1   4
BRANCH   1  14
ATOM     14  C   UNL     1       8.022   7.437  18.136  0.00  0.00    +0.000 C 
BRANCH  14  15
ATOM     15  O   UNL     1       7.880   8.677  17.434  0.00  0.00    +0.000 OA
BRANCH  15  16
ATOM     16  C   UNL     1       8.415   9.780  18.044  0.00  0.00    +0.000 A 
ATOM     17  C   UNL     1       8.365  11.085  17.549  0.00  0.00    +0.000 A 
ATOM     18  C   UNL     1       8.949  12.134  18.272  0.00  0.00    +0.000 A 
ATOM     19  C   UNL     1       9.574  11.873  19.485  0.00  0.00    +0.000 A 
ATOM     20 BR   UNL     1      10.347  13.296  20.461  0.00  0.00    +0.000 Br
ATOM     21  C   UNL     1       9.635  10.575  19.984  0.00  0.00    +0.000 A 
ATOM     22  C   UNL     1       9.055   9.532  19.260  0.00  0.00    +0.000 A 
ENDBRANCH  15  16
ENDBRANCH  14  15
ENDBRANCH   1  14
TORSDOF 6
ENDMDL
MODEL 7
REMARK VINA RESULT:      -6.7      3.653      7.176
REMARK  Name = 
REMARK  7 active torsions:
REMARK  status: ('A' for Active; 'I' for Inactive)
REMARK    1  A    between atoms: C_1  and  C_2
REMARK    2  A    between atoms: N_7  and  C_8
REMARK    3  A    between atoms: C_8  and  C_9
REMARK    4  A    between atoms: C_9  and  O_10
REMARK    5  A    between atoms: C_9  and  C_11
REMARK    6  A    between atoms: C_11  and  O_12
REMARK    7  A    between atoms: O_12  and  C_13
REMARK                            x       y       z     vdW  Elec       q    Type
REMARK                         _______ _______ _______ _____ _____    ______ ____
ROOT
ATOM      1  C   UNL     1       4.500   3.684  19.254  0.00  0.00    +0.000 C 
ENDROOT
BRANCH   1   2
ATOM      2  O   UNL     1       5.175   2.601  19.905  0.00  0.00    +0.000 OA
ATOM      3  H   UNL     1       5.782   2.994  20.558  0.00  0.00    +0.000 HD
ENDBRANCH   1   2
BRANCH   1   4
ATOM      4  C   UNL     1       5.523   4.723  18.740  0.00  0.00    +0.000 C 
BRANCH   4  11
ATOM      5  C   UNL     1       6.468   3.987  12.966  0.00  0.00    +0.000 C 
ATOM      6  C   UNL     1       7.175   4.806  14.013  0.00  0.00    +0.000 C 
ATOM      7  O   UNL     1       8.151   5.490  13.704  0.00  0.00    +0.000 OA
ATOM      8  N   UNL     1       6.659   4.770  15.294  0.00  0.00    +0.000 N 
ATOM      9  C   UNL     1       7.256   5.618  16.332  0.00  0.00    +0.000 C 
ATOM     10  C   UNL     1       6.158   6.427  17.047  0.00  0.00    +0.000 C 
ATOM     11  N   UNL     1       5.067   5.599  17.630  0.00  0.00    +0.000 NA
ATOM     12  C   UNL     1       4.496   4.784  16.528  0.00  0.00    +0.000 C 
ATOM     13  C   UNL     1       5.530   3.945  15.743  0.00  0.00    +0.000 C 
ENDBRANCH   4  11
ENDBRANCH   1   4
BRANCH   1  14
ATOM     14  C   UNL     1       3.446   4.343  20.151  0.00  0.00    +0.000 C 
BRANCH  14  15
ATOM     15  O   UNL     1       2.418   4.902  19.325  0.00  0.00    +0.000 OA
BRANCH  15  16
ATOM     16  C   UNL     1       2.045   6.187  19.614  0.00  0.00    +0.000 A 
ATOM     17  C   UNL     1       1.524   6.626  20.833  0.00  0.00    +0.000 A 
ATOM     18  C   UNL     1       1.183   7.974  21.007  0.00  0.00    +0.000 A 
ATOM     19  C   UNL     1       1.370   8.874  19.965  0.00  0.00    +0.000 A 
ATOM     20 BR   UNL     1       0.921  10.694  20.214  0.00  0.00    +0.000 Br
ATOM     21  C   UNL     1       1.883   8.446  18.745  0.00  0.00    +0.000 A 
ATOM     22  C   UNL     1       2.218   7.102  18.573  0.00  0.00    +0.000 A 
ENDBRANCH  15  16
ENDBRANCH  14  15
ENDBRANCH   1  14
TORSDOF 6
ENDMDL
MODEL 8
REMARK VINA RESULT:      -6.6      5.056      6.531
REMARK  Name = 
REMARK  7 active torsions:
REMARK  status: ('A' for Active; 'I' for Inactive)
REMARK    1  A    between atoms: C_1  and  C_2
REMARK    2  A    between atoms: N_7  and  C_8
REMARK    3  A    between atoms: C_8  and  C_9
REMARK    4  A    between atoms: C_9  and  O_10
REMARK    5  A    between atoms: C_9  and  C_11
REMARK    6  A    between atoms: C_11  and  O_12
REMARK    7  A    between atoms: O_12  and  C_13
REMARK                            x       y       z     vdW  Elec       q    Type
REMARK                         _______ _______ _______ _____ _____    ______ ____
ROOT
ATOM      1  C   UNL     1       7.127   7.059  17.421  0.00  0.00    +0.000 C 
ENDROOT
BRANCH   1   2
ATOM      2  O   UNL     1       7.711   6.519  16.228  0.00  0.00    +0.000 OA
ATOM      3  H   UNL     1       8.674   6.648  16.299  0.00  0.00    +0.000 HD
ENDBRANCH   1   2
BRANCH   1   4
ATOM      4  C   UNL     1       5.598   6.829  17.421  0.00  0.00    +0.000 C 
BRANCH   4  11
ATOM      5  C   UNL     1       3.462   1.423  18.413  0.00  0.00    +0.000 C 
ATOM      6  C   UNL     1       2.800   2.723  18.037  0.00  0.00    +0.000 C 
ATOM      7  O   UNL     1       1.578   2.770  17.885  0.00  0.00    +0.000 OA
ATOM      8  N   UNL     1       3.615   3.831  17.910  0.00  0.00    +0.000 N 
ATOM      9  C   UNL     1       3.011   5.138  17.633  0.00  0.00    +0.000 C 
ATOM     10  C   UNL     1       3.531   6.183  18.638  0.00  0.00    +0.000 C 
ATOM     11  N   UNL     1       5.014   6.306  18.682  0.00  0.00    +0.000 NA
ATOM     12  C   UNL     1       5.559   4.958  18.985  0.00  0.00    +0.000 C 
ATOM     13  C   UNL     1       5.078   3.839  18.032  0.00  0.00    +0.000 C 
ENDBRANCH   4  11
ENDBRANCH   1   4
BRANCH   1  14
ATOM     14  C   UNL     1       7.465   8.540  17.622  0.00  0.00    +0.000 C 
BRANCH  14  15
ATOM     15  O   UNL     1       8.542   8.647  18.560  0.00  0.00    +0.000 OA
BRANCH  15  16
ATOM     16  C   UNL     1       8.963   9.916  18.852  0.00  0.00    +0.000 A 
ATOM     17  C   UNL     1       9.462  10.341  20.085  0.00  0.00    +0.000 A 
ATOM     18  C   UNL     1       9.867  11.671  20.259  0.00  0.00    +0.000 A 
ATOM     19  C   UNL     1       9.775  12.566  19.199  0.00  0.00    +0.000 A 
ATOM     20 BR   UNL     1      10.337  14.355  19.438  0.00  0.00    +0.000 Br
ATOM     21  C   UNL     1       9.274  12.154  17.969  0.00  0.00    +0.000 A 
ATOM     22  C   UNL     1       8.868  10.829  17.799  0.00  0.00    +0.000 A 
ENDBRANCH  15  16
ENDBRANCH  14  15
ENDBRANCH   1  14
TORSDOF 6
ENDMDL
MODEL 9
REMARK VINA RESULT:      -6.5      4.191      7.307
REMARK  Name = 
REMARK  7 active torsions:
REMARK  status: ('A' for Active; 'I' for Inactive)
REMARK    1  A    between atoms: C_1  and  C_2
REMARK    2  A    between atoms: N_7  and  C_8
REMARK    3  A    between atoms: C_8  and  C_9
REMARK    4  A    between atoms: C_9  and  O_10
REMARK    5  A    between atoms: C_9  and  C_11
REMARK    6  A    between atoms: C_11  and  O_12
REMARK    7  A    between atoms: O_12  and  C_13
REMARK                            x       y       z     vdW  Elec       q    Type
REMARK                         _______ _______ _______ _____ _____    ______ ____
ROOT
ATOM      1  C   UNL     1       1.492   4.491  20.008  0.00  0.00    +0.000 C 
ENDROOT
BRANCH   1   2
ATOM      2  O   UNL     1       0.571   3.500  20.481  0.00  0.00    +0.000 OA
ATOM      3  H   UNL     1      -0.001   3.934  21.141  0.00  0.00    +0.000 HD
ENDBRANCH   1   2
BRANCH   1   4
ATOM      4  C   UNL     1       2.947   4.001  20.190  0.00  0.00    +0.000 C 
BRANCH   4  11
ATOM      5  C   UNL     1       7.318   6.271  16.947  0.00  0.00    +0.000 C 
ATOM      6  C   UNL     1       5.822   6.278  16.780  0.00  0.00    +0.000 C 
ATOM      7  O   UNL     1       5.314   6.840  15.809  0.00  0.00    +0.000 OA
ATOM      8  N   UNL     1       5.079   5.609  17.733  0.00  0.00    +0.000 N 
ATOM      9  C   UNL     1       3.625   5.510  17.570  0.00  0.00    +0.000 C 
ATOM     10  C   UNL     1       3.177   4.044  17.716  0.00  0.00    +0.000 C 
ATOM     11  N   UNL     1       3.591   3.401  18.993  0.00  0.00    +0.000 NA
ATOM     12  C   UNL     1       5.068   3.518  19.086  0.00  0.00    +0.000 C 
ATOM     13  C   UNL     1       5.612   4.957  18.936  0.00  0.00    +0.000 C 
ENDBRANCH   4  11
ENDBRANCH   1   4
BRANCH   1  14
ATOM     14  C   UNL     1       1.279   5.855  20.672  0.00  0.00    +0.000 C 
BRANCH  14  15
ATOM     15  O   UNL     1       2.267   6.769  20.180  0.00  0.00    +0.000 OA
BRANCH  15  16
ATOM     16  C   UNL     1       1.808   7.996  19.783  0.00  0.00    +0.000 A 
ATOM     17  C   UNL     1       1.958   8.544  18.507  0.00  0.00    +0.000 A 
ATOM     18  C   UNL     1       1.437   9.813  18.221  0.00  0.00    +0.000 A 
ATOM     19  C   UNL     1       0.767  10.523  19.210  0.00  0.00    +0.000 A 
ATOM     20 BR   UNL     1       0.055  12.229  18.811  0.00  0.00    +0.000 Br
ATOM     21  C   UNL     1       0.617   9.989  20.485  0.00  0.00    +0.000 A 
ATOM     22  C   UNL     1       1.140   8.726  20.768  0.00  0.00    +0.000 A 
ENDBRANCH  15  16
ENDBRANCH  14  15
ENDBRANCH   1  14
TORSDOF 6
ENDMDL
