MODEL 1
REMARK VINA RESULT:      -8.6      0.000      0.000
REMARK  Name = 
REMARK  7 active torsions:
REMARK  status: ('A' for Active; 'I' for Inactive)
REMARK    1  A    between atoms: C_2  and  O_3
REMARK    2  A    between atoms: C_2  and  C_9
REMARK    3  A    between atoms: O_3  and  C_4
REMARK    4  A    between atoms: C_4  and  C_5
REMARK    5  A    between atoms: C_16  and  C_17
REMARK    6  A    between atoms: C_17  and  N_18
REMARK    7  A    between atoms: C_19  and  C_21
REMARK                            x       y       z     vdW  Elec       q    Type
REMARK                         _______ _______ _______ _____ _____    ______ ____
ROOT
ATOM      1  C   UNL     1       2.827   4.065  18.602  0.00  0.00    +0.000 A 
ATOM      2  C   UNL     1       2.772   3.155  19.676  0.00  0.00    +0.000 A 
ATOM      3  C   UNL     1       2.423   3.567  20.956  0.00  0.00    +0.000 A 
ATOM      4  F   UNL     1       2.392   2.666  21.947  0.00  0.00    +0.000 F 
ATOM      5  C   UNL     1       2.112   4.894  21.240  0.00  0.00    +0.000 A 
ATOM      6  C   UNL     1       2.161   5.827  20.190  0.00  0.00    +0.000 A 
ATOM      7  C   UNL     1       1.932   7.224  20.102  0.00  0.00    +0.000 A 
ATOM      8  C   UNL     1       2.165   7.579  18.790  0.00  0.00    +0.000 A 
ATOM      9  O   UNL     1       2.510   6.477  18.058  0.00  0.00    +0.000 OA
ATOM     10  C   UNL     1       2.516   5.400  18.906  0.00  0.00    +0.000 A 
ENDROOT
BRANCH   1  12
ATOM     11  O   UNL     1       2.389   3.142  16.463  0.00  0.00    +0.000 OA
ATOM     12  C   UNL     1       3.217   3.544  17.272  0.00  0.00    +0.000 C 
BRANCH  12  13
ATOM     13  O   UNL     1       4.552   3.521  17.062  0.00  0.00    +0.000 OA
BRANCH  13  14
ATOM     14  C   UNL     1       5.067   4.692  16.382  0.00  0.00    +0.000 C 
BRANCH  14  15
ATOM     15  C   UNL     1       6.273   4.423  15.483  0.00  0.00    +0.000 C 
ATOM     16  F   UNL     1       7.440   4.393  16.162  0.00  0.00    +0.000 F 
ATOM     17  F   UNL     1       6.141   3.219  14.869  0.00  0.00    +0.000 F 
ATOM     18  F   UNL     1       6.385   5.350  14.504  0.00  0.00    +0.000 F 
ENDBRANCH  14  15
ENDBRANCH  13  14
ENDBRANCH  12  13
ENDBRANCH   1  12
BRANCH   8  19
ATOM     19  C   UNL     1       2.163   8.894  18.096  0.00  0.00    +0.000 C 
BRANCH  19  20
ATOM     20  N   UNL     1       0.837   9.465  18.101  0.00  0.00    +0.000 N 
ATOM     21  C   UNL     1       0.436  10.369  19.055  0.00  0.00    +0.000 C 
ATOM     22  O   UNL     1       1.159  10.707  19.989  0.00  0.00    +0.000 OA
ATOM     23  H   UNL     1       0.173   9.202  17.377  0.00  0.00    +0.000 HD
BRANCH  21  24
ATOM     24  C   UNL     1      -0.894  10.919  18.892  0.00  0.00    +0.000 A 
ATOM     25  C   UNL     1      -1.526  11.818  19.779  0.00  0.00    +0.000 A 
ATOM     26  N   UNL     1      -2.748  12.179  19.390  0.00  0.00    +0.000 NA
ATOM     27  N   UNL     1      -2.944  11.499  18.239  0.00  0.00    +0.000 N 
ATOM     28  C   UNL     1      -4.089  11.500  17.447  0.00  0.00    +0.000 A 
ATOM     29  C   UNL     1      -4.143  10.757  16.334  0.00  0.00    +0.000 A 
ATOM     30  C   UNL     1      -2.910   9.977  16.038  0.00  0.00    +0.000 A 
ATOM     31  N   UNL     1      -1.819   9.952  16.748  0.00  0.00    +0.000 NA
ATOM     32  C   UNL     1      -1.829  10.721  17.887  0.00  0.00    +0.000 A 
ENDBRANCH  21  24
ENDBRANCH  19  20
ENDBRANCH   8  19
TORSDOF 7
ENDMDL
MODEL 2
REMARK VINA RESULT:      -8.5      1.485      1.781
REMARK  Name = 
REMARK  7 active torsions:
REMARK  status: ('A' for Active; 'I' for Inactive)
REMARK    1  A    between atoms: C_2  and  O_3
REMARK    2  A    between atoms: C_2  and  C_9
REMARK    3  A    between atoms: O_3  and  C_4
REMARK    4  A    between atoms: C_4  and  C_5
REMARK    5  A    between atoms: C_16  and  C_17
REMARK    6  A    between atoms: C_17  and  N_18
REMARK    7  A    between atoms: C_19  and  C_21
REMARK                            x       y       z     vdW  Elec       q    Type
REMARK                         _______ _______ _______ _____ _____    ______ ____
ROOT
ATOM      1  C   UNL     1       4.063   4.515  18.878  0.00  0.00    +0.000 A 
ATOM      2  C   UNL     1       3.829   3.483  19.809  0.00  0.00    +0.000 A 
ATOM      3  C   UNL     1       2.849   3.598  20.786  0.00  0.00    +0.000 A 
ATOM      4  F   UNL     1       2.669   2.594  21.654  0.00  0.00    +0.000 F 
ATOM      5  C   UNL     1       2.050   4.733  20.893  0.00  0.00    +0.000 A 
ATOM      6  C   UNL     1       2.261   5.782  19.981  0.00  0.00    +0.000 A 
ATOM      7  C   UNL     1       1.672   7.059  19.795  0.00  0.00    +0.000 A 
ATOM      8  C   UNL     1       2.331   7.646  18.735  0.00  0.00    +0.000 A 
ATOM      9  O   UNL     1       3.284   6.796  18.245  0.00  0.00    +0.000 OA
ATOM     10  C   UNL     1       3.253   5.654  19.003  0.00  0.00    +0.000 A 
ENDROOT
BRANCH   1  12
ATOM     11  O   UNL     1       4.889   4.148  16.686  0.00  0.00    +0.000 OA
ATOM     12  C   UNL     1       5.134   4.313  17.876  0.00  0.00    +0.000 C 
BRANCH  12  13
ATOM     13  O   UNL     1       6.378   4.293  18.401  0.00  0.00    +0.000 OA
BRANCH  13  14
ATOM     14  C   UNL     1       6.818   5.564  18.939  0.00  0.00    +0.000 C 
BRANCH  14  15
ATOM     15  C   UNL     1       7.288   6.569  17.888  0.00  0.00    +0.000 C 
ATOM     16  F   UNL     1       7.739   5.979  16.760  0.00  0.00    +0.000 F 
ATOM     17  F   UNL     1       6.263   7.383  17.526  0.00  0.00    +0.000 F 
ATOM     18  F   UNL     1       8.272   7.367  18.362  0.00  0.00    +0.000 F 
ENDBRANCH  14  15
ENDBRANCH  13  14
ENDBRANCH  12  13
ENDBRANCH   1  12
BRANCH   8  19
ATOM     19  C   UNL     1       2.225   8.992  18.115  0.00  0.00    +0.000 C 
BRANCH  19  20
ATOM     20  N   UNL     1       0.900   9.533  18.308  0.00  0.00    +0.000 N 
ATOM     21  C   UNL     1       0.695  10.823  18.733  0.00  0.00    +0.000 C 
ATOM     22  O   UNL     1       1.619  11.577  19.026  0.00  0.00    +0.000 OA
ATOM     23  H   UNL     1       0.087   8.952  18.121  0.00  0.00    +0.000 HD
BRANCH  21  24
ATOM     24  C   UNL     1      -0.686  11.257  18.809  0.00  0.00    +0.000 A 
ATOM     25  C   UNL     1      -1.233  12.089  19.810  0.00  0.00    +0.000 A 
ATOM     26  N   UNL     1      -2.529  12.347  19.640  0.00  0.00    +0.000 NA
ATOM     27  N   UNL     1      -2.858  11.663  18.522  0.00  0.00    +0.000 N 
ATOM     28  C   UNL     1      -4.116  11.572  17.933  0.00  0.00    +0.000 A 
ATOM     29  C   UNL     1      -4.295  10.838  16.828  0.00  0.00    +0.000 A 
ATOM     30  C   UNL     1      -3.068  10.171  16.311  0.00  0.00    +0.000 A 
ATOM     31  N   UNL     1      -1.874  10.234  16.827  0.00  0.00    +0.000 NA
ATOM     32  C   UNL     1      -1.757  10.988  17.970  0.00  0.00    +0.000 A 
ENDBRANCH  21  24
ENDBRANCH  19  20
ENDBRANCH   8  19
TORSDOF 7
ENDMDL
MODEL 3
REMARK VINA RESULT:      -8.5      2.587      3.364
REMARK  Name = 
REMARK  7 active torsions:
REMARK  status: ('A' for Active; 'I' for Inactive)
REMARK    1  A    between atoms: C_2  and  O_3
REMARK    2  A    between atoms: C_2  and  C_9
REMARK    3  A    between atoms: O_3  and  C_4
REMARK    4  A    between atoms: C_4  and  C_5
REMARK    5  A    between atoms: C_16  and  C_17
REMARK    6  A    between atoms: C_17  and  N_18
REMARK    7  A    between atoms: C_19  and  C_21
REMARK                            x       y       z     vdW  Elec       q    Type
REMARK                         _______ _______ _______ _____ _____    ______ ____
ROOT
ATOM      1  C   UNL     1       4.902   4.326  18.546  0.00  0.00    +0.000 A 
ATOM      2  C   UNL     1       4.652   2.940  18.590  0.00  0.00    +0.000 A 
ATOM      3  C   UNL     1       3.367   2.432  18.450  0.00  0.00    +0.000 A 
ATOM      4  F   UNL     1       3.177   1.107  18.507  0.00  0.00    +0.000 F 
ATOM      5  C   UNL     1       2.267   3.263  18.259  0.00  0.00    +0.000 A 
ATOM      6  C   UNL     1       2.483   4.651  18.213  0.00  0.00    +0.000 A 
ATOM      7  C   UNL     1       1.633   5.776  18.055  0.00  0.00    +0.000 A 
ATOM      8  C   UNL     1       2.441   6.892  18.120  0.00  0.00    +0.000 A 
ATOM      9  O   UNL     1       3.745   6.519  18.294  0.00  0.00    +0.000 OA
ATOM     10  C   UNL     1       3.782   5.150  18.358  0.00  0.00    +0.000 A 
ENDROOT
BRANCH   1  12
ATOM     11  O   UNL     1       6.682   5.352  19.730  0.00  0.00    +0.000 OA
ATOM     12  C   UNL     1       6.301   4.782  18.713  0.00  0.00    +0.000 C 
BRANCH  12  13
ATOM     13  O   UNL     1       7.086   4.546  17.640  0.00  0.00    +0.000 OA
BRANCH  13  14
ATOM     14  C   UNL     1       6.991   5.551  16.601  0.00  0.00    +0.000 C 
BRANCH  14  15
ATOM     15  C   UNL     1       6.220   5.106  15.358  0.00  0.00    +0.000 C 
ATOM     16  F   UNL     1       6.950   5.197  14.225  0.00  0.00    +0.000 F 
ATOM     17  F   UNL     1       5.841   3.808  15.481  0.00  0.00    +0.000 F 
ATOM     18  F   UNL     1       5.090   5.827  15.184  0.00  0.00    +0.000 F 
ENDBRANCH  14  15
ENDBRANCH  13  14
ENDBRANCH  12  13
ENDBRANCH   1  12
BRANCH   8  19
ATOM     19  C   UNL     1       2.138   8.347  18.097  0.00  0.00    +0.000 C 
BRANCH  19  20
ATOM     20  N   UNL     1       1.580   8.766  19.361  0.00  0.00    +0.000 N 
ATOM     21  C   UNL     1       0.989   9.995  19.525  0.00  0.00    +0.000 C 
ATOM     22  O   UNL     1       0.946  10.832  18.627  0.00  0.00    +0.000 OA
ATOM     23  H   UNL     1       1.613   8.137  20.159  0.00  0.00    +0.000 HD
BRANCH  21  24
ATOM     24  C   UNL     1       0.403  10.252  20.825  0.00  0.00    +0.000 A 
ATOM     25  C   UNL     1       0.821   9.677  22.043  0.00  0.00    +0.000 A 
ATOM     26  N   UNL     1       0.119  10.091  23.097  0.00  0.00    +0.000 NA
ATOM     27  N   UNL     1      -0.793  10.941  22.575  0.00  0.00    +0.000 N 
ATOM     28  C   UNL     1      -1.796  11.621  23.258  0.00  0.00    +0.000 A 
ATOM     29  C   UNL     1      -2.643  12.421  22.598  0.00  0.00    +0.000 A 
ATOM     30  C   UNL     1      -2.405  12.514  21.132  0.00  0.00    +0.000 A 
ATOM     31  N   UNL     1      -1.477  11.900  20.455  0.00  0.00    +0.000 NA
ATOM     32  C   UNL     1      -0.650  11.080  21.184  0.00  0.00    +0.000 A 
ENDBRANCH  21  24
ENDBRANCH  19  20
ENDBRANCH   8  19
TORSDOF 7
ENDMDL
MODEL 4
REMARK VINA RESULT:      -8.5      1.800      2.128
REMARK  Name = 
REMARK  7 active torsions:
REMARK  status: ('A' for Active; 'I' for Inactive)
REMARK    1  A    between atoms: C_2  and  O_3
REMARK    2  A    between atoms: C_2  and  C_9
REMARK    3  A    between atoms: O_3  and  C_4
REMARK    4  A    between atoms: C_4  and  C_5
REMARK    5  A    between atoms: C_16  and  C_17
REMARK    6  A    between atoms: C_17  and  N_18
REMARK    7  A    between atoms: C_19  and  C_21
REMARK                            x       y       z     vdW  Elec       q    Type
REMARK                         _______ _______ _______ _____ _____    ______ ____
ROOT
ATOM      1  C   UNL     1       4.607   4.578  18.350  0.00  0.00    +0.000 A 
ATOM      2  C   UNL     1       4.112   3.261  18.267  0.00  0.00    +0.000 A 
ATOM      3  C   UNL     1       2.773   3.007  18.001  0.00  0.00    +0.000 A 
ATOM      4  F   UNL     1       2.347   1.738  17.939  0.00  0.00    +0.000 F 
ATOM      5  C   UNL     1       1.857   4.036  17.802  0.00  0.00    +0.000 A 
ATOM      6  C   UNL     1       2.318   5.361  17.881  0.00  0.00    +0.000 A 
ATOM      7  C   UNL     1       1.697   6.630  17.755  0.00  0.00    +0.000 A 
ATOM      8  C   UNL     1       2.683   7.573  17.963  0.00  0.00    +0.000 A 
ATOM      9  O   UNL     1       3.881   6.957  18.195  0.00  0.00    +0.000 OA
ATOM     10  C   UNL     1       3.669   5.604  18.153  0.00  0.00    +0.000 A 
ENDROOT
BRANCH   1  12
ATOM     11  O   UNL     1       6.436   5.231  19.710  0.00  0.00    +0.000 OA
ATOM     12  C   UNL     1       6.046   4.759  18.648  0.00  0.00    +0.000 C 
BRANCH  12  13
ATOM     13  O   UNL     1       6.864   4.394  17.637  0.00  0.00    +0.000 OA
BRANCH  13  14
ATOM     14  C   UNL     1       6.907   5.336  16.536  0.00  0.00    +0.000 C 
BRANCH  14  15
ATOM     15  C   UNL     1       6.376   4.788  15.212  0.00  0.00    +0.000 C 
ATOM     16  F   UNL     1       5.276   5.439  14.776  0.00  0.00    +0.000 F 
ATOM     17  F   UNL     1       7.319   4.911  14.242  0.00  0.00    +0.000 F 
ATOM     18  F   UNL     1       6.075   3.472  15.298  0.00  0.00    +0.000 F 
ENDBRANCH  14  15
ENDBRANCH  13  14
ENDBRANCH  12  13
ENDBRANCH   1  12
BRANCH   8  19
ATOM     19  C   UNL     1       2.645   9.057  18.035  0.00  0.00    +0.000 C 
BRANCH  19  20
ATOM     20  N   UNL     1       1.307   9.514  18.327  0.00  0.00    +0.000 N 
ATOM     21  C   UNL     1       1.034  10.828  18.622  0.00  0.00    +0.000 C 
ATOM     22  O   UNL     1       1.913  11.681  18.709  0.00  0.00    +0.000 OA
ATOM     23  H   UNL     1       0.534   8.853  18.309  0.00  0.00    +0.000 HD
BRANCH  21  24
ATOM     24  C   UNL     1      -0.363  11.160  18.818  0.00  0.00    +0.000 A 
ATOM     25  C   UNL     1      -0.880  11.955  19.863  0.00  0.00    +0.000 A 
ATOM     26  N   UNL     1      -2.201  12.116  19.806  0.00  0.00    +0.000 NA
ATOM     27  N   UNL     1      -2.575  11.405  18.720  0.00  0.00    +0.000 N 
ATOM     28  C   UNL     1      -3.869  11.219  18.241  0.00  0.00    +0.000 A 
ATOM     29  C   UNL     1      -4.089  10.469  17.155  0.00  0.00    +0.000 A 
ATOM     30  C   UNL     1      -2.866   9.891  16.533  0.00  0.00    +0.000 A 
ATOM     31  N   UNL     1      -1.640  10.043  16.944  0.00  0.00    +0.000 NA
ATOM     32  C   UNL     1      -1.480  10.810  18.074  0.00  0.00    +0.000 A 
ENDBRANCH  21  24
ENDBRANCH  19  20
ENDBRANCH   8  19
TORSDOF 7
ENDMDL
MODEL 5
REMARK VINA RESULT:      -8.4      0.858      1.103
REMARK  Name = 
REMARK  7 active torsions:
REMARK  status: ('A' for Active; 'I' for Inactive)
REMARK    1  A    between atoms: C_2  and  O_3
REMARK    2  A    between atoms: C_2  and  C_9
REMARK    3  A    between atoms: O_3  and  C_4
REMARK    4  A    between atoms: C_4  and  C_5
REMARK    5  A    between atoms: C_16  and  C_17
REMARK    6  A    between atoms: C_17  and  N_18
REMARK    7  A    between atoms: C_19  and  C_21
REMARK                            x       y       z     vdW  Elec       q    Type
REMARK                         _______ _______ _______ _____ _____    ______ ____
ROOT
ATOM      1  C   UNL     1       2.784   4.128  18.513  0.00  0.00    +0.000 A 
ATOM      2  C   UNL     1       2.764   3.192  19.565  0.00  0.00    +0.000 A 
ATOM      3  C   UNL     1       2.462   3.572  20.866  0.00  0.00    +0.000 A 
ATOM      4  F   UNL     1       2.463   2.647  21.836  0.00  0.00    +0.000 F 
ATOM      5  C   UNL     1       2.164   4.892  21.194  0.00  0.00    +0.000 A 
ATOM      6  C   UNL     1       2.178   5.851  20.167  0.00  0.00    +0.000 A 
ATOM      7  C   UNL     1       1.950   7.250  20.122  0.00  0.00    +0.000 A 
ATOM      8  C   UNL     1       2.137   7.638  18.811  0.00  0.00    +0.000 A 
ATOM      9  O   UNL     1       2.454   6.553  18.041  0.00  0.00    +0.000 OA
ATOM     10  C   UNL     1       2.487   5.455  18.860  0.00  0.00    +0.000 A 
ENDROOT
BRANCH   1  12
ATOM     11  O   UNL     1       2.567   2.671  16.655  0.00  0.00    +0.000 OA
ATOM     12  C   UNL     1       3.126   3.640  17.158  0.00  0.00    +0.000 C 
BRANCH  12  13
ATOM     13  O   UNL     1       4.121   4.331  16.561  0.00  0.00    +0.000 OA
BRANCH  13  14
ATOM     14  C   UNL     1       5.439   3.761  16.751  0.00  0.00    +0.000 C 
BRANCH  14  15
ATOM     15  C   UNL     1       6.438   4.689  17.442  0.00  0.00    +0.000 C 
ATOM     16  F   UNL     1       7.705   4.222  17.404  0.00  0.00    +0.000 F 
ATOM     17  F   UNL     1       6.447   5.904  16.835  0.00  0.00    +0.000 F 
ATOM     18  F   UNL     1       6.112   4.903  18.737  0.00  0.00    +0.000 F 
ENDBRANCH  14  15
ENDBRANCH  13  14
ENDBRANCH  12  13
ENDBRANCH   1  12
BRANCH   8  19
ATOM     19  C   UNL     1       2.114   8.969  18.151  0.00  0.00    +0.000 C 
BRANCH  19  20
ATOM     20  N   UNL     1       0.779   9.518  18.170  0.00  0.00    +0.000 N 
ATOM     21  C   UNL     1       0.397  10.474  19.080  0.00  0.00    +0.000 C 
ATOM     22  O   UNL     1       1.146  10.880  19.964  0.00  0.00    +0.000 OA
ATOM     23  H   UNL     1       0.094   9.201  17.488  0.00  0.00    +0.000 HD
BRANCH  21  24
ATOM     24  C   UNL     1      -0.948  10.992  18.934  0.00  0.00    +0.000 A 
ATOM     25  C   UNL     1      -1.604  11.847  19.846  0.00  0.00    +0.000 A 
ATOM     26  N   UNL     1      -2.836  12.185  19.468  0.00  0.00    +0.000 NA
ATOM     27  N   UNL     1      -3.014  11.534  18.297  0.00  0.00    +0.000 N 
ATOM     28  C   UNL     1      -4.158  11.527  17.506  0.00  0.00    +0.000 A 
ATOM     29  C   UNL     1      -4.193  10.816  16.372  0.00  0.00    +0.000 A 
ATOM     30  C   UNL     1      -2.940  10.080  16.053  0.00  0.00    +0.000 A 
ATOM     31  N   UNL     1      -1.847  10.063  16.762  0.00  0.00    +0.000 NA
ATOM     32  C   UNL     1      -1.878  10.798  17.923  0.00  0.00    +0.000 A 
ENDBRANCH  21  24
ENDBRANCH  19  20
ENDBRANCH   8  19
TORSDOF 7
ENDMDL
MODEL 6
REMARK VINA RESULT:      -8.4      2.232      4.566
REMARK  Name = 
REMARK  7 active torsions:
REMARK  status: ('A' for Active; 'I' for Inactive)
REMARK    1  A    between atoms: C_2  and  O_3
REMARK    2  A    between atoms: C_2  and  C_9
REMARK    3  A    between atoms: O_3  and  C_4
REMARK    4  A    between atoms: C_4  and  C_5
REMARK    5  A    between atoms: C_16  and  C_17
REMARK    6  A    between atoms: C_17  and  N_18
REMARK    7  A    between atoms: C_19  and  C_21
REMARK                            x       y       z     vdW  Elec       q    Type
REMARK                         _______ _______ _______ _____ _____    ______ ____
ROOT
ATOM      1  C   UNL     1       4.537   4.261  17.858  0.00  0.00    +0.000 A 
ATOM      2  C   UNL     1       5.324   4.156  16.695  0.00  0.00    +0.000 A 
ATOM      3  C   UNL     1       5.511   5.241  15.848  0.00  0.00    +0.000 A 
ATOM      4  F   UNL     1       6.262   5.091  14.748  0.00  0.00    +0.000 F 
ATOM      5  C   UNL     1       4.933   6.481  16.106  0.00  0.00    +0.000 A 
ATOM      6  C   UNL     1       4.138   6.617  17.257  0.00  0.00    +0.000 A 
ATOM      7  C   UNL     1       3.398   7.686  17.823  0.00  0.00    +0.000 A 
ATOM      8  C   UNL     1       2.800   7.191  18.963  0.00  0.00    +0.000 A 
ATOM      9  O   UNL     1       3.142   5.879  19.142  0.00  0.00    +0.000 OA
ATOM     10  C   UNL     1       3.956   5.516  18.101  0.00  0.00    +0.000 A 
ENDROOT
BRANCH   1  12
ATOM     11  O   UNL     1       4.944   2.939  19.784  0.00  0.00    +0.000 OA
ATOM     12  C   UNL     1       4.382   3.053  18.701  0.00  0.00    +0.000 C 
BRANCH  12  13
ATOM     13  O   UNL     1       3.607   2.095  18.147  0.00  0.00    +0.000 OA
BRANCH  13  14
ATOM     14  C   UNL     1       2.282   2.545  17.773  0.00  0.00    +0.000 C 
BRANCH  14  15
ATOM     15  C   UNL     1       1.269   2.552  18.918  0.00  0.00    +0.000 C 
ATOM     16  F   UNL     1       1.709   1.901  20.015  0.00  0.00    +0.000 F 
ATOM     17  F   UNL     1       0.999   3.828  19.297  0.00  0.00    +0.000 F 
ATOM     18  F   UNL     1       0.091   1.998  18.549  0.00  0.00    +0.000 F 
ENDBRANCH  14  15
ENDBRANCH  13  14
ENDBRANCH  12  13
ENDBRANCH   1  12
BRANCH   8  19
ATOM     19  C   UNL     1       1.852   7.795  19.935  0.00  0.00    +0.000 C 
BRANCH  19  20
ATOM     20  N   UNL     1       1.300   9.020  19.407  0.00  0.00    +0.000 N 
ATOM     21  C   UNL     1       0.287   9.696  20.043  0.00  0.00    +0.000 C 
ATOM     22  O   UNL     1      -0.248   9.275  21.065  0.00  0.00    +0.000 OA
ATOM     23  H   UNL     1       1.671   9.408  18.544  0.00  0.00    +0.000 HD
BRANCH  21  24
ATOM     24  C   UNL     1      -0.116  10.952  19.442  0.00  0.00    +0.000 A 
ATOM     25  C   UNL     1      -1.137  11.115  18.482  0.00  0.00    +0.000 A 
ATOM     26  N   UNL     1      -1.314  12.379  18.101  0.00  0.00    +0.000 NA
ATOM     27  N   UNL     1      -0.387  13.069  18.801  0.00  0.00    +0.000 N 
ATOM     28  C   UNL     1      -0.132  14.436  18.737  0.00  0.00    +0.000 A 
ATOM     29  C   UNL     1       0.838  14.979  19.483  0.00  0.00    +0.000 A 
ATOM     30  C   UNL     1       1.571  14.021  20.355  0.00  0.00    +0.000 A 
ATOM     31  N   UNL     1       1.360  12.740  20.449  0.00  0.00    +0.000 NA
ATOM     32  C   UNL     1       0.365  12.237  19.647  0.00  0.00    +0.000 A 
ENDBRANCH  21  24
ENDBRANCH  19  20
ENDBRANCH   8  19
TORSDOF 7
ENDMDL
MODEL 7
REMARK VINA RESULT:      -8.4      2.149      2.627
REMARK  Name = 
REMARK  7 active torsions:
REMARK  status: ('A' for Active; 'I' for Inactive)
REMARK    1  A    between atoms: C_2  and  O_3
REMARK    2  A    between atoms: C_2  and  C_9
REMARK    3  A    between atoms: O_3  and  C_4
REMARK    4  A    between atoms: C_4  and  C_5
REMARK    5  A    between atoms: C_16  and  C_17
REMARK    6  A    between atoms: C_17  and  N_18
REMARK    7  A    between atoms: C_19  and  C_21
REMARK                            x       y       z     vdW  Elec       q    Type
REMARK                         _______ _______ _______ _____ _____    ______ ____
ROOT
ATOM      1  C   UNL     1       3.678   5.282  17.653  0.00  0.00    +0.000 A 
ATOM      2  C   UNL     1       3.583   3.931  17.266  0.00  0.00    +0.000 A 
ATOM      3  C   UNL     1       2.738   3.047  17.924  0.00  0.00    +0.000 A 
ATOM      4  F   UNL     1       2.688   1.769  17.525  0.00  0.00    +0.000 F 
ATOM      5  C   UNL     1       1.943   3.451  18.993  0.00  0.00    +0.000 A 
ATOM      6  C   UNL     1       2.017   4.793  19.407  0.00  0.00    +0.000 A 
ATOM      7  C   UNL     1       1.391   5.543  20.434  0.00  0.00    +0.000 A 
ATOM      8  C   UNL     1       1.897   6.824  20.350  0.00  0.00    +0.000 A 
ATOM      9  O   UNL     1       2.789   6.910  19.318  0.00  0.00    +0.000 OA
ATOM     10  C   UNL     1       2.875   5.672  18.737  0.00  0.00    +0.000 A 
ENDROOT
BRANCH   1  12
ATOM     11  O   UNL     1       4.282   7.262  16.496  0.00  0.00    +0.000 OA
ATOM     12  C   UNL     1       4.612   6.153  16.904  0.00  0.00    +0.000 C 
BRANCH  12  13
ATOM     13  O   UNL     1       5.824   5.598  16.688  0.00  0.00    +0.000 OA
BRANCH  13  14
ATOM     14  C   UNL     1       6.936   6.387  17.180  0.00  0.00    +0.000 C 
BRANCH  14  15
ATOM     15  C   UNL     1       7.534   5.889  18.495  0.00  0.00    +0.000 C 
ATOM     16  F   UNL     1       6.608   5.710  19.461  0.00  0.00    +0.000 F 
ATOM     17  F   UNL     1       8.145   4.690  18.307  0.00  0.00    +0.000 F 
ATOM     18  F   UNL     1       8.475   6.735  18.971  0.00  0.00    +0.000 F 
ENDBRANCH  14  15
ENDBRANCH  13  14
ENDBRANCH  12  13
ENDBRANCH   1  12
BRANCH   8  19
ATOM     19  C   UNL     1       1.691   8.035  21.187  0.00  0.00    +0.000 C 
BRANCH  19  20
ATOM     20  N   UNL     1       0.629   8.849  20.642  0.00  0.00    +0.000 N 
ATOM     21  C   UNL     1       0.340  10.096  21.139  0.00  0.00    +0.000 C 
ATOM     22  O   UNL     1       0.926  10.574  22.107  0.00  0.00    +0.000 OA
ATOM     23  H   UNL     1       0.078   8.501  19.862  0.00  0.00    +0.000 HD
BRANCH  21  24
ATOM     24  C   UNL     1      -0.698  10.833  20.447  0.00  0.00    +0.000 A 
ATOM     25  C   UNL     1      -1.418  11.928  20.971  0.00  0.00    +0.000 A 
ATOM     26  N   UNL     1      -2.312  12.434  20.123  0.00  0.00    +0.000 NA
ATOM     27  N   UNL     1      -2.202  11.656  19.023  0.00  0.00    +0.000 N 
ATOM     28  C   UNL     1      -2.949  11.745  17.852  0.00  0.00    +0.000 A 
ATOM     29  C   UNL     1      -2.737  10.887  16.847  0.00  0.00    +0.000 A 
ATOM     30  C   UNL     1      -1.665   9.884  17.092  0.00  0.00    +0.000 A 
ATOM     31  N   UNL     1      -0.941   9.769  18.168  0.00  0.00    +0.000 NA
ATOM     32  C   UNL     1      -1.216  10.667  19.171  0.00  0.00    +0.000 A 
ENDBRANCH  21  24
ENDBRANCH  19  20
ENDBRANCH   8  19
TORSDOF 7
ENDMDL
MODEL 8
REMARK VINA RESULT:      -8.4      1.731      2.081
REMARK  Name = 
REMARK  7 active torsions:
REMARK  status: ('A' for Active; 'I' for Inactive)
REMARK    1  A    between atoms: C_2  and  O_3
REMARK    2  A    between atoms: C_2  and  C_9
REMARK    3  A    between atoms: O_3  and  C_4
REMARK    4  A    between atoms: C_4  and  C_5
REMARK    5  A    between atoms: C_16  and  C_17
REMARK    6  A    between atoms: C_17  and  N_18
REMARK    7  A    between atoms: C_19  and  C_21
REMARK                            x       y       z     vdW  Elec       q    Type
REMARK                         _______ _______ _______ _____ _____    ______ ____
ROOT
ATOM      1  C   UNL     1       4.361   4.901  17.706  0.00  0.00    +0.000 A 
ATOM      2  C   UNL     1       4.321   3.790  18.571  0.00  0.00    +0.000 A 
ATOM      3  C   UNL     1       3.552   3.801  19.727  0.00  0.00    +0.000 A 
ATOM      4  F   UNL     1       3.551   2.724  20.524  0.00  0.00    +0.000 F 
ATOM      5  C   UNL     1       2.784   4.906  20.087  0.00  0.00    +0.000 A 
ATOM      6  C   UNL     1       2.806   6.032  19.246  0.00  0.00    +0.000 A 
ATOM      7  C   UNL     1       2.186   7.307  19.290  0.00  0.00    +0.000 A 
ATOM      8  C   UNL     1       2.620   7.995  18.177  0.00  0.00    +0.000 A 
ATOM      9  O   UNL     1       3.462   7.210  17.438  0.00  0.00    +0.000 OA
ATOM     10  C   UNL     1       3.587   6.008  18.085  0.00  0.00    +0.000 A 
ENDROOT
BRANCH   1  12
ATOM     11  O   UNL     1       4.741   4.727  15.372  0.00  0.00    +0.000 OA
ATOM     12  C   UNL     1       5.215   4.809  16.500  0.00  0.00    +0.000 C 
BRANCH  12  13
ATOM     13  O   UNL     1       6.539   4.786  16.767  0.00  0.00    +0.000 OA
BRANCH  13  14
ATOM     14  C   UNL     1       7.064   6.035  17.280  0.00  0.00    +0.000 C 
BRANCH  14  15
ATOM     15  C   UNL     1       7.702   5.932  18.665  0.00  0.00    +0.000 C 
ATOM     16  F   UNL     1       6.792   5.827  19.658  0.00  0.00    +0.000 F 
ATOM     17  F   UNL     1       8.494   4.831  18.737  0.00  0.00    +0.000 F 
ATOM     18  F   UNL     1       8.491   6.997  18.934  0.00  0.00    +0.000 F 
ENDBRANCH  14  15
ENDBRANCH  13  14
ENDBRANCH  12  13
ENDBRANCH   1  12
BRANCH   8  19
ATOM     19  C   UNL     1       2.387   9.386  17.709  0.00  0.00    +0.000 C 
BRANCH  19  20
ATOM     20  N   UNL     1       1.031   9.793  17.993  0.00  0.00    +0.000 N 
ATOM     21  C   UNL     1       0.747  10.933  18.705  0.00  0.00    +0.000 C 
ATOM     22  O   UNL     1       1.623  11.646  19.187  0.00  0.00    +0.000 OA
ATOM     23  H   UNL     1       0.255   9.230  17.655  0.00  0.00    +0.000 HD
BRANCH  21  24
ATOM     24  C   UNL     1      -0.657  11.261  18.848  0.00  0.00    +0.000 A 
ATOM     25  C   UNL     1      -1.221  12.021  19.896  0.00  0.00    +0.000 A 
ATOM     26  N   UNL     1      -2.538  12.187  19.785  0.00  0.00    +0.000 NA
ATOM     27  N   UNL     1      -2.863  11.514  18.660  0.00  0.00    +0.000 N 
ATOM     28  C   UNL     1      -4.134  11.347  18.117  0.00  0.00    +0.000 A 
ATOM     29  C   UNL     1      -4.305  10.634  16.997  0.00  0.00    +0.000 A 
ATOM     30  C   UNL     1      -3.055  10.076  16.412  0.00  0.00    +0.000 A 
ATOM     31  N   UNL     1      -1.849  10.212  16.883  0.00  0.00    +0.000 NA
ATOM     32  C   UNL     1      -1.740  10.939  18.043  0.00  0.00    +0.000 A 
ENDBRANCH  21  24
ENDBRANCH  19  20
ENDBRANCH   8  19
TORSDOF 7
ENDMDL
MODEL 9
REMARK VINA RESULT:      -8.4      2.109      4.012
REMARK  Name = 
REMARK  7 active torsions:
REMARK  status: ('A' for Active; 'I' for Inactive)
REMARK    1  A    between atoms: C_2  and  O_3
REMARK    2  A    between atoms: C_2  and  C_9
REMARK    3  A    between atoms: O_3  and  C_4
REMARK    4  A    between atoms: C_4  and  C_5
REMARK    5  A    between atoms: C_16  and  C_17
REMARK    6  A    between atoms: C_17  and  N_18
REMARK    7  A    between atoms: C_19  and  C_21
REMARK                            x       y       z     vdW  Elec       q    Type
REMARK                         _______ _______ _______ _____ _____    ______ ____
ROOT
ATOM      1  C   UNL     1       4.301   4.255  18.311  0.00  0.00    +0.000 A 
ATOM      2  C   UNL     1       4.958   4.348  17.068  0.00  0.00    +0.000 A 
ATOM      3  C   UNL     1       4.954   5.526  16.334  0.00  0.00    +0.000 A 
ATOM      4  F   UNL     1       5.586   5.564  15.153  0.00  0.00    +0.000 F 
ATOM      5  C   UNL     1       4.304   6.671  16.788  0.00  0.00    +0.000 A 
ATOM      6  C   UNL     1       3.636   6.610  18.023  0.00  0.00    +0.000 A 
ATOM      7  C   UNL     1       2.875   7.538  18.779  0.00  0.00    +0.000 A 
ATOM      8  C   UNL     1       2.454   6.872  19.911  0.00  0.00    +0.000 A 
ATOM      9  O   UNL     1       2.926   5.589  19.905  0.00  0.00    +0.000 OA
ATOM     10  C   UNL     1       3.646   5.415  18.752  0.00  0.00    +0.000 A 
ENDROOT
BRANCH   1  12
ATOM     11  O   UNL     1       5.217   2.700  19.849  0.00  0.00    +0.000 OA
ATOM     12  C   UNL     1       4.348   2.958  19.024  0.00  0.00    +0.000 C 
BRANCH  12  13
ATOM     13  O   UNL     1       3.379   2.093  18.651  0.00  0.00    +0.000 OA
BRANCH  13  14
ATOM     14  C   UNL     1       2.211   2.103  19.509  0.00  0.00    +0.000 C 
BRANCH  14  15
ATOM     15  C   UNL     1       0.990   2.799  18.910  0.00  0.00    +0.000 C 
ATOM     16  F   UNL     1       0.466   3.739  19.726  0.00  0.00    +0.000 F 
ATOM     17  F   UNL     1       1.328   3.426  17.753  0.00  0.00    +0.000 F 
ATOM     18  F   UNL     1       0.010   1.919  18.604  0.00  0.00    +0.000 F 
ENDBRANCH  14  15
ENDBRANCH  13  14
ENDBRANCH  12  13
ENDBRANCH   1  12
BRANCH   8  19
ATOM     19  C   UNL     1       1.573   7.277  21.038  0.00  0.00    +0.000 C 
BRANCH  19  20
ATOM     20  N   UNL     1       0.791   8.436  20.675  0.00  0.00    +0.000 N 
ATOM     21  C   UNL     1       0.689   9.532  21.497  0.00  0.00    +0.000 C 
ATOM     22  O   UNL     1       1.209   9.575  22.608  0.00  0.00    +0.000 OA
ATOM     23  H   UNL     1       0.303   8.455  19.783  0.00  0.00    +0.000 HD
BRANCH  21  24
ATOM     24  C   UNL     1      -0.064  10.654  20.972  0.00  0.00    +0.000 A 
ATOM     25  C   UNL     1      -0.235  11.900  21.611  0.00  0.00    +0.000 A 
ATOM     26  N   UNL     1      -0.965  12.765  20.908  0.00  0.00    +0.000 NA
ATOM     27  N   UNL     1      -1.303  12.082  19.792  0.00  0.00    +0.000 N 
ATOM     28  C   UNL     1      -2.100  12.528  18.742  0.00  0.00    +0.000 A 
ATOM     29  C   UNL     1      -2.364  11.726  17.703  0.00  0.00    +0.000 A 
ATOM     30  C   UNL     1      -1.738  10.378  17.776  0.00  0.00    +0.000 A 
ATOM     31  N   UNL     1      -0.984   9.922  18.735  0.00  0.00    +0.000 NA
ATOM     32  C   UNL     1      -0.763  10.785  19.781  0.00  0.00    +0.000 A 
ENDBRANCH  21  24
ENDBRANCH  19  20
ENDBRANCH   8  19
TORSDOF 7
ENDMDL
