MODEL 1
REMARK VINA RESULT:      -6.9      0.000      0.000
REMARK  Name = 
REMARK  12 active torsions:
REMARK  status: ('A' for Active; 'I' for Inactive)
REMARK    1  A    between atoms: C_1  and  C_2
REMARK    2  A    between atoms: C_2  and  C_3
REMARK    3  A    between atoms: C_2  and  C_4
REMARK    4  A    between atoms: C_2  and  N_13
REMARK    5  A    between atoms: C_4  and  S_5
REMARK    6  A    between atoms: S_5  and  C_7
REMARK    7  A    between atoms: N_13  and  C_14
REMARK    8  A    between atoms: C_14  and  C_15
REMARK    9  A    between atoms: C_15  and  O_16
REMARK   10  A    between atoms: C_15  and  C_17
REMARK   11  A    between atoms: C_17  and  O_18
REMARK   12  A    between atoms: O_18  and  C_19
REMARK                            x       y       z     vdW  Elec       q    Type
REMARK                         _______ _______ _______ _____ _____    ______ ____
ROOT
ATOM      1  N   UNL     1       2.277   3.259  18.805  0.00  0.00    +0.000 NA
ATOM      2  H   UNL     1       1.600   2.880  18.129  0.00  0.00    +0.000 HD
ENDROOT
BRANCH   1   4
ATOM      3  C   UNL     1       3.688   1.790  17.505  0.00  0.00    +0.000 C 
ATOM      4  C   UNL     1       3.652   3.156  18.258  0.00  0.00    +0.000 C 
ATOM      5  C   UNL     1       4.609   3.340  19.460  0.00  0.00    +0.000 C 
BRANCH   4   6
ATOM      6  C   UNL     1       3.981   4.100  17.072  0.00  0.00    +0.000 C 
BRANCH   6   7
ATOM      7  S   UNL     1       5.562   3.919  16.242  0.00  0.00    +0.000 S 
ATOM      8  O   UNL     1       5.409   4.430  14.763  0.00  0.00    +0.000 OA
BRANCH   7   9
ATOM      9  C   UNL     1       6.472   5.188  17.142  0.00  0.00    +0.000 A 
ATOM     10  C   UNL     1       7.367   4.867  18.171  0.00  0.00    +0.000 A 
ATOM     11  C   UNL     1       8.099   5.877  18.799  0.00  0.00    +0.000 A 
ATOM     12  C   UNL     1       7.951   7.201  18.388  0.00  0.00    +0.000 A 
ATOM     13  C   UNL     1       7.062   7.524  17.366  0.00  0.00    +0.000 A 
ATOM     14  C   UNL     1       6.323   6.520  16.748  0.00  0.00    +0.000 A 
ENDBRANCH   7   9
ENDBRANCH   6   7
ENDBRANCH   4   6
ENDBRANCH   1   4
BRANCH   1  15
ATOM     15  C   UNL     1       2.104   2.460  20.022  0.00  0.00    +0.000 C 
BRANCH  15  16
ATOM     16  C   UNL     1       1.442   3.189  21.178  0.00  0.00    +0.000 C 
BRANCH  16  17
ATOM     17  O   UNL     1       2.374   3.261  22.267  0.00  0.00    +0.000 OA
ATOM     18  H   UNL     1       2.550   2.356  22.580  0.00  0.00    +0.000 HD
ENDBRANCH  16  17
BRANCH  16  19
ATOM     19  C   UNL     1       1.109   4.572  20.608  0.00  0.00    +0.000 C 
BRANCH  19  20
ATOM     20  O   UNL     1       2.212   5.448  20.769  0.00  0.00    +0.000 OA
BRANCH  20  21
ATOM     21  C   UNL     1       2.053   6.631  20.096  0.00  0.00    +0.000 A 
ATOM     22  C   UNL     1       1.386   7.622  20.807  0.00  0.00    +0.000 A 
ATOM     23  C   UNL     1       1.181   8.872  20.227  0.00  0.00    +0.000 A 
ATOM     24  C   UNL     1       1.629   9.118  18.925  0.00  0.00    +0.000 A 
ATOM     25  C   UNL     1       2.304   8.129  18.215  0.00  0.00    +0.000 A 
ATOM     26  C   UNL     1       2.502   6.878  18.792  0.00  0.00    +0.000 A 
ENDBRANCH  20  21
ENDBRANCH  19  20
ENDBRANCH  16  19
ENDBRANCH  15  16
ENDBRANCH   1  15
TORSDOF 10
ENDMDL
MODEL 2
REMARK VINA RESULT:      -6.7      3.608      7.692
REMARK  Name = 
REMARK  12 active torsions:
REMARK  status: ('A' for Active; 'I' for Inactive)
REMARK    1  A    between atoms: C_1  and  C_2
REMARK    2  A    between atoms: C_2  and  C_3
REMARK    3  A    between atoms: C_2  and  C_4
REMARK    4  A    between atoms: C_2  and  N_13
REMARK    5  A    between atoms: C_4  and  S_5
REMARK    6  A    between atoms: S_5  and  C_7
REMARK    7  A    between atoms: N_13  and  C_14
REMARK    8  A    between atoms: C_14  and  C_15
REMARK    9  A    between atoms: C_15  and  O_16
REMARK   10  A    between atoms: C_15  and  C_17
REMARK   11  A    between atoms: C_17  and  O_18
REMARK   12  A    between atoms: O_18  and  C_19
REMARK                            x       y       z     vdW  Elec       q    Type
REMARK                         _______ _______ _______ _____ _____    ______ ____
ROOT
ATOM      1  N   UNL     1       6.815   4.408  17.683  0.00  0.00    +0.000 NA
ATOM      2  H   UNL     1       5.983   3.840  17.473  0.00  0.00    +0.000 HD
ENDROOT
BRANCH   1   4
ATOM      3  C   UNL     1       6.183   6.736  17.540  0.00  0.00    +0.000 C 
ATOM      4  C   UNL     1       6.439   5.563  18.535  0.00  0.00    +0.000 C 
ATOM      5  C   UNL     1       7.582   5.730  19.565  0.00  0.00    +0.000 C 
BRANCH   4   6
ATOM      6  C   UNL     1       5.037   5.488  19.195  0.00  0.00    +0.000 C 
BRANCH   6   7
ATOM      7  S   UNL     1       3.595   5.355  18.135  0.00  0.00    +0.000 S 
ATOM      8  O   UNL     1       3.943   4.398  16.938  0.00  0.00    +0.000 OA
BRANCH   7   9
ATOM      9  C   UNL     1       2.535   4.425  19.258  0.00  0.00    +0.000 A 
ATOM     10  C   UNL     1       1.464   3.651  18.793  0.00  0.00    +0.000 A 
ATOM     11  C   UNL     1       0.708   2.895  19.692  0.00  0.00    +0.000 A 
ATOM     12  C   UNL     1       1.032   2.899  21.048  0.00  0.00    +0.000 A 
ATOM     13  C   UNL     1       2.097   3.668  21.513  0.00  0.00    +0.000 A 
ATOM     14  C   UNL     1       2.842   4.431  20.621  0.00  0.00    +0.000 A 
ENDBRANCH   7   9
ENDBRANCH   6   7
ENDBRANCH   4   6
ENDBRANCH   1   4
BRANCH   1  15
ATOM     15  C   UNL     1       7.339   4.830  16.380  0.00  0.00    +0.000 C 
BRANCH  15  16
ATOM     16  C   UNL     1       6.937   3.946  15.212  0.00  0.00    +0.000 C 
BRANCH  16  17
ATOM     17  O   UNL     1       5.938   3.019  15.663  0.00  0.00    +0.000 OA
ATOM     18  H   UNL     1       5.237   2.972  14.988  0.00  0.00    +0.000 HD
ENDBRANCH  16  17
BRANCH  16  19
ATOM     19  C   UNL     1       6.389   4.928  14.170  0.00  0.00    +0.000 C 
BRANCH  19  20
ATOM     20  O   UNL     1       7.042   4.738  12.926  0.00  0.00    +0.000 OA
BRANCH  20  21
ATOM     21  C   UNL     1       6.590   3.633  12.252  0.00  0.00    +0.000 A 
ATOM     22  C   UNL     1       7.589   2.808  11.748  0.00  0.00    +0.000 A 
ATOM     23  C   UNL     1       7.245   1.647  11.058  0.00  0.00    +0.000 A 
ATOM     24  C   UNL     1       5.899   1.329  10.858  0.00  0.00    +0.000 A 
ATOM     25  C   UNL     1       4.898   2.150  11.369  0.00  0.00    +0.000 A 
ATOM     26  C   UNL     1       5.241   3.313  12.052  0.00  0.00    +0.000 A 
ENDBRANCH  20  21
ENDBRANCH  19  20
ENDBRANCH  16  19
ENDBRANCH  15  16
ENDBRANCH   1  15
TORSDOF 10
ENDMDL
MODEL 3
REMARK VINA RESULT:      -6.5      2.918      6.691
REMARK  Name = 
REMARK  12 active torsions:
REMARK  status: ('A' for Active; 'I' for Inactive)
REMARK    1  A    between atoms: C_1  and  C_2
REMARK    2  A    between atoms: C_2  and  C_3
REMARK    3  A    between atoms: C_2  and  C_4
REMARK    4  A    between atoms: C_2  and  N_13
REMARK    5  A    between atoms: C_4  and  S_5
REMARK    6  A    between atoms: S_5  and  C_7
REMARK    7  A    between atoms: N_13  and  C_14
REMARK    8  A    between atoms: C_14  and  C_15
REMARK    9  A    between atoms: C_15  and  O_16
REMARK   10  A    between atoms: C_15  and  C_17
REMARK   11  A    between atoms: C_17  and  O_18
REMARK   12  A    between atoms: O_18  and  C_19
REMARK                            x       y       z     vdW  Elec       q    Type
REMARK                         _______ _______ _______ _____ _____    ______ ____
ROOT
ATOM      1  N   UNL     1       4.320   5.547  17.222  0.00  0.00    +0.000 NA
ATOM      2  H   UNL     1       4.802   6.298  16.710  0.00  0.00    +0.000 HD
ENDROOT
BRANCH   1   4
ATOM      3  C   UNL     1       3.227   7.631  17.768  0.00  0.00    +0.000 C 
ATOM      4  C   UNL     1       3.337   6.128  18.168  0.00  0.00    +0.000 C 
ATOM      5  C   UNL     1       3.858   5.797  19.588  0.00  0.00    +0.000 C 
BRANCH   4   6
ATOM      6  C   UNL     1       1.860   5.705  17.952  0.00  0.00    +0.000 C 
BRANCH   6   7
ATOM      7  S   UNL     1       1.501   3.979  17.614  0.00  0.00    +0.000 S 
ATOM      8  O   UNL     1       2.587   3.430  16.619  0.00  0.00    +0.000 OA
BRANCH   7   9
ATOM      9  C   UNL     1       1.897   3.311  19.240  0.00  0.00    +0.000 A 
ATOM     10  C   UNL     1       3.060   2.565  19.471  0.00  0.00    +0.000 A 
ATOM     11  C   UNL     1       3.359   2.120  20.760  0.00  0.00    +0.000 A 
ATOM     12  C   UNL     1       2.508   2.434  21.819  0.00  0.00    +0.000 A 
ATOM     13  C   UNL     1       1.351   3.175  21.593  0.00  0.00    +0.000 A 
ATOM     14  C   UNL     1       1.045   3.608  20.307  0.00  0.00    +0.000 A 
ENDBRANCH   7   9
ENDBRANCH   6   7
ENDBRANCH   4   6
ENDBRANCH   1   4
BRANCH   1  15
ATOM     15  C   UNL     1       5.380   4.803  17.912  0.00  0.00    +0.000 C 
BRANCH  15  16
ATOM     16  C   UNL     1       6.773   5.394  17.770  0.00  0.00    +0.000 C 
BRANCH  16  17
ATOM     17  O   UNL     1       7.516   5.101  18.962  0.00  0.00    +0.000 OA
ATOM     18  H   UNL     1       8.424   5.434  18.846  0.00  0.00    +0.000 HD
ENDBRANCH  16  17
BRANCH  16  19
ATOM     19  C   UNL     1       7.353   4.693  16.537  0.00  0.00    +0.000 C 
BRANCH  19  20
ATOM     20  O   UNL     1       7.353   5.573  15.426  0.00  0.00    +0.000 OA
BRANCH  20  21
ATOM     21  C   UNL     1       7.051   4.941  14.248  0.00  0.00    +0.000 A 
ATOM     22  C   UNL     1       5.951   4.093  14.306  0.00  0.00    +0.000 A 
ATOM     23  C   UNL     1       5.543   3.409  13.163  0.00  0.00    +0.000 A 
ATOM     24  C   UNL     1       6.254   3.562  11.969  0.00  0.00    +0.000 A 
ATOM     25  C   UNL     1       7.351   4.416  11.908  0.00  0.00    +0.000 A 
ATOM     26  C   UNL     1       7.763   5.094  13.051  0.00  0.00    +0.000 A 
ENDBRANCH  20  21
ENDBRANCH  19  20
ENDBRANCH  16  19
ENDBRANCH  15  16
ENDBRANCH   1  15
TORSDOF 10
ENDMDL
MODEL 4
REMARK VINA RESULT:      -6.5      2.912      6.909
REMARK  Name = 
REMARK  12 active torsions:
REMARK  status: ('A' for Active; 'I' for Inactive)
REMARK    1  A    between atoms: C_1  and  C_2
REMARK    2  A    between atoms: C_2  and  C_3
REMARK    3  A    between atoms: C_2  and  C_4
REMARK    4  A    between atoms: C_2  and  N_13
REMARK    5  A    between atoms: C_4  and  S_5
REMARK    6  A    between atoms: S_5  and  C_7
REMARK    7  A    between atoms: N_13  and  C_14
REMARK    8  A    between atoms: C_14  and  C_15
REMARK    9  A    between atoms: C_15  and  O_16
REMARK   10  A    between atoms: C_15  and  C_17
REMARK   11  A    between atoms: C_17  and  O_18
REMARK   12  A    between atoms: O_18  and  C_19
REMARK                            x       y       z     vdW  Elec       q    Type
REMARK                         _______ _______ _______ _____ _____    ______ ____
ROOT
ATOM      1  N   UNL     1       4.604   6.047  17.293  0.00  0.00    +0.000 NA
ATOM      2  H   UNL     1       4.341   6.011  16.299  0.00  0.00    +0.000 HD
ENDROOT
BRANCH   1   4
ATOM      3  C   UNL     1       2.850   7.640  17.764  0.00  0.00    +0.000 C 
ATOM      4  C   UNL     1       3.395   6.227  18.133  0.00  0.00    +0.000 C 
ATOM      5  C   UNL     1       3.846   5.988  19.594  0.00  0.00    +0.000 C 
BRANCH   4   6
ATOM      6  C   UNL     1       2.162   5.374  17.733  0.00  0.00    +0.000 C 
BRANCH   6   7
ATOM      7  S   UNL     1       2.385   3.612  17.470  0.00  0.00    +0.000 S 
ATOM      8  O   UNL     1       3.860   3.364  16.986  0.00  0.00    +0.000 OA
BRANCH   7   9
ATOM      9  C   UNL     1       2.303   3.083  19.191  0.00  0.00    +0.000 A 
ATOM     10  C   UNL     1       3.406   2.518  19.845  0.00  0.00    +0.000 A 
ATOM     11  C   UNL     1       3.317   2.181  21.197  0.00  0.00    +0.000 A 
ATOM     12  C   UNL     1       2.137   2.423  21.898  0.00  0.00    +0.000 A 
ATOM     13  C   UNL     1       1.039   2.985  21.251  0.00  0.00    +0.000 A 
ATOM     14  C   UNL     1       1.121   3.309  19.901  0.00  0.00    +0.000 A 
ENDBRANCH   7   9
ENDBRANCH   6   7
ENDBRANCH   4   6
ENDBRANCH   1   4
BRANCH   1  15
ATOM     15  C   UNL     1       5.531   7.179  17.409  0.00  0.00    +0.000 C 
BRANCH  15  16
ATOM     16  C   UNL     1       6.985   6.847  17.118  0.00  0.00    +0.000 C 
BRANCH  16  17
ATOM     17  O   UNL     1       7.692   6.760  18.363  0.00  0.00    +0.000 OA
ATOM     18  H   UNL     1       7.688   7.639  18.780  0.00  0.00    +0.000 HD
ENDBRANCH  16  17
BRANCH  16  19
ATOM     19  C   UNL     1       6.924   5.500  16.389  0.00  0.00    +0.000 C 
BRANCH  19  20
ATOM     20  O   UNL     1       7.709   5.544  15.210  0.00  0.00    +0.000 OA
BRANCH  20  21
ATOM     21  C   UNL     1       7.135   4.869  14.164  0.00  0.00    +0.000 A 
ATOM     22  C   UNL     1       7.786   5.019  12.945  0.00  0.00    +0.000 A 
ATOM     23  C   UNL     1       7.298   4.365  11.815  0.00  0.00    +0.000 A 
ATOM     24  C   UNL     1       6.146   3.580  11.908  0.00  0.00    +0.000 A 
ATOM     25  C   UNL     1       5.498   3.422  13.129  0.00  0.00    +0.000 A 
ATOM     26  C   UNL     1       5.980   4.081  14.256  0.00  0.00    +0.000 A 
ENDBRANCH  20  21
ENDBRANCH  19  20
ENDBRANCH  16  19
ENDBRANCH  15  16
ENDBRANCH   1  15
TORSDOF 10
ENDMDL
MODEL 5
REMARK VINA RESULT:      -6.5      3.884      7.307
REMARK  Name = 
REMARK  12 active torsions:
REMARK  status: ('A' for Active; 'I' for Inactive)
REMARK    1  A    between atoms: C_1  and  C_2
REMARK    2  A    between atoms: C_2  and  C_3
REMARK    3  A    between atoms: C_2  and  C_4
REMARK    4  A    between atoms: C_2  and  N_13
REMARK    5  A    between atoms: C_4  and  S_5
REMARK    6  A    between atoms: S_5  and  C_7
REMARK    7  A    between atoms: N_13  and  C_14
REMARK    8  A    between atoms: C_14  and  C_15
REMARK    9  A    between atoms: C_15  and  O_16
REMARK   10  A    between atoms: C_15  and  C_17
REMARK   11  A    between atoms: C_17  and  O_18
REMARK   12  A    between atoms: O_18  and  C_19
REMARK                            x       y       z     vdW  Elec       q    Type
REMARK                         _______ _______ _______ _____ _____    ______ ____
ROOT
ATOM      1  N   UNL     1       7.359   6.190  16.814  0.00  0.00    +0.000 NA
ATOM      2  H   UNL     1       8.196   6.222  16.218  0.00  0.00    +0.000 HD
ENDROOT
BRANCH   1   4
ATOM      3  C   UNL     1       6.957   4.788  14.888  0.00  0.00    +0.000 C 
ATOM      4  C   UNL     1       6.277   5.439  16.132  0.00  0.00    +0.000 C 
ATOM      5  C   UNL     1       5.139   6.456  15.879  0.00  0.00    +0.000 C 
BRANCH   4   6
ATOM      6  C   UNL     1       5.791   4.153  16.850  0.00  0.00    +0.000 C 
BRANCH   6   7
ATOM      7  S   UNL     1       5.428   4.234  18.606  0.00  0.00    +0.000 S 
ATOM      8  O   UNL     1       5.350   5.746  19.028  0.00  0.00    +0.000 OA
BRANCH   7   9
ATOM      9  C   UNL     1       3.735   3.620  18.547  0.00  0.00    +0.000 A 
ATOM     10  C   UNL     1       3.379   2.378  19.089  0.00  0.00    +0.000 A 
ATOM     11  C   UNL     1       2.044   1.969  19.078  0.00  0.00    +0.000 A 
ATOM     12  C   UNL     1       1.065   2.805  18.544  0.00  0.00    +0.000 A 
ATOM     13  C   UNL     1       1.415   4.040  18.004  0.00  0.00    +0.000 A 
ATOM     14  C   UNL     1       2.746   4.443  18.002  0.00  0.00    +0.000 A 
ENDBRANCH   7   9
ENDBRANCH   6   7
ENDBRANCH   4   6
ENDBRANCH   1   4
BRANCH   1  15
ATOM     15  C   UNL     1       6.995   7.592  17.050  0.00  0.00    +0.000 C 
BRANCH  15  16
ATOM     16  C   UNL     1       7.730   8.260  18.199  0.00  0.00    +0.000 C 
BRANCH  16  17
ATOM     17  O   UNL     1       8.509   7.266  18.882  0.00  0.00    +0.000 OA
ATOM     18  H   UNL     1       8.354   7.361  19.839  0.00  0.00    +0.000 HD
ENDBRANCH  16  17
BRANCH  16  19
ATOM     19  C   UNL     1       8.606   9.317  17.520  0.00  0.00    +0.000 C 
BRANCH  19  20
ATOM     20  O   UNL     1       8.426  10.578  18.142  0.00  0.00    +0.000 OA
BRANCH  20  21
ATOM     21  C   UNL     1       9.598  11.108  18.617  0.00  0.00    +0.000 A 
ATOM     22  C   UNL     1       9.658  11.245  19.999  0.00  0.00    +0.000 A 
ATOM     23  C   UNL     1      10.809  11.759  20.594  0.00  0.00    +0.000 A 
ATOM     24  C   UNL     1      11.888  12.154  19.798  0.00  0.00    +0.000 A 
ATOM     25  C   UNL     1      11.832  12.009  18.415  0.00  0.00    +0.000 A 
ATOM     26  C   UNL     1      10.680  11.503  17.820  0.00  0.00    +0.000 A 
ENDBRANCH  20  21
ENDBRANCH  19  20
ENDBRANCH  16  19
ENDBRANCH  15  16
ENDBRANCH   1  15
TORSDOF 10
ENDMDL
MODEL 6
REMARK VINA RESULT:      -6.3      2.725      6.486
REMARK  Name = 
REMARK  12 active torsions:
REMARK  status: ('A' for Active; 'I' for Inactive)
REMARK    1  A    between atoms: C_1  and  C_2
REMARK    2  A    between atoms: C_2  and  C_3
REMARK    3  A    between atoms: C_2  and  C_4
REMARK    4  A    between atoms: C_2  and  N_13
REMARK    5  A    between atoms: C_4  and  S_5
REMARK    6  A    between atoms: S_5  and  C_7
REMARK    7  A    between atoms: N_13  and  C_14
REMARK    8  A    between atoms: C_14  and  C_15
REMARK    9  A    between atoms: C_15  and  O_16
REMARK   10  A    between atoms: C_15  and  C_17
REMARK   11  A    between atoms: C_17  and  O_18
REMARK   12  A    between atoms: O_18  and  C_19
REMARK                            x       y       z     vdW  Elec       q    Type
REMARK                         _______ _______ _______ _____ _____    ______ ____
ROOT
ATOM      1  N   UNL     1       4.026   6.082  19.148  0.00  0.00    +0.000 NA
ATOM      2  H   UNL     1       3.666   5.190  19.511  0.00  0.00    +0.000 HD
ENDROOT
BRANCH   1   4
ATOM      3  C   UNL     1       1.899   5.786  18.040  0.00  0.00    +0.000 C 
ATOM      4  C   UNL     1       2.926   6.856  18.521  0.00  0.00    +0.000 C 
ATOM      5  C   UNL     1       3.588   7.752  17.446  0.00  0.00    +0.000 C 
BRANCH   4   6
ATOM      6  C   UNL     1       2.019   7.651  19.496  0.00  0.00    +0.000 C 
BRANCH   6   7
ATOM      7  S   UNL     1       1.589   9.344  19.082  0.00  0.00    +0.000 S 
ATOM      8  O   UNL     1       0.579   9.321  17.879  0.00  0.00    +0.000 OA
BRANCH   7   9
ATOM      9  C   UNL     1       0.634   9.735  20.560  0.00  0.00    +0.000 A 
ATOM     10  C   UNL     1       0.357   8.772  21.539  0.00  0.00    +0.000 A 
ATOM     11  C   UNL     1      -0.332   9.134  22.698  0.00  0.00    +0.000 A 
ATOM     12  C   UNL     1      -0.727  10.457  22.887  0.00  0.00    +0.000 A 
ATOM     13  C   UNL     1      -0.454  11.418  21.916  0.00  0.00    +0.000 A 
ATOM     14  C   UNL     1       0.221  11.056  20.755  0.00  0.00    +0.000 A 
ENDBRANCH   7   9
ENDBRANCH   6   7
ENDBRANCH   4   6
ENDBRANCH   1   4
BRANCH   1  15
ATOM     15  C   UNL     1       5.067   5.719  18.181  0.00  0.00    +0.000 C 
BRANCH  15  16
ATOM     16  C   UNL     1       5.259   4.225  17.978  0.00  0.00    +0.000 C 
BRANCH  16  17
ATOM     17  O   UNL     1       6.523   4.010  17.333  0.00  0.00    +0.000 OA
ATOM     18  H   UNL     1       6.867   4.872  17.039  0.00  0.00    +0.000 HD
ENDBRANCH  16  17
BRANCH  16  19
ATOM     19  C   UNL     1       5.225   3.647  19.397  0.00  0.00    +0.000 C 
BRANCH  19  20
ATOM     20  O   UNL     1       4.540   2.406  19.405  0.00  0.00    +0.000 OA
BRANCH  20  21
ATOM     21  C   UNL     1       3.182   2.551  19.525  0.00  0.00    +0.000 A 
ATOM     22  C   UNL     1       2.762   3.155  20.705  0.00  0.00    +0.000 A 
ATOM     23  C   UNL     1       1.403   3.368  20.928  0.00  0.00    +0.000 A 
ATOM     24  C   UNL     1       0.467   2.954  19.976  0.00  0.00    +0.000 A 
ATOM     25  C   UNL     1       0.887   2.356  18.791  0.00  0.00    +0.000 A 
ATOM     26  C   UNL     1       2.244   2.136  18.571  0.00  0.00    +0.000 A 
ENDBRANCH  20  21
ENDBRANCH  19  20
ENDBRANCH  16  19
ENDBRANCH  15  16
ENDBRANCH   1  15
TORSDOF 10
ENDMDL
MODEL 7
REMARK VINA RESULT:      -6.2      2.839      6.365
REMARK  Name = 
REMARK  12 active torsions:
REMARK  status: ('A' for Active; 'I' for Inactive)
REMARK    1  A    between atoms: C_1  and  C_2
REMARK    2  A    between atoms: C_2  and  C_3
REMARK    3  A    between atoms: C_2  and  C_4
REMARK    4  A    between atoms: C_2  and  N_13
REMARK    5  A    between atoms: C_4  and  S_5
REMARK    6  A    between atoms: S_5  and  C_7
REMARK    7  A    between atoms: N_13  and  C_14
REMARK    8  A    between atoms: C_14  and  C_15
REMARK    9  A    between atoms: C_15  and  O_16
REMARK   10  A    between atoms: C_15  and  C_17
REMARK   11  A    between atoms: C_17  and  O_18
REMARK   12  A    between atoms: O_18  and  C_19
REMARK                            x       y       z     vdW  Elec       q    Type
REMARK                         _______ _______ _______ _____ _____    ______ ____
ROOT
ATOM      1  N   UNL     1       5.644   3.378  19.236  0.00  0.00    +0.000 NA
ATOM      2  H   UNL     1       6.307   2.903  18.608  0.00  0.00    +0.000 HD
ENDROOT
BRANCH   1   4
ATOM      3  C   UNL     1       4.683   1.313  20.044  0.00  0.00    +0.000 C 
ATOM      4  C   UNL     1       4.362   2.633  19.278  0.00  0.00    +0.000 C 
ATOM      5  C   UNL     1       3.884   2.514  17.811  0.00  0.00    +0.000 C 
BRANCH   4   6
ATOM      6  C   UNL     1       3.276   3.210  20.223  0.00  0.00    +0.000 C 
BRANCH   6   7
ATOM      7  S   UNL     1       1.652   3.571  19.547  0.00  0.00    +0.000 S 
ATOM      8  O   UNL     1       0.580   3.322  20.668  0.00  0.00    +0.000 OA
BRANCH   7   9
ATOM      9  C   UNL     1       1.833   5.356  19.383  0.00  0.00    +0.000 A 
ATOM     10  C   UNL     1       1.669   6.220  20.473  0.00  0.00    +0.000 A 
ATOM     11  C   UNL     1       1.881   7.591  20.315  0.00  0.00    +0.000 A 
ATOM     12  C   UNL     1       2.273   8.096  19.076  0.00  0.00    +0.000 A 
ATOM     13  C   UNL     1       2.438   7.240  17.989  0.00  0.00    +0.000 A 
ATOM     14  C   UNL     1       2.214   5.876  18.143  0.00  0.00    +0.000 A 
ENDBRANCH   7   9
ENDBRANCH   6   7
ENDBRANCH   4   6
ENDBRANCH   1   4
BRANCH   1  15
ATOM     15  C   UNL     1       5.482   4.727  18.684  0.00  0.00    +0.000 C 
BRANCH  15  16
ATOM     16  C   UNL     1       6.736   5.320  18.064  0.00  0.00    +0.000 C 
BRANCH  16  17
ATOM     17  O   UNL     1       7.803   5.233  19.020  0.00  0.00    +0.000 OA
ATOM     18  H   UNL     1       8.495   4.654  18.654  0.00  0.00    +0.000 HD
ENDBRANCH  16  17
BRANCH  16  19
ATOM     19  C   UNL     1       6.991   4.448  16.829  0.00  0.00    +0.000 C 
BRANCH  19  20
ATOM     20  O   UNL     1       5.957   4.631  15.877  0.00  0.00    +0.000 OA
BRANCH  20  21
ATOM     21  C   UNL     1       6.404   4.548  14.585  0.00  0.00    +0.000 A 
ATOM     22  C   UNL     1       5.731   3.625  13.792  0.00  0.00    +0.000 A 
ATOM     23  C   UNL     1       6.092   3.467  12.455  0.00  0.00    +0.000 A 
ATOM     24  C   UNL     1       7.142   4.221  11.923  0.00  0.00    +0.000 A 
ATOM     25  C   UNL     1       7.811   5.151  12.713  0.00  0.00    +0.000 A 
ATOM     26  C   UNL     1       7.456   5.304  14.051  0.00  0.00    +0.000 A 
ENDBRANCH  20  21
ENDBRANCH  19  20
ENDBRANCH  16  19
ENDBRANCH  15  16
ENDBRANCH   1  15
TORSDOF 10
ENDMDL
MODEL 8
REMARK VINA RESULT:      -6.2      2.818      6.645
REMARK  Name = 
REMARK  12 active torsions:
REMARK  status: ('A' for Active; 'I' for Inactive)
REMARK    1  A    between atoms: C_1  and  C_2
REMARK    2  A    between atoms: C_2  and  C_3
REMARK    3  A    between atoms: C_2  and  C_4
REMARK    4  A    between atoms: C_2  and  N_13
REMARK    5  A    between atoms: C_4  and  S_5
REMARK    6  A    between atoms: S_5  and  C_7
REMARK    7  A    between atoms: N_13  and  C_14
REMARK    8  A    between atoms: C_14  and  C_15
REMARK    9  A    between atoms: C_15  and  O_16
REMARK   10  A    between atoms: C_15  and  C_17
REMARK   11  A    between atoms: C_17  and  O_18
REMARK   12  A    between atoms: O_18  and  C_19
REMARK                            x       y       z     vdW  Elec       q    Type
REMARK                         _______ _______ _______ _____ _____    ______ ____
ROOT
ATOM      1  N   UNL     1       4.229   4.791  19.344  0.00  0.00    +0.000 NA
ATOM      2  H   UNL     1       4.350   4.390  20.284  0.00  0.00    +0.000 HD
ENDROOT
BRANCH   1   4
ATOM      3  C   UNL     1       1.997   4.394  20.179  0.00  0.00    +0.000 C 
ATOM      4  C   UNL     1       2.836   4.583  18.878  0.00  0.00    +0.000 C 
ATOM      5  C   UNL     1       2.887   3.404  17.877  0.00  0.00    +0.000 C 
BRANCH   4   6
ATOM      6  C   UNL     1       2.122   5.834  18.303  0.00  0.00    +0.000 C 
BRANCH   6   7
ATOM      7  S   UNL     1       2.971   7.415  18.370  0.00  0.00    +0.000 S 
ATOM      8  O   UNL     1       2.908   8.074  16.944  0.00  0.00    +0.000 OA
BRANCH   7   9
ATOM      9  C   UNL     1       1.791   8.297  19.407  0.00  0.00    +0.000 A 
ATOM     10  C   UNL     1       1.542   7.919  20.733  0.00  0.00    +0.000 A 
ATOM     11  C   UNL     1       0.668   8.669  21.520  0.00  0.00    +0.000 A 
ATOM     12  C   UNL     1       0.056   9.805  20.991  0.00  0.00    +0.000 A 
ATOM     13  C   UNL     1       0.301  10.185  19.673  0.00  0.00    +0.000 A 
ATOM     14  C   UNL     1       1.162   9.430  18.884  0.00  0.00    +0.000 A 
ENDBRANCH   7   9
ENDBRANCH   6   7
ENDBRANCH   4   6
ENDBRANCH   1   4
BRANCH   1  15
ATOM     15  C   UNL     1       5.205   4.098  18.496  0.00  0.00    +0.000 C 
BRANCH  15  16
ATOM     16  C   UNL     1       6.331   4.972  17.970  0.00  0.00    +0.000 C 
BRANCH  16  17
ATOM     17  O   UNL     1       7.545   4.209  17.981  0.00  0.00    +0.000 OA
ATOM     18  H   UNL     1       7.316   3.267  17.887  0.00  0.00    +0.000 HD
ENDBRANCH  16  17
BRANCH  16  19
ATOM     19  C   UNL     1       5.888   5.338  16.549  0.00  0.00    +0.000 C 
BRANCH  19  20
ATOM     20  O   UNL     1       5.588   4.165  15.811  0.00  0.00    +0.000 OA
BRANCH  20  21
ATOM     21  C   UNL     1       6.090   4.198  14.536  0.00  0.00    +0.000 A 
ATOM     22  C   UNL     1       7.170   5.055  14.356  0.00  0.00    +0.000 A 
ATOM     23  C   UNL     1       7.772   5.156  13.103  0.00  0.00    +0.000 A 
ATOM     24  C   UNL     1       7.272   4.414  12.028  0.00  0.00    +0.000 A 
ATOM     25  C   UNL     1       6.197   3.550  12.210  0.00  0.00    +0.000 A 
ATOM     26  C   UNL     1       5.591   3.454  13.459  0.00  0.00    +0.000 A 
ENDBRANCH  20  21
ENDBRANCH  19  20
ENDBRANCH  16  19
ENDBRANCH  15  16
ENDBRANCH   1  15
TORSDOF 10
ENDMDL
MODEL 9
REMARK VINA RESULT:      -6.1      2.388      3.227
REMARK  Name = 
REMARK  12 active torsions:
REMARK  status: ('A' for Active; 'I' for Inactive)
REMARK    1  A    between atoms: C_1  and  C_2
REMARK    2  A    between atoms: C_2  and  C_3
REMARK    3  A    between atoms: C_2  and  C_4
REMARK    4  A    between atoms: C_2  and  N_13
REMARK    5  A    between atoms: C_4  and  S_5
REMARK    6  A    between atoms: S_5  and  C_7
REMARK    7  A    between atoms: N_13  and  C_14
REMARK    8  A    between atoms: C_14  and  C_15
REMARK    9  A    between atoms: C_15  and  O_16
REMARK   10  A    between atoms: C_15  and  C_17
REMARK   11  A    between atoms: C_17  and  O_18
REMARK   12  A    between atoms: O_18  and  C_19
REMARK                            x       y       z     vdW  Elec       q    Type
REMARK                         _______ _______ _______ _____ _____    ______ ____
ROOT
ATOM      1  N   UNL     1       4.134   3.793  19.109  0.00  0.00    +0.000 NA
ATOM      2  H   UNL     1       4.103   4.795  19.339  0.00  0.00    +0.000 HD
ENDROOT
BRANCH   1   4
ATOM      3  C   UNL     1       3.592   4.867  17.014  0.00  0.00    +0.000 C 
ATOM      4  C   UNL     1       4.270   3.612  17.643  0.00  0.00    +0.000 C 
ATOM      5  C   UNL     1       3.660   2.227  17.321  0.00  0.00    +0.000 C 
BRANCH   4   6
ATOM      6  C   UNL     1       5.701   3.791  17.071  0.00  0.00    +0.000 C 
BRANCH   6   7
ATOM      7  S   UNL     1       6.164   5.390  16.399  0.00  0.00    +0.000 S 
ATOM      8  O   UNL     1       7.567   5.788  16.984  0.00  0.00    +0.000 OA
BRANCH   7   9
ATOM      9  C   UNL     1       6.434   4.883  14.691  0.00  0.00    +0.000 A 
ATOM     10  C   UNL     1       7.507   5.373  13.934  0.00  0.00    +0.000 A 
ATOM     11  C   UNL     1       7.715   4.905  12.636  0.00  0.00    +0.000 A 
ATOM     12  C   UNL     1       6.866   3.938  12.100  0.00  0.00    +0.000 A 
ATOM     13  C   UNL     1       5.798   3.448  12.849  0.00  0.00    +0.000 A 
ATOM     14  C   UNL     1       5.582   3.923  14.139  0.00  0.00    +0.000 A 
ENDBRANCH   7   9
ENDBRANCH   6   7
ENDBRANCH   4   6
ENDBRANCH   1   4
BRANCH   1  15
ATOM     15  C   UNL     1       2.876   3.237  19.621  0.00  0.00    +0.000 C 
BRANCH  15  16
ATOM     16  C   UNL     1       1.727   4.228  19.707  0.00  0.00    +0.000 C 
BRANCH  16  17
ATOM     17  O   UNL     1       0.599   3.568  20.301  0.00  0.00    +0.000 OA
ATOM     18  H   UNL     1       0.569   3.805  21.245  0.00  0.00    +0.000 HD
ENDBRANCH  16  17
BRANCH  16  19
ATOM     19  C   UNL     1       2.271   5.356  20.591  0.00  0.00    +0.000 C 
BRANCH  19  20
ATOM     20  O   UNL     1       2.943   6.320  19.798  0.00  0.00    +0.000 OA
BRANCH  20  21
ATOM     21  C   UNL     1       2.213   7.467  19.624  0.00  0.00    +0.000 A 
ATOM     22  C   UNL     1       2.227   7.977  18.331  0.00  0.00    +0.000 A 
ATOM     23  C   UNL     1       1.506   9.132  18.035  0.00  0.00    +0.000 A 
ATOM     24  C   UNL     1       0.789   9.784  19.044  0.00  0.00    +0.000 A 
ATOM     25  C   UNL     1       0.768   9.269  20.336  0.00  0.00    +0.000 A 
ATOM     26  C   UNL     1       1.494   8.120  20.634  0.00  0.00    +0.000 A 
ENDBRANCH  20  21
ENDBRANCH  19  20
ENDBRANCH  16  19
ENDBRANCH  15  16
ENDBRANCH   1  15
TORSDOF 10
ENDMDL
