MODEL 1
REMARK VINA RESULT:      -9.1      0.000      0.000
REMARK  Name = 
REMARK  3 active torsions:
REMARK  status: ('A' for Active; 'I' for Inactive)
REMARK    1  A    between atoms: C_14  and  C_15
REMARK    2  A    between atoms: N_25  and  C_26
REMARK    3  A    between atoms: C_26  and  C_27
REMARK                            x       y       z     vdW  Elec       q    Type
REMARK                         _______ _______ _______ _____ _____    ______ ____
ROOT
ATOM      1  O   UNL     1       2.799   7.868  17.313  0.00  0.00    +0.000 OA
ATOM      2  C   UNL     1       2.215   8.276  18.307  0.00  0.00    +0.000 C 
ATOM      3  C   UNL     1       1.272   9.470  18.327  0.00  0.00    +0.000 C 
ATOM      4  C   UNL     1       0.123   9.293  17.324  0.00  0.00    +0.000 C 
ATOM      5  C   UNL     1      -1.087  10.026  17.799  0.00  0.00    +0.000 A 
ATOM      6  C   UNL     1      -1.231  10.424  19.116  0.00  0.00    +0.000 A 
ATOM      7  N   UNL     1      -2.454  11.032  19.241  0.00  0.00    +0.000 N 
ATOM      8  C   UNL     1      -3.077  11.088  18.011  0.00  0.00    +0.000 A 
ATOM      9  C   UNL     1      -4.308  11.647  17.650  0.00  0.00    +0.000 A 
ATOM     10  C   UNL     1      -4.690  11.563  16.307  0.00  0.00    +0.000 A 
ATOM     11  C   UNL     1      -3.872  10.941  15.365  0.00  0.00    +0.000 A 
ATOM     12  C   UNL     1      -2.646  10.383  15.741  0.00  0.00    +0.000 A 
ATOM     13  C   UNL     1      -2.237  10.458  17.088  0.00  0.00    +0.000 A 
ATOM     14  C   UNL     1      -0.226  10.283  20.228  0.00  0.00    +0.000 C 
ATOM     15  N   UNL     1       0.850   9.437  19.721  0.00  0.00    +0.000 N 
ATOM     16  C   UNL     1       1.476   8.434  20.431  0.00  0.00    +0.000 C 
ATOM     17  O   UNL     1       1.304   8.195  21.617  0.00  0.00    +0.000 OA
ATOM     18  N   UNL     1       2.293   7.754  19.569  0.00  0.00    +0.000 N 
ATOM     19  H   UNL     1      -2.828  11.433  20.090  0.00  0.00    +0.000 HD
ENDROOT
BRANCH  14  20
ATOM     20  C   UNL     1       0.303  11.621  20.734  0.00  0.00    +0.000 A 
ATOM     21  C   UNL     1      -0.421  12.324  21.713  0.00  0.00    +0.000 A 
ATOM     22  C   UNL     1       0.008  13.582  22.149  0.00  0.00    +0.000 A 
ATOM     23  C   UNL     1       1.168  14.134  21.621  0.00  0.00    +0.000 A 
ATOM     24  F   UNL     1       1.565  15.349  22.023  0.00  0.00    +0.000 F 
ATOM     25  C   UNL     1       1.922  13.446  20.682  0.00  0.00    +0.000 A 
ATOM     26  C   UNL     1       1.498  12.189  20.248  0.00  0.00    +0.000 A 
ENDBRANCH  14  20
BRANCH  18  27
ATOM     27  C   UNL     1       3.013   6.542  19.903  0.00  0.00    +0.000 C 
BRANCH  27  28
ATOM     28  C   UNL     1       2.177   5.314  19.613  0.00  0.00    +0.000 A 
ATOM     29  C   UNL     1       1.489   4.657  20.644  0.00  0.00    +0.000 A 
ATOM     30  C   UNL     1       0.832   3.450  20.401  0.00  0.00    +0.000 A 
ATOM     31  C   UNL     1       0.845   2.892  19.124  0.00  0.00    +0.000 A 
ATOM     32  C   UNL     1       1.493   3.554  18.083  0.00  0.00    +0.000 A 
ATOM     33  C   UNL     1       2.155   4.759  18.324  0.00  0.00    +0.000 A 
ENDBRANCH  27  28
ENDBRANCH  18  27
TORSDOF 3
ENDMDL
MODEL 2
REMARK VINA RESULT:      -8.6      0.154      1.217
REMARK  Name = 
REMARK  3 active torsions:
REMARK  status: ('A' for Active; 'I' for Inactive)
REMARK    1  A    between atoms: C_14  and  C_15
REMARK    2  A    between atoms: N_25  and  C_26
REMARK    3  A    between atoms: C_26  and  C_27
REMARK                            x       y       z     vdW  Elec       q    Type
REMARK                         _______ _______ _______ _____ _____    ______ ____
ROOT
ATOM      1  O   UNL     1       2.893   7.891  17.333  0.00  0.00    +0.000 OA
ATOM      2  C   UNL     1       2.283   8.294  18.313  0.00  0.00    +0.000 C 
ATOM      3  C   UNL     1       1.306   9.461  18.304  0.00  0.00    +0.000 C 
ATOM      4  C   UNL     1       0.179   9.240  17.286  0.00  0.00    +0.000 C 
ATOM      5  C   UNL     1      -1.059   9.944  17.732  0.00  0.00    +0.000 A 
ATOM      6  C   UNL     1      -1.234  10.354  19.043  0.00  0.00    +0.000 A 
ATOM      7  N   UNL     1      -2.476  10.928  19.141  0.00  0.00    +0.000 N 
ATOM      8  C   UNL     1      -3.081  10.952  17.901  0.00  0.00    +0.000 A 
ATOM      9  C   UNL     1      -4.321  11.472  17.514  0.00  0.00    +0.000 A 
ATOM     10  C   UNL     1      -4.679  11.361  16.166  0.00  0.00    +0.000 A 
ATOM     11  C   UNL     1      -3.830  10.752  15.245  0.00  0.00    +0.000 A 
ATOM     12  C   UNL     1      -2.595  10.233  15.647  0.00  0.00    +0.000 A 
ATOM     13  C   UNL     1      -2.209  10.335  16.998  0.00  0.00    +0.000 A 
ATOM     14  C   UNL     1      -0.244  10.254  20.171  0.00  0.00    +0.000 C 
ATOM     15  N   UNL     1       0.864   9.433  19.692  0.00  0.00    +0.000 N 
ATOM     16  C   UNL     1       1.506   8.456  20.423  0.00  0.00    +0.000 C 
ATOM     17  O   UNL     1       1.322   8.227  21.610  0.00  0.00    +0.000 OA
ATOM     18  N   UNL     1       2.355   7.790  19.583  0.00  0.00    +0.000 N 
ATOM     19  H   UNL     1      -2.874  11.329  19.979  0.00  0.00    +0.000 HD
ENDROOT
BRANCH  14  20
ATOM     20  C   UNL     1       0.240  11.612  20.669  0.00  0.00    +0.000 A 
ATOM     21  C   UNL     1       1.447  12.138  20.176  0.00  0.00    +0.000 A 
ATOM     22  C   UNL     1       1.947  13.351  20.661  0.00  0.00    +0.000 A 
ATOM     23  C   UNL     1       1.235  14.050  21.628  0.00  0.00    +0.000 A 
ATOM     24  F   UNL     1       1.726  15.199  22.109  0.00  0.00    +0.000 F 
ATOM     25  C   UNL     1       0.023  13.572  22.106  0.00  0.00    +0.000 A 
ATOM     26  C   UNL     1      -0.479  12.364  21.620  0.00  0.00    +0.000 A 
ENDBRANCH  14  20
BRANCH  18  27
ATOM     27  C   UNL     1       3.104   6.602  19.943  0.00  0.00    +0.000 C 
BRANCH  27  28
ATOM     28  C   UNL     1       2.319   5.347  19.625  0.00  0.00    +0.000 A 
ATOM     29  C   UNL     1       2.262   4.853  18.313  0.00  0.00    +0.000 A 
ATOM     30  C   UNL     1       1.430   3.778  17.996  0.00  0.00    +0.000 A 
ATOM     31  C   UNL     1       0.656   3.178  18.987  0.00  0.00    +0.000 A 
ATOM     32  C   UNL     1       0.732   3.636  20.301  0.00  0.00    +0.000 A 
ATOM     33  C   UNL     1       1.560   4.713  20.621  0.00  0.00    +0.000 A 
ENDBRANCH  27  28
ENDBRANCH  18  27
TORSDOF 3
ENDMDL
MODEL 3
REMARK VINA RESULT:      -8.4      3.473      7.407
REMARK  Name = 
REMARK  3 active torsions:
REMARK  status: ('A' for Active; 'I' for Inactive)
REMARK    1  A    between atoms: C_14  and  C_15
REMARK    2  A    between atoms: N_25  and  C_26
REMARK    3  A    between atoms: C_26  and  C_27
REMARK                            x       y       z     vdW  Elec       q    Type
REMARK                         _______ _______ _______ _____ _____    ______ ____
ROOT
ATOM      1  O   UNL     1       0.967  14.976  21.725  0.00  0.00    +0.000 OA
ATOM      2  C   UNL     1       1.207  14.188  20.822  0.00  0.00    +0.000 C 
ATOM      3  C   UNL     1       0.392  12.936  20.529  0.00  0.00    +0.000 C 
ATOM      4  C   UNL     1      -1.085  13.274  20.283  0.00  0.00    +0.000 C 
ATOM      5  C   UNL     1      -1.695  12.267  19.366  0.00  0.00    +0.000 A 
ATOM      6  C   UNL     1      -0.921  11.441  18.569  0.00  0.00    +0.000 A 
ATOM      7  N   UNL     1      -1.769  10.665  17.821  0.00  0.00    +0.000 N 
ATOM      8  C   UNL     1      -3.077  10.932  18.167  0.00  0.00    +0.000 A 
ATOM      9  C   UNL     1      -4.266  10.360  17.701  0.00  0.00    +0.000 A 
ATOM     10  C   UNL     1      -5.468  10.828  18.243  0.00  0.00    +0.000 A 
ATOM     11  C   UNL     1      -5.477  11.831  19.210  0.00  0.00    +0.000 A 
ATOM     12  C   UNL     1      -4.280  12.397  19.663  0.00  0.00    +0.000 A 
ATOM     13  C   UNL     1      -3.057  11.940  19.136  0.00  0.00    +0.000 A 
ATOM     14  C   UNL     1       0.580  11.345  18.541  0.00  0.00    +0.000 C 
ATOM     15  N   UNL     1       1.091  12.449  19.346  0.00  0.00    +0.000 N 
ATOM     16  C   UNL     1       2.174  13.239  19.021  0.00  0.00    +0.000 C 
ATOM     17  O   UNL     1       2.929  13.047  18.079  0.00  0.00    +0.000 OA
ATOM     18  N   UNL     1       2.230  14.270  19.918  0.00  0.00    +0.000 N 
ATOM     19  H   UNL     1      -1.486   9.959  17.155  0.00  0.00    +0.000 HD
ENDROOT
BRANCH  14  20
ATOM     20  C   UNL     1       1.106  10.001  19.035  0.00  0.00    +0.000 A 
ATOM     21  C   UNL     1       1.848   9.187  18.161  0.00  0.00    +0.000 A 
ATOM     22  C   UNL     1       2.288   7.923  18.566  0.00  0.00    +0.000 A 
ATOM     23  C   UNL     1       2.004   7.475  19.850  0.00  0.00    +0.000 A 
ATOM     24  F   UNL     1       2.406   6.255  20.230  0.00  0.00    +0.000 F 
ATOM     25  C   UNL     1       1.307   8.273  20.745  0.00  0.00    +0.000 A 
ATOM     26  C   UNL     1       0.869   9.536  20.344  0.00  0.00    +0.000 A 
ENDBRANCH  14  20
BRANCH  18  27
ATOM     27  C   UNL     1       3.144  15.391  19.826  0.00  0.00    +0.000 C 
BRANCH  27  28
ATOM     28  C   UNL     1       2.635  16.430  18.848  0.00  0.00    +0.000 A 
ATOM     29  C   UNL     1       1.581  17.286  19.201  0.00  0.00    +0.000 A 
ATOM     30  C   UNL     1       1.022  18.148  18.255  0.00  0.00    +0.000 A 
ATOM     31  C   UNL     1       1.516  18.170  16.952  0.00  0.00    +0.000 A 
ATOM     32  C   UNL     1       2.586  17.351  16.600  0.00  0.00    +0.000 A 
ATOM     33  C   UNL     1       3.145  16.485  17.543  0.00  0.00    +0.000 A 
ENDBRANCH  27  28
ENDBRANCH  18  27
TORSDOF 3
ENDMDL
MODEL 4
REMARK VINA RESULT:      -8.3      2.223      4.868
REMARK  Name = 
REMARK  3 active torsions:
REMARK  status: ('A' for Active; 'I' for Inactive)
REMARK    1  A    between atoms: C_14  and  C_15
REMARK    2  A    between atoms: N_25  and  C_26
REMARK    3  A    between atoms: C_26  and  C_27
REMARK                            x       y       z     vdW  Elec       q    Type
REMARK                         _______ _______ _______ _____ _____    ______ ____
ROOT
ATOM      1  O   UNL     1       1.714   8.430  21.967  0.00  0.00    +0.000 OA
ATOM      2  C   UNL     1       1.423   8.844  20.854  0.00  0.00    +0.000 C 
ATOM      3  C   UNL     1       0.540  10.055  20.587  0.00  0.00    +0.000 C 
ATOM      4  C   UNL     1       1.094  11.314  21.269  0.00  0.00    +0.000 C 
ATOM      5  C   UNL     1       0.698  12.529  20.499  0.00  0.00    +0.000 A 
ATOM      6  C   UNL     1       0.272  12.454  19.184  0.00  0.00    +0.000 A 
ATOM      7  N   UNL     1       0.022  13.731  18.750  0.00  0.00    +0.000 N 
ATOM      8  C   UNL     1       0.221  14.624  19.782  0.00  0.00    +0.000 A 
ATOM      9  C   UNL     1       0.052  16.013  19.816  0.00  0.00    +0.000 A 
ATOM     10  C   UNL     1       0.325  16.671  21.020  0.00  0.00    +0.000 A 
ATOM     11  C   UNL     1       0.754  15.965  22.143  0.00  0.00    +0.000 A 
ATOM     12  C   UNL     1       0.922  14.578  22.093  0.00  0.00    +0.000 A 
ATOM     13  C   UNL     1       0.651  13.891  20.893  0.00  0.00    +0.000 A 
ATOM     14  C   UNL     1       0.056  11.212  18.363  0.00  0.00    +0.000 C 
ATOM     15  N   UNL     1       0.599  10.096  19.132  0.00  0.00    +0.000 N 
ATOM     16  C   UNL     1       1.340   9.056  18.612  0.00  0.00    +0.000 C 
ATOM     17  O   UNL     1       1.541   8.858  17.423  0.00  0.00    +0.000 OA
ATOM     18  N   UNL     1       1.820   8.315  19.657  0.00  0.00    +0.000 N 
ATOM     19  H   UNL     1      -0.313  13.985  17.830  0.00  0.00    +0.000 HD
ENDROOT
BRANCH  14  20
ATOM     20  C   UNL     1      -1.406  10.980  17.996  0.00  0.00    +0.000 A 
ATOM     21  C   UNL     1      -2.404  11.753  18.614  0.00  0.00    +0.000 A 
ATOM     22  C   UNL     1      -3.756  11.519  18.343  0.00  0.00    +0.000 A 
ATOM     23  C   UNL     1      -4.115  10.523  17.444  0.00  0.00    +0.000 A 
ATOM     24  F   UNL     1      -5.411  10.284  17.203  0.00  0.00    +0.000 F 
ATOM     25  C   UNL     1      -3.150   9.770  16.792  0.00  0.00    +0.000 A 
ATOM     26  C   UNL     1      -1.800  10.004  17.057  0.00  0.00    +0.000 A 
ENDBRANCH  14  20
BRANCH  18  27
ATOM     27  C   UNL     1       2.759   7.219  19.526  0.00  0.00    +0.000 C 
BRANCH  27  28
ATOM     28  C   UNL     1       2.036   5.900  19.357  0.00  0.00    +0.000 A 
ATOM     29  C   UNL     1       1.512   5.225  20.470  0.00  0.00    +0.000 A 
ATOM     30  C   UNL     1       0.968   3.947  20.333  0.00  0.00    +0.000 A 
ATOM     31  C   UNL     1       0.932   3.334  19.082  0.00  0.00    +0.000 A 
ATOM     32  C   UNL     1       1.416   4.009  17.963  0.00  0.00    +0.000 A 
ATOM     33  C   UNL     1       1.964   5.286  18.098  0.00  0.00    +0.000 A 
ENDBRANCH  27  28
ENDBRANCH  18  27
TORSDOF 3
ENDMDL
MODEL 5
REMARK VINA RESULT:      -8.2      2.272      4.955
REMARK  Name = 
REMARK  3 active torsions:
REMARK  status: ('A' for Active; 'I' for Inactive)
REMARK    1  A    between atoms: C_14  and  C_15
REMARK    2  A    between atoms: N_25  and  C_26
REMARK    3  A    between atoms: C_26  and  C_27
REMARK                            x       y       z     vdW  Elec       q    Type
REMARK                         _______ _______ _______ _____ _____    ______ ____
ROOT
ATOM      1  O   UNL     1       0.689   7.820  22.122  0.00  0.00    +0.000 OA
ATOM      2  C   UNL     1       0.668   8.474  21.089  0.00  0.00    +0.000 C 
ATOM      3  C   UNL     1      -0.265   9.647  20.828  0.00  0.00    +0.000 C 
ATOM      4  C   UNL     1      -0.109  10.736  21.899  0.00  0.00    +0.000 C 
ATOM      5  C   UNL     1      -0.438  12.072  21.322  0.00  0.00    +0.000 A 
ATOM      6  C   UNL     1      -0.461  12.293  19.956  0.00  0.00    +0.000 A 
ATOM      7  N   UNL     1      -0.756  13.616  19.748  0.00  0.00    +0.000 N 
ATOM      8  C   UNL     1      -0.984  14.240  20.957  0.00  0.00    +0.000 A 
ATOM      9  C   UNL     1      -1.351  15.563  21.233  0.00  0.00    +0.000 A 
ATOM     10  C   UNL     1      -1.524  15.922  22.574  0.00  0.00    +0.000 A 
ATOM     11  C   UNL     1      -1.335  14.995  23.597  0.00  0.00    +0.000 A 
ATOM     12  C   UNL     1      -0.964  13.677  23.306  0.00  0.00    +0.000 A 
ATOM     13  C   UNL     1      -0.787  13.289  21.963  0.00  0.00    +0.000 A 
ATOM     14  C   UNL     1      -0.259  11.278  18.863  0.00  0.00    +0.000 C 
ATOM     15  N   UNL     1       0.196  10.049  19.505  0.00  0.00    +0.000 N 
ATOM     16  C   UNL     1       1.193   9.223  19.029  0.00  0.00    +0.000 C 
ATOM     17  O   UNL     1       1.747   9.338  17.945  0.00  0.00    +0.000 OA
ATOM     18  N   UNL     1       1.457   8.284  19.988  0.00  0.00    +0.000 N 
ATOM     19  H   UNL     1      -0.850  14.064  18.847  0.00  0.00    +0.000 HD
ENDROOT
BRANCH  14  20
ATOM     20  C   UNL     1      -1.511  11.041  18.024  0.00  0.00    +0.000 A 
ATOM     21  C   UNL     1      -1.485  10.072  17.005  0.00  0.00    +0.000 A 
ATOM     22  C   UNL     1      -2.596   9.878  16.178  0.00  0.00    +0.000 A 
ATOM     23  C   UNL     1      -3.741  10.638  16.376  0.00  0.00    +0.000 A 
ATOM     24  F   UNL     1      -4.797  10.468  15.569  0.00  0.00    +0.000 F 
ATOM     25  C   UNL     1      -3.808  11.575  17.397  0.00  0.00    +0.000 A 
ATOM     26  C   UNL     1      -2.701  11.768  18.226  0.00  0.00    +0.000 A 
ENDBRANCH  14  20
BRANCH  18  27
ATOM     27  C   UNL     1       2.540   7.324  19.921  0.00  0.00    +0.000 C 
BRANCH  27  28
ATOM     28  C   UNL     1       2.038   5.966  19.476  0.00  0.00    +0.000 A 
ATOM     29  C   UNL     1       1.575   5.033  20.416  0.00  0.00    +0.000 A 
ATOM     30  C   UNL     1       1.241   3.737  20.021  0.00  0.00    +0.000 A 
ATOM     31  C   UNL     1       1.356   3.362  18.684  0.00  0.00    +0.000 A 
ATOM     32  C   UNL     1       1.779   4.291  17.736  0.00  0.00    +0.000 A 
ATOM     33  C   UNL     1       2.117   5.587  18.128  0.00  0.00    +0.000 A 
ENDBRANCH  27  28
ENDBRANCH  18  27
TORSDOF 3
ENDMDL
MODEL 6
REMARK VINA RESULT:      -8.1      3.327      6.756
REMARK  Name = 
REMARK  3 active torsions:
REMARK  status: ('A' for Active; 'I' for Inactive)
REMARK    1  A    between atoms: C_14  and  C_15
REMARK    2  A    between atoms: N_25  and  C_26
REMARK    3  A    between atoms: C_26  and  C_27
REMARK                            x       y       z     vdW  Elec       q    Type
REMARK                         _______ _______ _______ _____ _____    ______ ____
ROOT
ATOM      1  O   UNL     1       1.106  14.530  22.315  0.00  0.00    +0.000 OA
ATOM      2  C   UNL     1       1.355  13.906  21.294  0.00  0.00    +0.000 C 
ATOM      3  C   UNL     1       0.532  12.736  20.774  0.00  0.00    +0.000 C 
ATOM      4  C   UNL     1      -0.936  13.133  20.563  0.00  0.00    +0.000 C 
ATOM      5  C   UNL     1      -1.538  12.308  19.475  0.00  0.00    +0.000 A 
ATOM      6  C   UNL     1      -0.757  11.621  18.562  0.00  0.00    +0.000 A 
ATOM      7  N   UNL     1      -1.597  10.997  17.676  0.00  0.00    +0.000 N 
ATOM      8  C   UNL     1      -2.909  11.220  18.038  0.00  0.00    +0.000 A 
ATOM      9  C   UNL     1      -4.096  10.754  17.459  0.00  0.00    +0.000 A 
ATOM     10  C   UNL     1      -5.303  11.141  18.051  0.00  0.00    +0.000 A 
ATOM     11  C   UNL     1      -5.320  11.962  19.177  0.00  0.00    +0.000 A 
ATOM     12  C   UNL     1      -4.127  12.423  19.743  0.00  0.00    +0.000 A 
ATOM     13  C   UNL     1      -2.898  12.046  19.167  0.00  0.00    +0.000 A 
ATOM     14  C   UNL     1       0.743  11.509  18.545  0.00  0.00    +0.000 C 
ATOM     15  N   UNL     1       1.250  12.450  19.538  0.00  0.00    +0.000 N 
ATOM     16  C   UNL     1       2.349  13.268  19.374  0.00  0.00    +0.000 C 
ATOM     17  O   UNL     1       3.121  13.230  18.428  0.00  0.00    +0.000 OA
ATOM     18  N   UNL     1       2.397  14.128  20.437  0.00  0.00    +0.000 N 
ATOM     19  H   UNL     1      -1.309  10.413  16.903  0.00  0.00    +0.000 HD
ENDROOT
BRANCH  14  20
ATOM     20  C   UNL     1       1.244  10.092  18.809  0.00  0.00    +0.000 A 
ATOM     21  C   UNL     1       0.969   9.481  20.045  0.00  0.00    +0.000 A 
ATOM     22  C   UNL     1       1.469   8.209  20.338  0.00  0.00    +0.000 A 
ATOM     23  C   UNL     1       2.233   7.536  19.393  0.00  0.00    +0.000 A 
ATOM     24  F   UNL     1       2.731   6.327  19.683  0.00  0.00    +0.000 F 
ATOM     25  C   UNL     1       2.489   8.099  18.151  0.00  0.00    +0.000 A 
ATOM     26  C   UNL     1       1.988   9.368  17.855  0.00  0.00    +0.000 A 
ENDBRANCH  14  20
BRANCH  18  27
ATOM     27  C   UNL     1       3.326  15.234  20.557  0.00  0.00    +0.000 C 
BRANCH  27  28
ATOM     28  C   UNL     1       4.689  14.755  21.007  0.00  0.00    +0.000 A 
ATOM     29  C   UNL     1       4.837  14.055  22.214  0.00  0.00    +0.000 A 
ATOM     30  C   UNL     1       6.107  13.733  22.695  0.00  0.00    +0.000 A 
ATOM     31  C   UNL     1       7.242  14.098  21.973  0.00  0.00    +0.000 A 
ATOM     32  C   UNL     1       7.106  14.761  20.755  0.00  0.00    +0.000 A 
ATOM     33  C   UNL     1       5.837  15.087  20.272  0.00  0.00    +0.000 A 
ENDBRANCH  27  28
ENDBRANCH  18  27
TORSDOF 3
ENDMDL
MODEL 7
REMARK VINA RESULT:      -8.0      2.259      4.934
REMARK  Name = 
REMARK  3 active torsions:
REMARK  status: ('A' for Active; 'I' for Inactive)
REMARK    1  A    between atoms: C_14  and  C_15
REMARK    2  A    between atoms: N_25  and  C_26
REMARK    3  A    between atoms: C_26  and  C_27
REMARK                            x       y       z     vdW  Elec       q    Type
REMARK                         _______ _______ _______ _____ _____    ______ ____
ROOT
ATOM      1  O   UNL     1       0.774   7.681  21.970  0.00  0.00    +0.000 OA
ATOM      2  C   UNL     1       0.763   8.373  20.962  0.00  0.00    +0.000 C 
ATOM      3  C   UNL     1      -0.189   9.535  20.721  0.00  0.00    +0.000 C 
ATOM      4  C   UNL     1      -0.085  10.585  21.836  0.00  0.00    +0.000 C 
ATOM      5  C   UNL     1      -0.429  11.935  21.301  0.00  0.00    +0.000 A 
ATOM      6  C   UNL     1      -0.424  12.207  19.944  0.00  0.00    +0.000 A 
ATOM      7  N   UNL     1      -0.743  13.531  19.779  0.00  0.00    +0.000 N 
ATOM      8  C   UNL     1      -1.015  14.103  21.004  0.00  0.00    +0.000 A 
ATOM      9  C   UNL     1      -1.418  15.406  21.320  0.00  0.00    +0.000 A 
ATOM     10  C   UNL     1      -1.632  15.710  22.669  0.00  0.00    +0.000 A 
ATOM     11  C   UNL     1      -1.447  14.749  23.660  0.00  0.00    +0.000 A 
ATOM     12  C   UNL     1      -1.040  13.451  23.330  0.00  0.00    +0.000 A 
ATOM     13  C   UNL     1      -0.821  13.119  21.979  0.00  0.00    +0.000 A 
ATOM     14  C   UNL     1      -0.172  11.239  18.820  0.00  0.00    +0.000 C 
ATOM     15  N   UNL     1       0.295   9.997  19.426  0.00  0.00    +0.000 N 
ATOM     16  C   UNL     1       1.322   9.211  18.945  0.00  0.00    +0.000 C 
ATOM     17  O   UNL     1       1.899   9.379  17.881  0.00  0.00    +0.000 OA
ATOM     18  N   UNL     1       1.583   8.242  19.875  0.00  0.00    +0.000 N 
ATOM     19  H   UNL     1      -0.825  14.010  18.893  0.00  0.00    +0.000 HD
ENDROOT
BRANCH  14  20
ATOM     20  C   UNL     1      -1.396  11.007  17.940  0.00  0.00    +0.000 A 
ATOM     21  C   UNL     1      -2.541  11.802  18.126  0.00  0.00    +0.000 A 
ATOM     22  C   UNL     1      -3.699  11.570  17.378  0.00  0.00    +0.000 A 
ATOM     23  C   UNL     1      -3.713  10.554  16.431  0.00  0.00    +0.000 A 
ATOM     24  F   UNL     1      -4.830  10.317  15.730  0.00  0.00    +0.000 F 
ATOM     25  C   UNL     1      -2.586   9.778  16.200  0.00  0.00    +0.000 A 
ATOM     26  C   UNL     1      -1.428  10.011  16.943  0.00  0.00    +0.000 A 
ENDBRANCH  14  20
BRANCH  18  27
ATOM     27  C   UNL     1       2.689   7.309  19.800  0.00  0.00    +0.000 C 
BRANCH  27  28
ATOM     28  C   UNL     1       2.211   5.930  19.398  0.00  0.00    +0.000 A 
ATOM     29  C   UNL     1       2.164   5.555  18.046  0.00  0.00    +0.000 A 
ATOM     30  C   UNL     1       1.597   4.338  17.667  0.00  0.00    +0.000 A 
ATOM     31  C   UNL     1       1.078   3.478  18.633  0.00  0.00    +0.000 A 
ATOM     32  C   UNL     1       1.152   3.822  19.982  0.00  0.00    +0.000 A 
ATOM     33  C   UNL     1       1.716   5.040  20.364  0.00  0.00    +0.000 A 
ENDBRANCH  27  28
ENDBRANCH  18  27
TORSDOF 3
ENDMDL
MODEL 8
REMARK VINA RESULT:      -8.0      3.199      7.532
REMARK  Name = 
REMARK  3 active torsions:
REMARK  status: ('A' for Active; 'I' for Inactive)
REMARK    1  A    between atoms: C_14  and  C_15
REMARK    2  A    between atoms: N_25  and  C_26
REMARK    3  A    between atoms: C_26  and  C_27
REMARK                            x       y       z     vdW  Elec       q    Type
REMARK                         _______ _______ _______ _____ _____    ______ ____
ROOT
ATOM      1  O   UNL     1      -1.463  10.836  23.422  0.00  0.00    +0.000 OA
ATOM      2  C   UNL     1      -1.208  11.353  22.344  0.00  0.00    +0.000 C 
ATOM      3  C   UNL     1       0.066  11.107  21.548  0.00  0.00    +0.000 C 
ATOM      4  C   UNL     1       0.259   9.614  21.247  0.00  0.00    +0.000 C 
ATOM      5  C   UNL     1       1.022   9.443  19.976  0.00  0.00    +0.000 A 
ATOM      6  C   UNL     1       1.142  10.466  19.052  0.00  0.00    +0.000 A 
ATOM      7  N   UNL     1       1.861   9.988  17.986  0.00  0.00    +0.000 N 
ATOM      8  C   UNL     1       2.261   8.691  18.235  0.00  0.00    +0.000 A 
ATOM      9  C   UNL     1       3.039   7.824  17.459  0.00  0.00    +0.000 A 
ATOM     10  C   UNL     1       3.297   6.548  17.973  0.00  0.00    +0.000 A 
ATOM     11  C   UNL     1       2.793   6.157  19.211  0.00  0.00    +0.000 A 
ATOM     12  C   UNL     1       2.013   7.033  19.974  0.00  0.00    +0.000 A 
ATOM     13  C   UNL     1       1.742   8.325  19.481  0.00  0.00    +0.000 A 
ATOM     14  C   UNL     1       0.635  11.877  19.181  0.00  0.00    +0.000 C 
ATOM     15  N   UNL     1      -0.213  11.916  20.368  0.00  0.00    +0.000 N 
ATOM     16  C   UNL     1      -1.418  12.580  20.465  0.00  0.00    +0.000 C 
ATOM     17  O   UNL     1      -1.883  13.326  19.616  0.00  0.00    +0.000 OA
ATOM     18  N   UNL     1      -1.995  12.235  21.656  0.00  0.00    +0.000 N 
ATOM     19  H   UNL     1       2.114  10.516  17.163  0.00  0.00    +0.000 HD
ENDROOT
BRANCH  14  20
ATOM     20  C   UNL     1       1.752  12.912  19.256  0.00  0.00    +0.000 A 
ATOM     21  C   UNL     1       2.250  13.478  18.069  0.00  0.00    +0.000 A 
ATOM     22  C   UNL     1       3.317  14.382  18.103  0.00  0.00    +0.000 A 
ATOM     23  C   UNL     1       3.879  14.736  19.323  0.00  0.00    +0.000 A 
ATOM     24  F   UNL     1       4.915  15.585  19.353  0.00  0.00    +0.000 F 
ATOM     25  C   UNL     1       3.383  14.222  20.512  0.00  0.00    +0.000 A 
ATOM     26  C   UNL     1       2.317  13.323  20.481  0.00  0.00    +0.000 A 
ENDBRANCH  14  20
BRANCH  18  27
ATOM     27  C   UNL     1      -3.334  12.615  22.061  0.00  0.00    +0.000 C 
BRANCH  27  28
ATOM     28  C   UNL     1      -3.306  13.843  22.946  0.00  0.00    +0.000 A 
ATOM     29  C   UNL     1      -3.180  15.124  22.387  0.00  0.00    +0.000 A 
ATOM     30  C   UNL     1      -3.017  16.242  23.207  0.00  0.00    +0.000 A 
ATOM     31  C   UNL     1      -2.989  16.094  24.592  0.00  0.00    +0.000 A 
ATOM     32  C   UNL     1      -3.150  14.832  25.160  0.00  0.00    +0.000 A 
ATOM     33  C   UNL     1      -3.310  13.712  24.343  0.00  0.00    +0.000 A 
ENDBRANCH  27  28
ENDBRANCH  18  27
TORSDOF 3
ENDMDL
MODEL 9
REMARK VINA RESULT:      -8.0      3.208      7.576
REMARK  Name = 
REMARK  3 active torsions:
REMARK  status: ('A' for Active; 'I' for Inactive)
REMARK    1  A    between atoms: C_14  and  C_15
REMARK    2  A    between atoms: N_25  and  C_26
REMARK    3  A    between atoms: C_26  and  C_27
REMARK                            x       y       z     vdW  Elec       q    Type
REMARK                         _______ _______ _______ _____ _____    ______ ____
ROOT
ATOM      1  O   UNL     1      -1.309  11.164  23.614  0.00  0.00    +0.000 OA
ATOM      2  C   UNL     1      -1.266  11.574  22.463  0.00  0.00    +0.000 C 
ATOM      3  C   UNL     1      -0.091  11.370  21.516  0.00  0.00    +0.000 C 
ATOM      4  C   UNL     1       0.237   9.880  21.344  0.00  0.00    +0.000 C 
ATOM      5  C   UNL     1       0.836   9.641  19.998  0.00  0.00    +0.000 A 
ATOM      6  C   UNL     1       0.706  10.555  18.967  0.00  0.00    +0.000 A 
ATOM      7  N   UNL     1       1.326  10.032  17.861  0.00  0.00    +0.000 N 
ATOM      8  C   UNL     1       1.908   8.822  18.178  0.00  0.00    +0.000 A 
ATOM      9  C   UNL     1       2.672   7.956  17.388  0.00  0.00    +0.000 A 
ATOM     10  C   UNL     1       3.147   6.783  17.984  0.00  0.00    +0.000 A 
ATOM     11  C   UNL     1       2.866   6.489  19.317  0.00  0.00    +0.000 A 
ATOM     12  C   UNL     1       2.098   7.363  20.094  0.00  0.00    +0.000 A 
ATOM     13  C   UNL     1       1.610   8.553  19.518  0.00  0.00    +0.000 A 
ATOM     14  C   UNL     1       0.057  11.911  19.025  0.00  0.00    +0.000 C 
ATOM     15  N   UNL     1      -0.621  12.002  20.314  0.00  0.00    +0.000 N 
ATOM     16  C   UNL     1      -1.873  12.543  20.520  0.00  0.00    +0.000 C 
ATOM     17  O   UNL     1      -2.534  13.133  19.678  0.00  0.00    +0.000 OA
ATOM     18  N   UNL     1      -2.238  12.282  21.813  0.00  0.00    +0.000 N 
ATOM     19  H   UNL     1       1.401  10.484  16.960  0.00  0.00    +0.000 HD
ENDROOT
BRANCH  14  20
ATOM     20  C   UNL     1       1.042  13.059  18.829  0.00  0.00    +0.000 A 
ATOM     21  C   UNL     1       0.576  14.384  18.872  0.00  0.00    +0.000 A 
ATOM     22  C   UNL     1       1.444  15.454  18.633  0.00  0.00    +0.000 A 
ATOM     23  C   UNL     1       2.784  15.204  18.365  0.00  0.00    +0.000 A 
ATOM     24  F   UNL     1       3.611  16.227  18.113  0.00  0.00    +0.000 F 
ATOM     25  C   UNL     1       3.280  13.908  18.353  0.00  0.00    +0.000 A 
ATOM     26  C   UNL     1       2.415  12.840  18.595  0.00  0.00    +0.000 A 
ENDBRANCH  14  20
BRANCH  18  27
ATOM     27  C   UNL     1      -3.545  12.567  22.370  0.00  0.00    +0.000 C 
BRANCH  27  28
ATOM     28  C   UNL     1      -3.566  13.922  23.046  0.00  0.00    +0.000 A 
ATOM     29  C   UNL     1      -3.152  14.062  24.379  0.00  0.00    +0.000 A 
ATOM     30  C   UNL     1      -3.299  15.281  25.042  0.00  0.00    +0.000 A 
ATOM     31  C   UNL     1      -3.853  16.375  24.379  0.00  0.00    +0.000 A 
ATOM     32  C   UNL     1      -4.233  16.258  23.043  0.00  0.00    +0.000 A 
ATOM     33  C   UNL     1      -4.090  15.039  22.378  0.00  0.00    +0.000 A 
ENDBRANCH  27  28
ENDBRANCH  18  27
TORSDOF 3
ENDMDL
