MODEL 1
REMARK VINA RESULT:      -7.5      0.000      0.000
REMARK  Name = 
REMARK  3 active torsions:
REMARK  status: ('A' for Active; 'I' for Inactive)
REMARK    1  A    between atoms: C_1  and  O_2
REMARK    2  A    between atoms: O_2  and  C_3
REMARK    3  A    between atoms: N_23  and  C_24
REMARK                            x       y       z     vdW  Elec       q    Type
REMARK                         _______ _______ _______ _____ _____    ______ ____
ROOT
ATOM      1  C   UNL     1       2.884   4.258  19.967  0.00  0.00    +0.000 A 
ATOM      2  C   UNL     1       3.020   4.160  18.557  0.00  0.00    +0.000 A 
ATOM      3  C   UNL     1       2.944   5.295  17.724  0.00  0.00    +0.000 A 
ATOM      4  C   UNL     1       2.629   6.541  18.304  0.00  0.00    +0.000 A 
ATOM      5  N   UNL     1       2.358   7.810  17.792  0.00  0.00    +0.000 N 
ATOM      6  C   UNL     1       1.897   8.649  18.802  0.00  0.00    +0.000 A 
ATOM      7  C   UNL     1       1.855   7.868  19.927  0.00  0.00    +0.000 A 
ATOM      8  C   UNL     1       2.428   6.617  19.674  0.00  0.00    +0.000 A 
ATOM      9  C   UNL     1       2.581   5.505  20.497  0.00  0.00    +0.000 A 
ATOM     10  C   UNL     1       1.039   8.196  21.097  0.00  0.00    +0.000 C 
ATOM     11  C   UNL     1       0.044   9.315  20.769  0.00  0.00    +0.000 C 
ATOM     12  N   UNL     1      -0.135   9.726  19.321  0.00  0.00    +0.000 N 
ATOM     13  C   UNL     1      -1.066  10.763  18.974  0.00  0.00    +0.000 C 
ATOM     14  O   UNL     1      -2.210  10.530  18.581  0.00  0.00    +0.000 OA
ATOM     15  C   UNL     1      -0.525  12.208  19.026  0.00  0.00    +0.000 A 
ATOM     16  C   UNL     1      -1.399  13.279  19.278  0.00  0.00    +0.000 A 
ATOM     17  C   UNL     1      -1.663  13.653  20.590  0.00  0.00    +0.000 A 
ATOM     18  C   UNL     1      -0.973  12.996  21.586  0.00  0.00    +0.000 A 
ATOM     19  C   UNL     1       0.217  12.320  21.230  0.00  0.00    +0.000 A 
ATOM     20  C   UNL     1       0.551  12.081  19.867  0.00  0.00    +0.000 A 
ATOM     21  N   UNL     1       1.661  11.246  19.380  0.00  0.00    +0.000 N 
ATOM     22  C   UNL     1       2.334  12.108  18.371  0.00  0.00    +0.000 C 
ATOM     23  C   UNL     1       1.133   9.988  18.678  0.00  0.00    +0.000 C 
ATOM     24  H   UNL     1       2.347   8.017  16.796  0.00  0.00    +0.000 HD
ENDROOT
BRANCH   1  26
ATOM     25  C   UNL     1       1.679   2.974  21.583  0.00  0.00    +0.000 C 
ATOM     26  O   UNL     1       2.874   3.276  20.913  0.00  0.00    +0.000 OA
ENDBRANCH   1  26
TORSDOF 1
ENDMDL
MODEL 2
REMARK VINA RESULT:      -7.0      1.117      1.301
REMARK  Name = 
REMARK  3 active torsions:
REMARK  status: ('A' for Active; 'I' for Inactive)
REMARK    1  A    between atoms: C_1  and  O_2
REMARK    2  A    between atoms: O_2  and  C_3
REMARK    3  A    between atoms: N_23  and  C_24
REMARK                            x       y       z     vdW  Elec       q    Type
REMARK                         _______ _______ _______ _____ _____    ______ ____
ROOT
ATOM      1  C   UNL     1       2.162   4.903  20.135  0.00  0.00    +0.000 A 
ATOM      2  C   UNL     1       2.539   5.059  18.775  0.00  0.00    +0.000 A 
ATOM      3  C   UNL     1       2.612   6.328  18.165  0.00  0.00    +0.000 A 
ATOM      4  C   UNL     1       2.206   7.459  18.905  0.00  0.00    +0.000 A 
ATOM      5  N   UNL     1       2.032   8.808  18.598  0.00  0.00    +0.000 N 
ATOM      6  C   UNL     1       1.407   9.465  19.654  0.00  0.00    +0.000 A 
ATOM      7  C   UNL     1       1.169   8.494  20.591  0.00  0.00    +0.000 A 
ATOM      8  C   UNL     1       1.772   7.291  20.211  0.00  0.00    +0.000 A 
ATOM      9  C   UNL     1       1.776   6.043  20.828  0.00  0.00    +0.000 A 
ATOM     10  C   UNL     1       0.164   8.633  21.646  0.00  0.00    +0.000 C 
ATOM     11  C   UNL     1      -0.756   9.828  21.368  0.00  0.00    +0.000 C 
ATOM     12  N   UNL     1      -0.680  10.501  20.013  0.00  0.00    +0.000 N 
ATOM     13  C   UNL     1      -1.534  11.616  19.712  0.00  0.00    +0.000 C 
ATOM     14  O   UNL     1      -2.594  11.499  19.094  0.00  0.00    +0.000 OA
ATOM     15  C   UNL     1      -1.004  13.007  20.121  0.00  0.00    +0.000 A 
ATOM     16  C   UNL     1      -1.905  14.046  20.415  0.00  0.00    +0.000 A 
ATOM     17  C   UNL     1      -2.390  14.184  21.710  0.00  0.00    +0.000 A 
ATOM     18  C   UNL     1      -1.885  13.332  22.669  0.00  0.00    +0.000 A 
ATOM     19  C   UNL     1      -0.653  12.691  22.401  0.00  0.00    +0.000 A 
ATOM     20  C   UNL     1      -0.090  12.692  21.094  0.00  0.00    +0.000 A 
ATOM     21  N   UNL     1       1.084  11.920  20.655  0.00  0.00    +0.000 N 
ATOM     22  C   UNL     1       1.924  12.928  19.952  0.00  0.00    +0.000 C 
ATOM     23  C   UNL     1       0.681  10.831  19.653  0.00  0.00    +0.000 C 
ATOM     24  H   UNL     1       2.194   9.193  17.671  0.00  0.00    +0.000 HD
ENDROOT
BRANCH   1  26
ATOM     25  C   UNL     1       2.928   2.731  20.775  0.00  0.00    +0.000 C 
ATOM     26  O   UNL     1       1.986   3.767  20.867  0.00  0.00    +0.000 OA
ENDBRANCH   1  26
TORSDOF 1
ENDMDL
MODEL 3
REMARK VINA RESULT:      -6.9      4.996      7.949
REMARK  Name = 
REMARK  3 active torsions:
REMARK  status: ('A' for Active; 'I' for Inactive)
REMARK    1  A    between atoms: C_1  and  O_2
REMARK    2  A    between atoms: O_2  and  C_3
REMARK    3  A    between atoms: N_23  and  C_24
REMARK                            x       y       z     vdW  Elec       q    Type
REMARK                         _______ _______ _______ _____ _____    ______ ____
ROOT
ATOM      1  C   UNL     1       6.810   3.399  11.918  0.00  0.00    +0.000 A 
ATOM      2  C   UNL     1       7.544   4.612  11.835  0.00  0.00    +0.000 A 
ATOM      3  C   UNL     1       7.750   5.433  12.963  0.00  0.00    +0.000 A 
ATOM      4  C   UNL     1       7.128   5.082  14.179  0.00  0.00    +0.000 A 
ATOM      5  N   UNL     1       7.011   5.701  15.423  0.00  0.00    +0.000 N 
ATOM      6  C   UNL     1       6.102   5.011  16.221  0.00  0.00    +0.000 A 
ATOM      7  C   UNL     1       5.639   3.989  15.435  0.00  0.00    +0.000 A 
ATOM      8  C   UNL     1       6.354   3.933  14.235  0.00  0.00    +0.000 A 
ATOM      9  C   UNL     1       6.219   3.089  13.136  0.00  0.00    +0.000 A 
ATOM     10  C   UNL     1       4.378   3.291  15.695  0.00  0.00    +0.000 C 
ATOM     11  C   UNL     1       3.542   4.048  16.733  0.00  0.00    +0.000 C 
ATOM     12  N   UNL     1       3.972   5.445  17.133  0.00  0.00    +0.000 N 
ATOM     13  C   UNL     1       3.207   6.189  18.094  0.00  0.00    +0.000 C 
ATOM     14  O   UNL     1       2.362   7.026  17.772  0.00  0.00    +0.000 OA
ATOM     15  C   UNL     1       3.568   5.956  19.577  0.00  0.00    +0.000 A 
ATOM     16  C   UNL     1       2.595   6.136  20.575  0.00  0.00    +0.000 A 
ATOM     17  C   UNL     1       1.768   5.075  20.923  0.00  0.00    +0.000 A 
ATOM     18  C   UNL     1       2.009   3.860  20.320  0.00  0.00    +0.000 A 
ATOM     19  C   UNL     1       3.283   3.651  19.742  0.00  0.00    +0.000 A 
ATOM     20  C   UNL     1       4.185   4.732  19.533  0.00  0.00    +0.000 A 
ATOM     21  N   UNL     1       5.454   4.671  18.789  0.00  0.00    +0.000 N 
ATOM     22  C   UNL     1       6.430   5.322  19.705  0.00  0.00    +0.000 C 
ATOM     23  C   UNL     1       5.370   5.492  17.496  0.00  0.00    +0.000 C 
ATOM     24  H   UNL     1       7.413   6.611  15.631  0.00  0.00    +0.000 HD
ENDROOT
BRANCH   1  26
ATOM     25  C   UNL     1       6.561   1.139  11.180  0.00  0.00    +0.000 C 
ATOM     26  O   UNL     1       6.467   2.518  10.936  0.00  0.00    +0.000 OA
ENDBRANCH   1  26
TORSDOF 1
ENDMDL
MODEL 4
REMARK VINA RESULT:      -6.9      2.358      7.546
REMARK  Name = 
REMARK  3 active torsions:
REMARK  status: ('A' for Active; 'I' for Inactive)
REMARK    1  A    between atoms: C_1  and  O_2
REMARK    2  A    between atoms: O_2  and  C_3
REMARK    3  A    between atoms: N_23  and  C_24
REMARK                            x       y       z     vdW  Elec       q    Type
REMARK                         _______ _______ _______ _____ _____    ______ ____
ROOT
ATOM      1  C   UNL     1      -0.363  10.320  20.722  0.00  0.00    +0.000 A 
ATOM      2  C   UNL     1      -0.666   9.449  21.801  0.00  0.00    +0.000 A 
ATOM      3  C   UNL     1       0.101   8.294  22.061  0.00  0.00    +0.000 A 
ATOM      4  C   UNL     1       1.136   7.952  21.165  0.00  0.00    +0.000 A 
ATOM      5  N   UNL     1       1.989   6.857  21.041  0.00  0.00    +0.000 N 
ATOM      6  C   UNL     1       2.692   6.927  19.842  0.00  0.00    +0.000 A 
ATOM      7  C   UNL     1       2.230   8.058  19.221  0.00  0.00    +0.000 A 
ATOM      8  C   UNL     1       1.381   8.771  20.073  0.00  0.00    +0.000 A 
ATOM      9  C   UNL     1       0.667   9.948  19.868  0.00  0.00    +0.000 A 
ATOM     10  C   UNL     1       2.358   8.286  17.780  0.00  0.00    +0.000 C 
ATOM     11  C   UNL     1       2.777   6.999  17.060  0.00  0.00    +0.000 C 
ATOM     12  N   UNL     1       2.752   5.696  17.832  0.00  0.00    +0.000 N 
ATOM     13  C   UNL     1       3.127   4.468  17.188  0.00  0.00    +0.000 C 
ATOM     14  O   UNL     1       2.303   3.683  16.714  0.00  0.00    +0.000 OA
ATOM     15  C   UNL     1       4.631   4.124  17.204  0.00  0.00    +0.000 A 
ATOM     16  C   UNL     1       5.183   3.331  16.182  0.00  0.00    +0.000 A 
ATOM     17  C   UNL     1       5.642   3.936  15.019  0.00  0.00    +0.000 A 
ATOM     18  C   UNL     1       5.609   5.313  14.966  0.00  0.00    +0.000 A 
ATOM     19  C   UNL     1       5.525   6.019  16.189  0.00  0.00    +0.000 A 
ATOM     20  C   UNL     1       5.205   5.353  17.405  0.00  0.00    +0.000 A 
ATOM     21  N   UNL     1       4.919   5.999  18.698  0.00  0.00    +0.000 N 
ATOM     22  C   UNL     1       5.775   5.252  19.659  0.00  0.00    +0.000 C 
ATOM     23  C   UNL     1       3.450   5.806  19.093  0.00  0.00    +0.000 C 
ATOM     24  H   UNL     1       1.960   6.056  21.666  0.00  0.00    +0.000 HD
ENDROOT
BRANCH   1  26
ATOM     25  C   UNL     1      -1.674  11.415  19.050  0.00  0.00    +0.000 C 
ATOM     26  O   UNL     1      -1.017  11.435  20.290  0.00  0.00    +0.000 OA
ENDBRANCH   1  26
TORSDOF 1
ENDMDL
MODEL 5
REMARK VINA RESULT:      -6.8      3.676      6.109
REMARK  Name = 
REMARK  3 active torsions:
REMARK  status: ('A' for Active; 'I' for Inactive)
REMARK    1  A    between atoms: C_1  and  O_2
REMARK    2  A    between atoms: O_2  and  C_3
REMARK    3  A    between atoms: N_23  and  C_24
REMARK                            x       y       z     vdW  Elec       q    Type
REMARK                         _______ _______ _______ _____ _____    ______ ____
ROOT
ATOM      1  C   UNL     1       1.078   9.236  19.435  0.00  0.00    +0.000 A 
ATOM      2  C   UNL     1       1.463   8.467  20.565  0.00  0.00    +0.000 A 
ATOM      3  C   UNL     1       0.849   8.637  21.823  0.00  0.00    +0.000 A 
ATOM      4  C   UNL     1      -0.105   9.664  21.977  0.00  0.00    +0.000 A 
ATOM      5  N   UNL     1      -0.801  10.186  23.067  0.00  0.00    +0.000 N 
ATOM      6  C   UNL     1      -1.472  11.349  22.698  0.00  0.00    +0.000 A 
ATOM      7  C   UNL     1      -1.146  11.549  21.382  0.00  0.00    +0.000 A 
ATOM      8  C   UNL     1      -0.425  10.458  20.887  0.00  0.00    +0.000 A 
ATOM      9  C   UNL     1       0.132  10.233  19.631  0.00  0.00    +0.000 A 
ATOM     10  C   UNL     1      -1.262  12.850  20.720  0.00  0.00    +0.000 C 
ATOM     11  C   UNL     1      -1.485  13.965  21.748  0.00  0.00    +0.000 C 
ATOM     12  N   UNL     1      -1.309  13.642  23.218  0.00  0.00    +0.000 N 
ATOM     13  C   UNL     1      -1.499  14.664  24.210  0.00  0.00    +0.000 C 
ATOM     14  O   UNL     1      -0.565  15.302  24.699  0.00  0.00    +0.000 OA
ATOM     15  C   UNL     1      -2.945  14.863  24.713  0.00  0.00    +0.000 A 
ATOM     16  C   UNL     1      -3.357  16.117  25.196  0.00  0.00    +0.000 A 
ATOM     17  C   UNL     1      -3.858  17.061  24.307  0.00  0.00    +0.000 A 
ATOM     18  C   UNL     1      -4.006  16.676  22.992  0.00  0.00    +0.000 A 
ATOM     19  C   UNL     1      -4.053  15.290  22.710  0.00  0.00    +0.000 A 
ATOM     20  C   UNL     1      -3.682  14.326  23.689  0.00  0.00    +0.000 A 
ATOM     21  N   UNL     1      -3.522  12.879  23.464  0.00  0.00    +0.000 N 
ATOM     22  C   UNL     1      -4.298  12.263  24.574  0.00  0.00    +0.000 C 
ATOM     23  C   UNL     1      -2.052  12.462  23.600  0.00  0.00    +0.000 C 
ATOM     24  H   UNL     1      -0.685   9.844  24.017  0.00  0.00    +0.000 HD
ENDROOT
BRANCH   1  26
ATOM     25  C   UNL     1       2.591   8.327  17.823  0.00  0.00    +0.000 C 
ATOM     26  O   UNL     1       1.591   9.248  18.172  0.00  0.00    +0.000 OA
ENDBRANCH   1  26
TORSDOF 1
ENDMDL
MODEL 6
REMARK VINA RESULT:      -6.7      1.463      2.150
REMARK  Name = 
REMARK  3 active torsions:
REMARK  status: ('A' for Active; 'I' for Inactive)
REMARK    1  A    between atoms: C_1  and  O_2
REMARK    2  A    between atoms: O_2  and  C_3
REMARK    3  A    between atoms: N_23  and  C_24
REMARK                            x       y       z     vdW  Elec       q    Type
REMARK                         _______ _______ _______ _____ _____    ______ ____
ROOT
ATOM      1  C   UNL     1       2.239   5.964  19.769  0.00  0.00    +0.000 A 
ATOM      2  C   UNL     1       2.447   6.227  18.389  0.00  0.00    +0.000 A 
ATOM      3  C   UNL     1       2.346   7.530  17.858  0.00  0.00    +0.000 A 
ATOM      4  C   UNL     1       1.935   8.577  18.708  0.00  0.00    +0.000 A 
ATOM      5  N   UNL     1       1.618   9.920  18.510  0.00  0.00    +0.000 N 
ATOM      6  C   UNL     1       1.063  10.461  19.666  0.00  0.00    +0.000 A 
ATOM      7  C   UNL     1       1.011   9.422  20.558  0.00  0.00    +0.000 A 
ATOM      8  C   UNL     1       1.665   8.300  20.040  0.00  0.00    +0.000 A 
ATOM      9  C   UNL     1       1.841   7.025  20.570  0.00  0.00    +0.000 A 
ATOM     10  C   UNL     1       0.123   9.413  21.722  0.00  0.00    +0.000 C 
ATOM     11  C   UNL     1      -0.917  10.535  21.621  0.00  0.00    +0.000 C 
ATOM     12  N   UNL     1      -1.049  11.286  20.312  0.00  0.00    +0.000 N 
ATOM     13  C   UNL     1      -2.019  12.336  20.177  0.00  0.00    +0.000 C 
ATOM     14  O   UNL     1      -3.128  12.160  19.670  0.00  0.00    +0.000 OA
ATOM     15  C   UNL     1      -1.563  13.744  20.616  0.00  0.00    +0.000 A 
ATOM     16  C   UNL     1      -2.507  14.681  21.071  0.00  0.00    +0.000 A 
ATOM     17  C   UNL     1      -2.854  14.704  22.417  0.00  0.00    +0.000 A 
ATOM     18  C   UNL     1      -2.176  13.848  23.259  0.00  0.00    +0.000 A 
ATOM     19  C   UNL     1      -0.934  13.335  22.820  0.00  0.00    +0.000 A 
ATOM     20  C   UNL     1      -0.523  13.458  21.463  0.00  0.00    +0.000 A 
ATOM     21  N   UNL     1       0.654  12.818  20.852  0.00  0.00    +0.000 N 
ATOM     22  C   UNL     1       1.325  13.934  20.130  0.00  0.00    +0.000 C 
ATOM     23  C   UNL     1       0.232  11.754  19.831  0.00  0.00    +0.000 C 
ATOM     24  H   UNL     1       1.643  10.369  17.597  0.00  0.00    +0.000 HD
ENDROOT
BRANCH   1  26
ATOM     25  C   UNL     1       1.108   3.950  20.382  0.00  0.00    +0.000 C 
ATOM     26  O   UNL     1       2.239   4.778  20.440  0.00  0.00    +0.000 OA
ENDBRANCH   1  26
TORSDOF 1
ENDMDL
MODEL 7
REMARK VINA RESULT:      -6.7      2.330      3.732
REMARK  Name = 
REMARK  3 active torsions:
REMARK  status: ('A' for Active; 'I' for Inactive)
REMARK    1  A    between atoms: C_1  and  O_2
REMARK    2  A    between atoms: O_2  and  C_3
REMARK    3  A    between atoms: N_23  and  C_24
REMARK                            x       y       z     vdW  Elec       q    Type
REMARK                         _______ _______ _______ _____ _____    ______ ____
ROOT
ATOM      1  C   UNL     1       3.095   6.598  18.252  0.00  0.00    +0.000 A 
ATOM      2  C   UNL     1       2.867   6.062  19.547  0.00  0.00    +0.000 A 
ATOM      3  C   UNL     1       2.042   6.716  20.486  0.00  0.00    +0.000 A 
ATOM      4  C   UNL     1       1.510   7.979  20.156  0.00  0.00    +0.000 A 
ATOM      5  N   UNL     1       0.781   8.939  20.858  0.00  0.00    +0.000 N 
ATOM      6  C   UNL     1       0.689  10.113  20.116  0.00  0.00    +0.000 A 
ATOM      7  C   UNL     1       1.402   9.871  18.972  0.00  0.00    +0.000 A 
ATOM      8  C   UNL     1       1.795   8.529  18.916  0.00  0.00    +0.000 A 
ATOM      9  C   UNL     1       2.548   7.842  17.968  0.00  0.00    +0.000 A 
ATOM     10  C   UNL     1       1.935  10.937  18.123  0.00  0.00    +0.000 C 
ATOM     11  C   UNL     1       1.858  12.291  18.837  0.00  0.00    +0.000 C 
ATOM     12  N   UNL     1       1.509  12.314  20.312  0.00  0.00    +0.000 N 
ATOM     13  C   UNL     1       1.438  13.563  21.017  0.00  0.00    +0.000 C 
ATOM     14  O   UNL     1       2.371  14.005  21.690  0.00  0.00    +0.000 OA
ATOM     15  C   UNL     1       0.078  14.293  20.972  0.00  0.00    +0.000 A 
ATOM     16  C   UNL     1       0.025  15.692  21.094  0.00  0.00    +0.000 A 
ATOM     17  C   UNL     1       0.146  16.484  19.959  0.00  0.00    +0.000 A 
ATOM     18  C   UNL     1       0.227  15.838  18.743  0.00  0.00    +0.000 A 
ATOM     19  C   UNL     1      -0.231  14.502  18.673  0.00  0.00    +0.000 A 
ATOM     20  C   UNL     1      -0.500  13.752  19.852  0.00  0.00    +0.000 A 
ATOM     21  N   UNL     1      -0.810  12.313  19.913  0.00  0.00    +0.000 N 
ATOM     22  C   UNL     1      -2.019  12.250  20.777  0.00  0.00    +0.000 C 
ATOM     23  C   UNL     1       0.324  11.537  20.595  0.00  0.00    +0.000 C 
ATOM     24  H   UNL     1       0.511   8.829  21.833  0.00  0.00    +0.000 HD
ENDROOT
BRANCH   1  26
ATOM     25  C   UNL     1       5.121   6.776  16.997  0.00  0.00    +0.000 C 
ATOM     26  O   UNL     1       3.895   6.141  17.248  0.00  0.00    +0.000 OA
ENDBRANCH   1  26
TORSDOF 1
ENDMDL
MODEL 8
REMARK VINA RESULT:      -6.6      8.706     10.556
REMARK  Name = 
REMARK  3 active torsions:
REMARK  status: ('A' for Active; 'I' for Inactive)
REMARK    1  A    between atoms: C_1  and  O_2
REMARK    2  A    between atoms: O_2  and  C_3
REMARK    3  A    between atoms: N_23  and  C_24
REMARK                            x       y       z     vdW  Elec       q    Type
REMARK                         _______ _______ _______ _____ _____    ______ ____
ROOT
ATOM      1  C   UNL     1       6.461  12.247  25.533  0.00  0.00    +0.000 A 
ATOM      2  C   UNL     1       5.971  13.573  25.666  0.00  0.00    +0.000 A 
ATOM      3  C   UNL     1       5.970  14.476  24.583  0.00  0.00    +0.000 A 
ATOM      4  C   UNL     1       6.559  14.075  23.366  0.00  0.00    +0.000 A 
ATOM      5  N   UNL     1       6.840  14.723  22.164  0.00  0.00    +0.000 N 
ATOM      6  C   UNL     1       7.630  13.913  21.353  0.00  0.00    +0.000 A 
ATOM      7  C   UNL     1       7.859  12.781  22.090  0.00  0.00    +0.000 A 
ATOM      8  C   UNL     1       7.100  12.803  23.265  0.00  0.00    +0.000 A 
ATOM      9  C   UNL     1       7.028  11.893  24.316  0.00  0.00    +0.000 A 
ATOM     10  C   UNL     1       8.971  11.867  21.825  0.00  0.00    +0.000 C 
ATOM     11  C   UNL     1       9.976  12.501  20.857  0.00  0.00    +0.000 C 
ATOM     12  N   UNL     1       9.838  13.973  20.528  0.00  0.00    +0.000 N 
ATOM     13  C   UNL     1      10.767  14.604  19.633  0.00  0.00    +0.000 C 
ATOM     14  O   UNL     1      11.744  15.244  20.027  0.00  0.00    +0.000 OA
ATOM     15  C   UNL     1      10.426  14.523  18.130  0.00  0.00    +0.000 A 
ATOM     16  C   UNL     1      11.454  14.562  17.171  0.00  0.00    +0.000 A 
ATOM     17  C   UNL     1      12.075  13.381  16.785  0.00  0.00    +0.000 A 
ATOM     18  C   UNL     1      11.582  12.206  17.310  0.00  0.00    +0.000 A 
ATOM     19  C   UNL     1      10.270  12.218  17.839  0.00  0.00    +0.000 A 
ATOM     20  C   UNL     1       9.585  13.440  18.085  0.00  0.00    +0.000 A 
ATOM     21  N   UNL     1       8.300  13.588  18.788  0.00  0.00    +0.000 N 
ATOM     22  C   UNL     1       7.503  14.462  17.885  0.00  0.00    +0.000 C 
ATOM     23  C   UNL     1       8.489  14.308  20.129  0.00  0.00    +0.000 C 
ATOM     24  H   UNL     1       6.628  15.704  21.998  0.00  0.00    +0.000 HD
ENDROOT
BRANCH   1  26
ATOM     25  C   UNL     1       5.442  10.702  27.045  0.00  0.00    +0.000 C 
ATOM     26  O   UNL     1       6.591  11.267  26.471  0.00  0.00    +0.000 OA
ENDBRANCH   1  26
TORSDOF 1
ENDMDL
MODEL 9
REMARK VINA RESULT:      -6.4      1.996      3.179
REMARK  Name = 
REMARK  3 active torsions:
REMARK  status: ('A' for Active; 'I' for Inactive)
REMARK    1  A    between atoms: C_1  and  O_2
REMARK    2  A    between atoms: O_2  and  C_3
REMARK    3  A    between atoms: N_23  and  C_24
REMARK                            x       y       z     vdW  Elec       q    Type
REMARK                         _______ _______ _______ _____ _____    ______ ____
ROOT
ATOM      1  C   UNL     1       2.210   7.022  19.652  0.00  0.00    +0.000 A 
ATOM      2  C   UNL     1       2.201   7.356  18.272  0.00  0.00    +0.000 A 
ATOM      3  C   UNL     1       1.883   8.655  17.824  0.00  0.00    +0.000 A 
ATOM      4  C   UNL     1       1.472   9.616  18.771  0.00  0.00    +0.000 A 
ATOM      5  N   UNL     1       0.980  10.918  18.682  0.00  0.00    +0.000 N 
ATOM      6  C   UNL     1       0.526  11.347  19.926  0.00  0.00    +0.000 A 
ATOM      7  C   UNL     1       0.713  10.280  20.764  0.00  0.00    +0.000 A 
ATOM      8  C   UNL     1       1.416   9.263  20.111  0.00  0.00    +0.000 A 
ATOM      9  C   UNL     1       1.804   8.000  20.550  0.00  0.00    +0.000 A 
ATOM     10  C   UNL     1      -0.006  10.124  22.030  0.00  0.00    +0.000 C 
ATOM     11  C   UNL     1      -1.171  11.117  22.120  0.00  0.00    +0.000 C 
ATOM     12  N   UNL     1      -1.561  11.892  20.878  0.00  0.00    +0.000 N 
ATOM     13  C   UNL     1      -2.654  12.822  20.921  0.00  0.00    +0.000 C 
ATOM     14  O   UNL     1      -3.793  12.532  20.552  0.00  0.00    +0.000 OA
ATOM     15  C   UNL     1      -2.307  14.258  21.367  0.00  0.00    +0.000 A 
ATOM     16  C   UNL     1      -3.282  15.059  21.987  0.00  0.00    +0.000 A 
ATOM     17  C   UNL     1      -3.447  14.994  23.365  0.00  0.00    +0.000 A 
ATOM     18  C   UNL     1      -2.571  14.197  24.070  0.00  0.00    +0.000 A 
ATOM     19  C   UNL     1      -1.347  13.851  23.450  0.00  0.00    +0.000 A 
ATOM     20  C   UNL     1      -1.138  14.069  22.059  0.00  0.00    +0.000 A 
ATOM     21  N   UNL     1       0.013  13.597  21.271  0.00  0.00    +0.000 N 
ATOM     22  C   UNL     1       0.450  14.808  20.526  0.00  0.00    +0.000 C 
ATOM     23  C   UNL     1      -0.417  12.526  20.261  0.00  0.00    +0.000 C 
ATOM     24  H   UNL     1       0.832  11.397  17.798  0.00  0.00    +0.000 HD
ENDROOT
BRANCH   1  26
ATOM     25  C   UNL     1       1.383   4.903  20.382  0.00  0.00    +0.000 C 
ATOM     26  O   UNL     1       2.435   5.823  20.257  0.00  0.00    +0.000 OA
ENDBRANCH   1  26
TORSDOF 1
ENDMDL
