MODEL 1
REMARK VINA RESULT:      -7.1      0.000      0.000
REMARK  Name = 
REMARK  12 active torsions:
REMARK  status: ('A' for Active; 'I' for Inactive)
REMARK    1  A    between atoms: C_1  and  N_2
REMARK    2  A    between atoms: N_2  and  C_3
REMARK    3  A    between atoms: C_3  and  C_4
REMARK    4  A    between atoms: C_4  and  O_5
REMARK    5  A    between atoms: O_5  and  C_6
REMARK    6  A    between atoms: C_8  and  C_9
REMARK    7  A    between atoms: C_9  and  O_10
REMARK    8  A    between atoms: C_11  and  O_12
REMARK    9  A    between atoms: C_13  and  O_14
REMARK   10  A    between atoms: C_15  and  O_16
REMARK   11  A    between atoms: C_17  and  C_19
REMARK   12  A    between atoms: C_19  and  N_20
REMARK                            x       y       z     vdW  Elec       q    Type
REMARK                         _______ _______ _______ _____ _____    ______ ____
ROOT
ATOM      1  O   UNL     1       3.975   4.995  18.043  0.00  0.00    +0.000 OA
ENDROOT
BRANCH   1   2
ATOM      2  C   UNL     1       4.317   4.201  19.201  0.00  0.00    +0.000 C 
ATOM      3  O   UNL     1       3.230   4.200  20.139  0.00  0.00    +0.000 OA
ATOM      4  C   UNL     1       2.044   3.596  19.603  0.00  0.00    +0.000 C 
ATOM      5  C   UNL     1       2.276   2.126  19.209  0.00  0.00    +0.000 C 
ATOM      6  C   UNL     1       3.555   1.937  18.383  0.00  0.00    +0.000 C 
ATOM      7  C   UNL     1       4.732   2.751  18.911  0.00  0.00    +0.000 C 
BRANCH   5   8
ATOM      8  O   UNL     1       1.172   1.616  18.443  0.00  0.00    +0.000 OA
ATOM      9  H   UNL     1       1.438   1.561  17.507  0.00  0.00    +0.000 HD
ENDBRANCH   5   8
BRANCH   6  10
ATOM     10  O   UNL     1       3.927   0.542  18.418  0.00  0.00    +0.000 OA
ATOM     11  H   UNL     1       4.724   0.485  18.981  0.00  0.00    +0.000 HD
ENDBRANCH   6  10
BRANCH   7  12
ATOM     12  O   UNL     1       5.200   2.157  20.145  0.00  0.00    +0.000 OA
ATOM     13  H   UNL     1       6.091   1.806  19.946  0.00  0.00    +0.000 HD
ENDBRANCH   7  12
BRANCH   4  14
ATOM     14  C   UNL     1       0.966   3.728  20.687  0.00  0.00    +0.000 C 
BRANCH  14  15
ATOM     15  O   UNL     1       1.206   2.815  21.757  0.00  0.00    +0.000 OA
ATOM     16  H   UNL     1       1.802   3.278  22.377  0.00  0.00    +0.000 HD
ENDBRANCH  14  15
ENDBRANCH   4  14
ENDBRANCH   1   2
BRANCH   1  17
ATOM     17  C   UNL     1       4.363   6.346  18.335  0.00  0.00    +0.000 C 
BRANCH  17  18
ATOM     18  C   UNL     1       3.540   7.497  17.737  0.00  0.00    +0.000 C 
BRANCH  18  20
ATOM     19  C   UNL     1       2.131   7.248  19.861  0.00  0.00    +0.000 C 
ATOM     20  N   UNL     1       2.473   7.994  18.653  0.00  0.00    +0.000 N 
ATOM     21  C   UNL     1       1.632   9.034  18.206  0.00  0.00    +0.000 C 
ATOM     22  O   UNL     1       1.822   9.627  17.145  0.00  0.00    +0.000 OA
BRANCH  21  23
ATOM     23  C   UNL     1       0.486   9.390  19.148  0.00  0.00    +0.000 C 
BRANCH  23  24
ATOM     24  N   UNL     1       0.650  10.637  19.885  0.00  0.00    +0.000 N 
ATOM     25  C   UNL     1       1.190  11.774  19.329  0.00  0.00    +0.000 A 
ATOM     26  C   UNL     1       1.416  12.623  20.385  0.00  0.00    +0.000 A 
ATOM     27  N   UNL     1       1.026  12.050  21.564  0.00  0.00    +0.000 NA
ATOM     28  C   UNL     1       0.557  10.857  21.234  0.00  0.00    +0.000 A 
ATOM     29  N   UNL     1       0.086   9.908  22.210  0.00  0.00    +0.000 N 
ATOM     30  O   UNL     1      -0.328   8.815  21.786  0.00  0.00    +0.000 OA
ATOM     31  O   UNL     1       0.153  10.224  23.401  0.00  0.00    +0.000 OA
ENDBRANCH  23  24
ENDBRANCH  21  23
ENDBRANCH  18  20
ENDBRANCH  17  18
ENDBRANCH   1  17
TORSDOF 11
ENDMDL
MODEL 2
REMARK VINA RESULT:      -7.0      2.744      4.056
REMARK  Name = 
REMARK  12 active torsions:
REMARK  status: ('A' for Active; 'I' for Inactive)
REMARK    1  A    between atoms: C_1  and  N_2
REMARK    2  A    between atoms: N_2  and  C_3
REMARK    3  A    between atoms: C_3  and  C_4
REMARK    4  A    between atoms: C_4  and  O_5
REMARK    5  A    between atoms: O_5  and  C_6
REMARK    6  A    between atoms: C_8  and  C_9
REMARK    7  A    between atoms: C_9  and  O_10
REMARK    8  A    between atoms: C_11  and  O_12
REMARK    9  A    between atoms: C_13  and  O_14
REMARK   10  A    between atoms: C_15  and  O_16
REMARK   11  A    between atoms: C_17  and  C_19
REMARK   12  A    between atoms: C_19  and  N_20
REMARK                            x       y       z     vdW  Elec       q    Type
REMARK                         _______ _______ _______ _____ _____    ______ ____
ROOT
ATOM      1  O   UNL     1       2.746   6.047  20.071  0.00  0.00    +0.000 OA
ENDROOT
BRANCH   1   2
ATOM      2  C   UNL     1       1.825   5.005  19.683  0.00  0.00    +0.000 C 
ATOM      3  O   UNL     1       2.366   4.248  18.591  0.00  0.00    +0.000 OA
ATOM      4  C   UNL     1       3.579   3.568  18.944  0.00  0.00    +0.000 C 
ATOM      5  C   UNL     1       3.365   2.571  20.096  0.00  0.00    +0.000 C 
ATOM      6  C   UNL     1       2.579   3.185  21.262  0.00  0.00    +0.000 C 
ATOM      7  C   UNL     1       1.403   4.042  20.803  0.00  0.00    +0.000 C 
BRANCH   5   8
ATOM      8  O   UNL     1       4.621   2.094  20.609  0.00  0.00    +0.000 OA
ATOM      9  H   UNL     1       4.967   1.411  20.006  0.00  0.00    +0.000 HD
ENDBRANCH   5   8
BRANCH   6  10
ATOM     10  O   UNL     1       2.058   2.117  22.083  0.00  0.00    +0.000 OA
ATOM     11  H   UNL     1       1.784   1.408  21.468  0.00  0.00    +0.000 HD
ENDBRANCH   6  10
BRANCH   7  12
ATOM     12  O   UNL     1       0.362   3.178  20.291  0.00  0.00    +0.000 OA
ATOM     13  H   UNL     1      -0.029   2.744  21.076  0.00  0.00    +0.000 HD
ENDBRANCH   7  12
BRANCH   4  14
ATOM     14  C   UNL     1       4.066   2.864  17.669  0.00  0.00    +0.000 C 
BRANCH  14  15
ATOM     15  O   UNL     1       4.078   1.448  17.845  0.00  0.00    +0.000 OA
ATOM     16  H   UNL     1       4.917   1.136  17.454  0.00  0.00    +0.000 HD
ENDBRANCH  14  15
ENDBRANCH   4  14
ENDBRANCH   1   2
BRANCH   1  17
ATOM     17  C   UNL     1       2.370   7.227  19.345  0.00  0.00    +0.000 C 
BRANCH  17  18
ATOM     18  C   UNL     1       1.693   8.378  20.104  0.00  0.00    +0.000 C 
BRANCH  18  20
ATOM     19  C   UNL     1       1.619   9.743  17.939  0.00  0.00    +0.000 C 
ATOM     20  N   UNL     1       1.009   9.353  19.207  0.00  0.00    +0.000 N 
ATOM     21  C   UNL     1      -0.088  10.081  19.713  0.00  0.00    +0.000 C 
ATOM     22  O   UNL     1      -0.576   9.855  20.820  0.00  0.00    +0.000 OA
BRANCH  21  23
ATOM     23  C   UNL     1      -0.644  11.150  18.776  0.00  0.00    +0.000 C 
BRANCH  23  24
ATOM     24  N   UNL     1      -1.896  10.807  18.113  0.00  0.00    +0.000 N 
ATOM     25  C   UNL     1      -1.955  10.069  16.953  0.00  0.00    +0.000 A 
ATOM     26  C   UNL     1      -3.251  10.187  16.513  0.00  0.00    +0.000 A 
ATOM     27  N   UNL     1      -3.988  10.963  17.366  0.00  0.00    +0.000 NA
ATOM     28  C   UNL     1      -3.150  11.314  18.329  0.00  0.00    +0.000 A 
ATOM     29  N   UNL     1      -3.529  12.185  19.411  0.00  0.00    +0.000 N 
ATOM     30  O   UNL     1      -2.659  12.453  20.258  0.00  0.00    +0.000 OA
ATOM     31  O   UNL     1      -4.678  12.635  19.414  0.00  0.00    +0.000 OA
ENDBRANCH  23  24
ENDBRANCH  21  23
ENDBRANCH  18  20
ENDBRANCH  17  18
ENDBRANCH   1  17
TORSDOF 11
ENDMDL
MODEL 3
REMARK VINA RESULT:      -6.9      2.419      3.961
REMARK  Name = 
REMARK  12 active torsions:
REMARK  status: ('A' for Active; 'I' for Inactive)
REMARK    1  A    between atoms: C_1  and  N_2
REMARK    2  A    between atoms: N_2  and  C_3
REMARK    3  A    between atoms: C_3  and  C_4
REMARK    4  A    between atoms: C_4  and  O_5
REMARK    5  A    between atoms: O_5  and  C_6
REMARK    6  A    between atoms: C_8  and  C_9
REMARK    7  A    between atoms: C_9  and  O_10
REMARK    8  A    between atoms: C_11  and  O_12
REMARK    9  A    between atoms: C_13  and  O_14
REMARK   10  A    between atoms: C_15  and  O_16
REMARK   11  A    between atoms: C_17  and  C_19
REMARK   12  A    between atoms: C_19  and  N_20
REMARK                            x       y       z     vdW  Elec       q    Type
REMARK                         _______ _______ _______ _____ _____    ______ ____
ROOT
ATOM      1  O   UNL     1       3.318   5.994  17.757  0.00  0.00    +0.000 OA
ENDROOT
BRANCH   1   2
ATOM      2  C   UNL     1       3.948   4.701  17.888  0.00  0.00    +0.000 C 
ATOM      3  O   UNL     1       4.344   4.210  16.599  0.00  0.00    +0.000 OA
ATOM      4  C   UNL     1       5.327   5.047  15.973  0.00  0.00    +0.000 C 
ATOM      5  C   UNL     1       6.614   5.148  16.811  0.00  0.00    +0.000 C 
ATOM      6  C   UNL     1       6.327   5.444  18.289  0.00  0.00    +0.000 C 
ATOM      7  C   UNL     1       5.152   4.642  18.841  0.00  0.00    +0.000 C 
BRANCH   5   8
ATOM      8  O   UNL     1       7.477   6.182  16.309  0.00  0.00    +0.000 OA
ATOM      9  H   UNL     1       7.741   6.758  17.050  0.00  0.00    +0.000 HD
ENDBRANCH   5   8
BRANCH   6  10
ATOM     10  O   UNL     1       7.498   5.107  19.064  0.00  0.00    +0.000 OA
ATOM     11  H   UNL     1       7.985   4.435  18.547  0.00  0.00    +0.000 HD
ENDBRANCH   6  10
BRANCH   7  12
ATOM     12  O   UNL     1       5.550   3.260  18.986  0.00  0.00    +0.000 OA
ATOM     13  H   UNL     1       5.930   3.189  19.885  0.00  0.00    +0.000 HD
ENDBRANCH   7  12
BRANCH   4  14
ATOM     14  C   UNL     1       5.597   4.434  14.591  0.00  0.00    +0.000 C 
BRANCH  14  15
ATOM     15  O   UNL     1       6.989   4.173  14.416  0.00  0.00    +0.000 OA
ATOM     16  H   UNL     1       7.169   3.339  14.893  0.00  0.00    +0.000 HD
ENDBRANCH  14  15
ENDBRANCH   4  14
ENDBRANCH   1   2
BRANCH   1  17
ATOM     17  C   UNL     1       2.368   6.105  18.828  0.00  0.00    +0.000 C 
BRANCH  17  18
ATOM     18  C   UNL     1       2.442   7.327  19.756  0.00  0.00    +0.000 C 
BRANCH  18  20
ATOM     19  C   UNL     1       1.714   8.950  17.914  0.00  0.00    +0.000 C 
ATOM     20  N   UNL     1       1.607   8.471  19.290  0.00  0.00    +0.000 N 
ATOM     21  C   UNL     1       0.918   9.240  20.251  0.00  0.00    +0.000 C 
ATOM     22  O   UNL     1       0.882   8.929  21.442  0.00  0.00    +0.000 OA
BRANCH  21  23
ATOM     23  C   UNL     1       0.198  10.468  19.704  0.00  0.00    +0.000 C 
BRANCH  23  24
ATOM     24  N   UNL     1       0.770  11.751  20.092  0.00  0.00    +0.000 N 
ATOM     25  C   UNL     1       1.862  12.308  19.467  0.00  0.00    +0.000 A 
ATOM     26  C   UNL     1       2.248  13.354  20.271  0.00  0.00    +0.000 A 
ATOM     27  N   UNL     1       1.427  13.460  21.360  0.00  0.00    +0.000 NA
ATOM     28  C   UNL     1       0.537  12.489  21.223  0.00  0.00    +0.000 A 
ATOM     29  N   UNL     1      -0.487  12.227  22.201  0.00  0.00    +0.000 N 
ATOM     30  O   UNL     1      -1.266  11.286  21.971  0.00  0.00    +0.000 OA
ATOM     31  O   UNL     1      -0.507  12.928  23.217  0.00  0.00    +0.000 OA
ENDBRANCH  23  24
ENDBRANCH  21  23
ENDBRANCH  18  20
ENDBRANCH  17  18
ENDBRANCH   1  17
TORSDOF 11
ENDMDL
MODEL 4
REMARK VINA RESULT:      -6.8      2.783      4.457
REMARK  Name = 
REMARK  12 active torsions:
REMARK  status: ('A' for Active; 'I' for Inactive)
REMARK    1  A    between atoms: C_1  and  N_2
REMARK    2  A    between atoms: N_2  and  C_3
REMARK    3  A    between atoms: C_3  and  C_4
REMARK    4  A    between atoms: C_4  and  O_5
REMARK    5  A    between atoms: O_5  and  C_6
REMARK    6  A    between atoms: C_8  and  C_9
REMARK    7  A    between atoms: C_9  and  O_10
REMARK    8  A    between atoms: C_11  and  O_12
REMARK    9  A    between atoms: C_13  and  O_14
REMARK   10  A    between atoms: C_15  and  O_16
REMARK   11  A    between atoms: C_17  and  C_19
REMARK   12  A    between atoms: C_19  and  N_20
REMARK                            x       y       z     vdW  Elec       q    Type
REMARK                         _______ _______ _______ _____ _____    ______ ____
ROOT
ATOM      1  O   UNL     1       3.426   6.153  17.684  0.00  0.00    +0.000 OA
ENDROOT
BRANCH   1   2
ATOM      2  C   UNL     1       4.084   4.873  17.813  0.00  0.00    +0.000 C 
ATOM      3  O   UNL     1       4.595   4.449  16.540  0.00  0.00    +0.000 OA
ATOM      4  C   UNL     1       5.596   5.339  16.028  0.00  0.00    +0.000 C 
ATOM      5  C   UNL     1       6.810   5.441  16.968  0.00  0.00    +0.000 C 
ATOM      6  C   UNL     1       6.400   5.665  18.430  0.00  0.00    +0.000 C 
ATOM      7  C   UNL     1       5.211   4.809  18.854  0.00  0.00    +0.000 C 
BRANCH   5   8
ATOM      8  O   UNL     1       7.677   6.519  16.579  0.00  0.00    +0.000 OA
ATOM      9  H   UNL     1       7.729   6.545  15.606  0.00  0.00    +0.000 HD
ENDBRANCH   5   8
BRANCH   6  10
ATOM     10  O   UNL     1       7.517   5.329  19.281  0.00  0.00    +0.000 OA
ATOM     11  H   UNL     1       7.712   6.131  19.806  0.00  0.00    +0.000 HD
ENDBRANCH   6  10
BRANCH   7  12
ATOM     12  O   UNL     1       5.640   3.433  18.975  0.00  0.00    +0.000 OA
ATOM     13  H   UNL     1       5.183   2.950  18.258  0.00  0.00    +0.000 HD
ENDBRANCH   7  12
BRANCH   4  14
ATOM     14  C   UNL     1       5.993   4.794  14.649  0.00  0.00    +0.000 C 
BRANCH  14  15
ATOM     15  O   UNL     1       6.330   3.409  14.728  0.00  0.00    +0.000 OA
ATOM     16  H   UNL     1       7.283   3.377  14.939  0.00  0.00    +0.000 HD
ENDBRANCH  14  15
ENDBRANCH   4  14
ENDBRANCH   1   2
BRANCH   1  17
ATOM     17  C   UNL     1       2.366   6.175  18.652  0.00  0.00    +0.000 C 
BRANCH  17  18
ATOM     18  C   UNL     1       2.302   7.342  19.650  0.00  0.00    +0.000 C 
BRANCH  18  20
ATOM     19  C   UNL     1       2.198   9.091  17.783  0.00  0.00    +0.000 C 
ATOM     20  N   UNL     1       1.718   8.583  19.065  0.00  0.00    +0.000 N 
ATOM     21  C   UNL     1       0.898   9.392  19.880  0.00  0.00    +0.000 C 
ATOM     22  O   UNL     1       0.547   9.050  21.009  0.00  0.00    +0.000 OA
BRANCH  21  23
ATOM     23  C   UNL     1       0.453  10.707  19.248  0.00  0.00    +0.000 C 
BRANCH  23  24
ATOM     24  N   UNL     1      -0.934  10.747  18.803  0.00  0.00    +0.000 N 
ATOM     25  C   UNL     1      -1.382  10.093  17.678  0.00  0.00    +0.000 A 
ATOM     26  C   UNL     1      -2.648  10.580  17.454  0.00  0.00    +0.000 A 
ATOM     27  N   UNL     1      -2.991  11.501  18.406  0.00  0.00    +0.000 NA
ATOM     28  C   UNL     1      -1.945  11.576  19.214  0.00  0.00    +0.000 A 
ATOM     29  N   UNL     1      -1.888  12.482  20.332  0.00  0.00    +0.000 N 
ATOM     30  O   UNL     1      -0.853  12.470  21.020  0.00  0.00    +0.000 OA
ATOM     31  O   UNL     1      -2.850  13.233  20.515  0.00  0.00    +0.000 OA
ENDBRANCH  23  24
ENDBRANCH  21  23
ENDBRANCH  18  20
ENDBRANCH  17  18
ENDBRANCH   1  17
TORSDOF 11
ENDMDL
MODEL 5
REMARK VINA RESULT:      -6.8      2.285      3.761
REMARK  Name = 
REMARK  12 active torsions:
REMARK  status: ('A' for Active; 'I' for Inactive)
REMARK    1  A    between atoms: C_1  and  N_2
REMARK    2  A    between atoms: N_2  and  C_3
REMARK    3  A    between atoms: C_3  and  C_4
REMARK    4  A    between atoms: C_4  and  O_5
REMARK    5  A    between atoms: O_5  and  C_6
REMARK    6  A    between atoms: C_8  and  C_9
REMARK    7  A    between atoms: C_9  and  O_10
REMARK    8  A    between atoms: C_11  and  O_12
REMARK    9  A    between atoms: C_13  and  O_14
REMARK   10  A    between atoms: C_15  and  O_16
REMARK   11  A    between atoms: C_17  and  C_19
REMARK   12  A    between atoms: C_19  and  N_20
REMARK                            x       y       z     vdW  Elec       q    Type
REMARK                         _______ _______ _______ _____ _____    ______ ____
ROOT
ATOM      1  O   UNL     1       2.171   5.764  20.047  0.00  0.00    +0.000 OA
ENDROOT
BRANCH   1   2
ATOM      2  C   UNL     1       2.339   5.286  18.694  0.00  0.00    +0.000 C 
ATOM      3  O   UNL     1       3.695   5.479  18.265  0.00  0.00    +0.000 OA
ATOM      4  C   UNL     1       4.630   4.727  19.051  0.00  0.00    +0.000 C 
ATOM      5  C   UNL     1       4.363   3.213  18.970  0.00  0.00    +0.000 C 
ATOM      6  C   UNL     1       2.882   2.869  19.180  0.00  0.00    +0.000 C 
ATOM      7  C   UNL     1       1.939   3.823  18.454  0.00  0.00    +0.000 C 
BRANCH   5   8
ATOM      8  O   UNL     1       5.131   2.499  19.953  0.00  0.00    +0.000 OA
ATOM      9  H   UNL     1       5.987   2.246  19.560  0.00  0.00    +0.000 HD
ENDBRANCH   5   8
BRANCH   6  10
ATOM     10  O   UNL     1       2.642   1.536  18.680  0.00  0.00    +0.000 OA
ATOM     11  H   UNL     1       2.720   0.937  19.448  0.00  0.00    +0.000 HD
ENDBRANCH   6  10
BRANCH   7  12
ATOM     12  O   UNL     1       2.006   3.560  17.033  0.00  0.00    +0.000 OA
ATOM     13  H   UNL     1       2.707   2.887  16.922  0.00  0.00    +0.000 HD
ENDBRANCH   7  12
BRANCH   4  14
ATOM     14  C   UNL     1       6.025   5.085  18.520  0.00  0.00    +0.000 C 
BRANCH  14  15
ATOM     15  O   UNL     1       6.698   3.923  18.035  0.00  0.00    +0.000 OA
ATOM     16  H   UNL     1       7.061   3.474  18.823  0.00  0.00    +0.000 HD
ENDBRANCH  14  15
ENDBRANCH   4  14
ENDBRANCH   1   2
BRANCH   1  17
ATOM     17  C   UNL     1       2.143   7.198  19.981  0.00  0.00    +0.000 C 
BRANCH  17  18
ATOM     18  C   UNL     1       1.298   7.968  21.008  0.00  0.00    +0.000 C 
BRANCH  18  20
ATOM     19  C   UNL     1       1.079   9.704  19.138  0.00  0.00    +0.000 C 
ATOM     20  N   UNL     1       0.884   9.320  20.533  0.00  0.00    +0.000 N 
ATOM     21  C   UNL     1       0.551  10.299  21.492  0.00  0.00    +0.000 C 
ATOM     22  O   UNL     1       0.471  10.045  22.694  0.00  0.00    +0.000 OA
BRANCH  21  23
ATOM     23  C   UNL     1       0.269  11.688  20.929  0.00  0.00    +0.000 C 
BRANCH  23  24
ATOM     24  N   UNL     1      -1.141  12.031  20.792  0.00  0.00    +0.000 N 
ATOM     25  C   UNL     1      -1.882  11.733  19.671  0.00  0.00    +0.000 A 
ATOM     26  C   UNL     1      -3.055  12.435  19.813  0.00  0.00    +0.000 A 
ATOM     27  N   UNL     1      -3.060  13.144  20.983  0.00  0.00    +0.000 NA
ATOM     28  C   UNL     1      -1.900  12.874  21.560  0.00  0.00    +0.000 A 
ATOM     29  N   UNL     1      -1.492  13.472  22.805  0.00  0.00    +0.000 N 
ATOM     30  O   UNL     1      -0.378  13.149  23.253  0.00  0.00    +0.000 OA
ATOM     31  O   UNL     1      -2.255  14.287  23.331  0.00  0.00    +0.000 OA
ENDBRANCH  23  24
ENDBRANCH  21  23
ENDBRANCH  18  20
ENDBRANCH  17  18
ENDBRANCH   1  17
TORSDOF 11
ENDMDL
MODEL 6
REMARK VINA RESULT:      -6.8      3.538      7.527
REMARK  Name = 
REMARK  12 active torsions:
REMARK  status: ('A' for Active; 'I' for Inactive)
REMARK    1  A    between atoms: C_1  and  N_2
REMARK    2  A    between atoms: N_2  and  C_3
REMARK    3  A    between atoms: C_3  and  C_4
REMARK    4  A    between atoms: C_4  and  O_5
REMARK    5  A    between atoms: O_5  and  C_6
REMARK    6  A    between atoms: C_8  and  C_9
REMARK    7  A    between atoms: C_9  and  O_10
REMARK    8  A    between atoms: C_11  and  O_12
REMARK    9  A    between atoms: C_13  and  O_14
REMARK   10  A    between atoms: C_15  and  O_16
REMARK   11  A    between atoms: C_17  and  C_19
REMARK   12  A    between atoms: C_19  and  N_20
REMARK                            x       y       z     vdW  Elec       q    Type
REMARK                         _______ _______ _______ _____ _____    ______ ____
ROOT
ATOM      1  O   UNL     1       0.766   6.222  20.435  0.00  0.00    +0.000 OA
ENDROOT
BRANCH   1   2
ATOM      2  C   UNL     1       1.671   7.236  20.924  0.00  0.00    +0.000 C 
ATOM      3  O   UNL     1       2.348   7.866  19.827  0.00  0.00    +0.000 OA
ATOM      4  C   UNL     1       1.446   8.555  18.950  0.00  0.00    +0.000 C 
ATOM      5  C   UNL     1       0.675   9.670  19.678  0.00  0.00    +0.000 C 
ATOM      6  C   UNL     1       0.080   9.195  21.011  0.00  0.00    +0.000 C 
ATOM      7  C   UNL     1       1.038   8.318  21.812  0.00  0.00    +0.000 C 
BRANCH   5   8
ATOM      8  O   UNL     1      -0.399  10.173  18.866  0.00  0.00    +0.000 OA
ATOM      9  H   UNL     1      -0.422  11.145  18.942  0.00  0.00    +0.000 HD
ENDBRANCH   5   8
BRANCH   6  10
ATOM     10  O   UNL     1      -0.241  10.352  21.813  0.00  0.00    +0.000 OA
ATOM     11  H   UNL     1       0.314  11.082  21.475  0.00  0.00    +0.000 HD
ENDBRANCH   6  10
BRANCH   7  12
ATOM     12  O   UNL     1       2.097   9.144  22.348  0.00  0.00    +0.000 OA
ATOM     13  H   UNL     1       2.641   8.548  22.901  0.00  0.00    +0.000 HD
ENDBRANCH   7  12
BRANCH   4  14
ATOM     14  C   UNL     1       2.301   9.114  17.804  0.00  0.00    +0.000 C 
BRANCH  14  15
ATOM     15  O   UNL     1       1.910  10.449  17.483  0.00  0.00    +0.000 OA
ATOM     16  H   UNL     1       1.344  10.748  18.221  0.00  0.00    +0.000 HD
ENDBRANCH  14  15
ENDBRANCH   4  14
ENDBRANCH   1   2
BRANCH   1  17
ATOM     17  C   UNL     1       1.391   4.953  20.680  0.00  0.00    +0.000 C 
BRANCH  17  18
ATOM     18  C   UNL     1       1.456   3.929  19.537  0.00  0.00    +0.000 C 
BRANCH  18  20
ATOM     19  C   UNL     1       3.519   2.509  20.071  0.00  0.00    +0.000 C 
ATOM     20  N   UNL     1       2.845   3.487  19.222  0.00  0.00    +0.000 N 
ATOM     21  C   UNL     1       3.582   4.212  18.261  0.00  0.00    +0.000 C 
ATOM     22  O   UNL     1       3.082   5.113  17.589  0.00  0.00    +0.000 OA
BRANCH  21  23
ATOM     23  C   UNL     1       5.035   3.777  18.096  0.00  0.00    +0.000 C 
BRANCH  23  24
ATOM     24  N   UNL     1       5.813   4.552  17.138  0.00  0.00    +0.000 N 
ATOM     25  C   UNL     1       5.828   4.282  15.788  0.00  0.00    +0.000 A 
ATOM     26  C   UNL     1       6.855   5.039  15.278  0.00  0.00    +0.000 A 
ATOM     27  N   UNL     1       7.463   5.766  16.265  0.00  0.00    +0.000 NA
ATOM     28  C   UNL     1       6.808   5.463  17.375  0.00  0.00    +0.000 A 
ATOM     29  N   UNL     1       7.175   5.990  18.664  0.00  0.00    +0.000 N 
ATOM     30  O   UNL     1       6.492   5.634  19.640  0.00  0.00    +0.000 OA
ATOM     31  O   UNL     1       8.159   6.733  18.724  0.00  0.00    +0.000 OA
ENDBRANCH  23  24
ENDBRANCH  21  23
ENDBRANCH  18  20
ENDBRANCH  17  18
ENDBRANCH   1  17
TORSDOF 11
ENDMDL
MODEL 7
REMARK VINA RESULT:      -6.8      2.481      4.283
REMARK  Name = 
REMARK  12 active torsions:
REMARK  status: ('A' for Active; 'I' for Inactive)
REMARK    1  A    between atoms: C_1  and  N_2
REMARK    2  A    between atoms: N_2  and  C_3
REMARK    3  A    between atoms: C_3  and  C_4
REMARK    4  A    between atoms: C_4  and  O_5
REMARK    5  A    between atoms: O_5  and  C_6
REMARK    6  A    between atoms: C_8  and  C_9
REMARK    7  A    between atoms: C_9  and  O_10
REMARK    8  A    between atoms: C_11  and  O_12
REMARK    9  A    between atoms: C_13  and  O_14
REMARK   10  A    between atoms: C_15  and  O_16
REMARK   11  A    between atoms: C_17  and  C_19
REMARK   12  A    between atoms: C_19  and  N_20
REMARK                            x       y       z     vdW  Elec       q    Type
REMARK                         _______ _______ _______ _____ _____    ______ ____
ROOT
ATOM      1  O   UNL     1       3.501   5.786  17.456  0.00  0.00    +0.000 OA
ENDROOT
BRANCH   1   2
ATOM      2  C   UNL     1       4.208   4.557  17.730  0.00  0.00    +0.000 C 
ATOM      3  O   UNL     1       5.026   4.195  16.607  0.00  0.00    +0.000 OA
ATOM      4  C   UNL     1       6.047   5.166  16.338  0.00  0.00    +0.000 C 
ATOM      5  C   UNL     1       7.004   5.341  17.530  0.00  0.00    +0.000 C 
ATOM      6  C   UNL     1       6.257   5.507  18.860  0.00  0.00    +0.000 C 
ATOM      7  C   UNL     1       5.071   4.557  19.001  0.00  0.00    +0.000 C 
BRANCH   5   8
ATOM      8  O   UNL     1       7.852   6.487  17.350  0.00  0.00    +0.000 OA
ATOM      9  H   UNL     1       7.436   7.256  17.780  0.00  0.00    +0.000 HD
ENDBRANCH   5   8
BRANCH   6  10
ATOM     10  O   UNL     1       7.173   5.238  19.943  0.00  0.00    +0.000 OA
ATOM     11  H   UNL     1       6.789   4.495  20.449  0.00  0.00    +0.000 HD
ENDBRANCH   6  10
BRANCH   7  12
ATOM     12  O   UNL     1       5.566   3.214  19.215  0.00  0.00    +0.000 OA
ATOM     13  H   UNL     1       5.792   3.166  20.165  0.00  0.00    +0.000 HD
ENDBRANCH   7  12
BRANCH   4  14
ATOM     14  C   UNL     1       6.787   4.678  15.084  0.00  0.00    +0.000 C 
BRANCH  14  15
ATOM     15  O   UNL     1       6.241   3.442  14.623  0.00  0.00    +0.000 OA
ATOM     16  H   UNL     1       6.982   2.805  14.624  0.00  0.00    +0.000 HD
ENDBRANCH  14  15
ENDBRANCH   4  14
ENDBRANCH   1   2
BRANCH   1  17
ATOM     17  C   UNL     1       2.503   5.929  18.479  0.00  0.00    +0.000 C 
BRANCH  17  18
ATOM     18  C   UNL     1       2.636   7.083  19.485  0.00  0.00    +0.000 C 
BRANCH  18  20
ATOM     19  C   UNL     1       1.865   8.874  17.826  0.00  0.00    +0.000 C 
ATOM     20  N   UNL     1       1.783   8.258  19.147  0.00  0.00    +0.000 N 
ATOM     21  C   UNL     1       1.102   8.919  20.191  0.00  0.00    +0.000 C 
ATOM     22  O   UNL     1       1.087   8.490  21.344  0.00  0.00    +0.000 OA
BRANCH  21  23
ATOM     23  C   UNL     1       0.361  10.188  19.779  0.00  0.00    +0.000 C 
BRANCH  23  24
ATOM     24  N   UNL     1       0.242  11.204  20.817  0.00  0.00    +0.000 N 
ATOM     25  C   UNL     1      -0.673  11.128  21.843  0.00  0.00    +0.000 A 
ATOM     26  C   UNL     1      -0.654  12.366  22.438  0.00  0.00    +0.000 A 
ATOM     27  N   UNL     1       0.243  13.192  21.819  0.00  0.00    +0.000 NA
ATOM     28  C   UNL     1       0.779  12.464  20.853  0.00  0.00    +0.000 A 
ATOM     29  N   UNL     1       1.748  12.991  19.926  0.00  0.00    +0.000 N 
ATOM     30  O   UNL     1       2.180  12.217  19.055  0.00  0.00    +0.000 OA
ATOM     31  O   UNL     1       2.063  14.179  20.035  0.00  0.00    +0.000 OA
ENDBRANCH  23  24
ENDBRANCH  21  23
ENDBRANCH  18  20
ENDBRANCH  17  18
ENDBRANCH   1  17
TORSDOF 11
ENDMDL
MODEL 8
REMARK VINA RESULT:      -6.8      1.988      3.694
REMARK  Name = 
REMARK  12 active torsions:
REMARK  status: ('A' for Active; 'I' for Inactive)
REMARK    1  A    between atoms: C_1  and  N_2
REMARK    2  A    between atoms: N_2  and  C_3
REMARK    3  A    between atoms: C_3  and  C_4
REMARK    4  A    between atoms: C_4  and  O_5
REMARK    5  A    between atoms: O_5  and  C_6
REMARK    6  A    between atoms: C_8  and  C_9
REMARK    7  A    between atoms: C_9  and  O_10
REMARK    8  A    between atoms: C_11  and  O_12
REMARK    9  A    between atoms: C_13  and  O_14
REMARK   10  A    between atoms: C_15  and  O_16
REMARK   11  A    between atoms: C_17  and  C_19
REMARK   12  A    between atoms: C_19  and  N_20
REMARK                            x       y       z     vdW  Elec       q    Type
REMARK                         _______ _______ _______ _____ _____    ______ ____
ROOT
ATOM      1  O   UNL     1       2.863   6.526  19.498  0.00  0.00    +0.000 OA
ENDROOT
BRANCH   1   2
ATOM      2  C   UNL     1       2.478   5.731  18.355  0.00  0.00    +0.000 C 
ATOM      3  O   UNL     1       3.611   5.507  17.503  0.00  0.00    +0.000 OA
ATOM      4  C   UNL     1       4.645   4.756  18.155  0.00  0.00    +0.000 C 
ATOM      5  C   UNL     1       4.155   3.365  18.597  0.00  0.00    +0.000 C 
ATOM      6  C   UNL     1       2.809   3.426  19.331  0.00  0.00    +0.000 C 
ATOM      7  C   UNL     1       1.816   4.383  18.678  0.00  0.00    +0.000 C 
BRANCH   5   8
ATOM      8  O   UNL     1       5.109   2.733  19.467  0.00  0.00    +0.000 OA
ATOM      9  H   UNL     1       5.896   2.489  18.946  0.00  0.00    +0.000 HD
ENDBRANCH   5   8
BRANCH   6  10
ATOM     10  O   UNL     1       2.222   2.107  19.332  0.00  0.00    +0.000 OA
ATOM     11  H   UNL     1       2.922   1.496  19.029  0.00  0.00    +0.000 HD
ENDBRANCH   6  10
BRANCH   7  12
ATOM     12  O   UNL     1       1.344   3.800  17.441  0.00  0.00    +0.000 OA
ATOM     13  H   UNL     1       1.083   4.556  16.877  0.00  0.00    +0.000 HD
ENDBRANCH   7  12
BRANCH   4  14
ATOM     14  C   UNL     1       5.802   4.655  17.151  0.00  0.00    +0.000 C 
BRANCH  14  15
ATOM     15  O   UNL     1       5.802   3.385  16.501  0.00  0.00    +0.000 OA
ATOM     16  H   UNL     1       5.391   3.531  15.627  0.00  0.00    +0.000 HD
ENDBRANCH  14  15
ENDBRANCH   4  14
ENDBRANCH   1   2
BRANCH   1  17
ATOM     17  C   UNL     1       2.219   7.801  19.354  0.00  0.00    +0.000 C 
BRANCH  17  18
ATOM     18  C   UNL     1       1.465   8.388  20.557  0.00  0.00    +0.000 C 
BRANCH  18  20
ATOM     19  C   UNL     1       0.472   9.986  18.820  0.00  0.00    +0.000 C 
ATOM     20  N   UNL     1       0.663   9.597  20.215  0.00  0.00    +0.000 N 
ATOM     21  C   UNL     1       0.319  10.494  21.249  0.00  0.00    +0.000 C 
ATOM     22  O   UNL     1       0.549  10.254  22.434  0.00  0.00    +0.000 OA
BRANCH  21  23
ATOM     23  C   UNL     1      -0.385  11.768  20.794  0.00  0.00    +0.000 C 
BRANCH  23  24
ATOM     24  N   UNL     1       0.298  13.011  21.131  0.00  0.00    +0.000 N 
ATOM     25  C   UNL     1       1.449  13.431  20.505  0.00  0.00    +0.000 A 
ATOM     26  C   UNL     1       1.915  14.477  21.264  0.00  0.00    +0.000 A 
ATOM     27  N   UNL     1       1.087  14.716  22.326  0.00  0.00    +0.000 NA
ATOM     28  C   UNL     1       0.113  13.827  22.216  0.00  0.00    +0.000 A 
ATOM     29  N   UNL     1      -0.951  13.713  23.181  0.00  0.00    +0.000 N 
ATOM     30  O   UNL     1      -1.810  12.838  22.980  0.00  0.00    +0.000 OA
ATOM     31  O   UNL     1      -0.925  14.466  24.158  0.00  0.00    +0.000 OA
ENDBRANCH  23  24
ENDBRANCH  21  23
ENDBRANCH  18  20
ENDBRANCH  17  18
ENDBRANCH   1  17
TORSDOF 11
ENDMDL
MODEL 9
REMARK VINA RESULT:      -6.8      2.894      4.145
REMARK  Name = 
REMARK  12 active torsions:
REMARK  status: ('A' for Active; 'I' for Inactive)
REMARK    1  A    between atoms: C_1  and  N_2
REMARK    2  A    between atoms: N_2  and  C_3
REMARK    3  A    between atoms: C_3  and  C_4
REMARK    4  A    between atoms: C_4  and  O_5
REMARK    5  A    between atoms: O_5  and  C_6
REMARK    6  A    between atoms: C_8  and  C_9
REMARK    7  A    between atoms: C_9  and  O_10
REMARK    8  A    between atoms: C_11  and  O_12
REMARK    9  A    between atoms: C_13  and  O_14
REMARK   10  A    between atoms: C_15  and  O_16
REMARK   11  A    between atoms: C_17  and  C_19
REMARK   12  A    between atoms: C_19  and  N_20
REMARK                            x       y       z     vdW  Elec       q    Type
REMARK                         _______ _______ _______ _____ _____    ______ ____
ROOT
ATOM      1  O   UNL     1       2.807   6.336  19.183  0.00  0.00    +0.000 OA
ENDROOT
BRANCH   1   2
ATOM      2  C   UNL     1       2.628   5.458  18.051  0.00  0.00    +0.000 C 
ATOM      3  O   UNL     1       3.880   5.253  17.380  0.00  0.00    +0.000 OA
ATOM      4  C   UNL     1       4.849   4.602  18.214  0.00  0.00    +0.000 C 
ATOM      5  C   UNL     1       4.372   3.212  18.672  0.00  0.00    +0.000 C 
ATOM      6  C   UNL     1       2.934   3.234  19.207  0.00  0.00    +0.000 C 
ATOM      7  C   UNL     1       1.996   4.093  18.363  0.00  0.00    +0.000 C 
BRANCH   5   8
ATOM      8  O   UNL     1       5.223   2.687  19.704  0.00  0.00    +0.000 OA
ATOM      9  H   UNL     1       5.845   2.051  19.304  0.00  0.00    +0.000 HD
ENDBRANCH   5   8
BRANCH   6  10
ATOM     10  O   UNL     1       2.420   1.885  19.210  0.00  0.00    +0.000 OA
ATOM     11  H   UNL     1       3.159   1.312  19.495  0.00  0.00    +0.000 HD
ENDBRANCH   6  10
BRANCH   7  12
ATOM     12  O   UNL     1       1.734   3.416  17.113  0.00  0.00    +0.000 OA
ATOM     13  H   UNL     1       1.173   2.648  17.342  0.00  0.00    +0.000 HD
ENDBRANCH   7  12
BRANCH   4  14
ATOM     14  C   UNL     1       6.140   4.515  17.389  0.00  0.00    +0.000 C 
BRANCH  14  15
ATOM     15  O   UNL     1       7.257   4.215  18.224  0.00  0.00    +0.000 OA
ATOM     16  H   UNL     1       7.803   5.025  18.244  0.00  0.00    +0.000 HD
ENDBRANCH  14  15
ENDBRANCH   4  14
ENDBRANCH   1   2
BRANCH   1  17
ATOM     17  C   UNL     1       2.337   7.633  18.782  0.00  0.00    +0.000 C 
BRANCH  17  18
ATOM     18  C   UNL     1       1.707   8.550  19.842  0.00  0.00    +0.000 C 
BRANCH  18  20
ATOM     19  C   UNL     1       1.631  10.526  18.215  0.00  0.00    +0.000 C 
ATOM     20  N   UNL     1       0.996   9.722  19.256  0.00  0.00    +0.000 N 
ATOM     21  C   UNL     1      -0.169  10.195  19.897  0.00  0.00    +0.000 C 
ATOM     22  O   UNL     1      -0.686   9.603  20.845  0.00  0.00    +0.000 OA
BRANCH  21  23
ATOM     23  C   UNL     1      -0.756  11.475  19.312  0.00  0.00    +0.000 C 
BRANCH  23  24
ATOM     24  N   UNL     1      -1.991  11.305  18.556  0.00  0.00    +0.000 N 
ATOM     25  C   UNL     1      -2.026  10.797  17.278  0.00  0.00    +0.000 A 
ATOM     26  C   UNL     1      -3.301  11.040  16.826  0.00  0.00    +0.000 A 
ATOM     27  N   UNL     1      -4.047  11.671  17.783  0.00  0.00    +0.000 NA
ATOM     28  C   UNL     1      -3.237  11.809  18.821  0.00  0.00    +0.000 A 
ATOM     29  N   UNL     1      -3.633  12.479  20.033  0.00  0.00    +0.000 N 
ATOM     30  O   UNL     1      -2.789  12.555  20.942  0.00  0.00    +0.000 OA
ATOM     31  O   UNL     1      -4.767  12.962  20.081  0.00  0.00    +0.000 OA
ENDBRANCH  23  24
ENDBRANCH  21  23
ENDBRANCH  18  20
ENDBRANCH  17  18
ENDBRANCH   1  17
TORSDOF 11
ENDMDL
