MODEL 1
REMARK VINA RESULT:      -7.7      0.000      0.000
REMARK  Name = 
REMARK  7 active torsions:
REMARK  status: ('A' for Active; 'I' for Inactive)
REMARK    1  A    between atoms: C_1  and  C_2
REMARK    2  A    between atoms: C_2  and  O_3
REMARK    3  A    between atoms: O_3  and  C_4
REMARK    4  A    between atoms: C_4  and  C_6
REMARK    5  A    between atoms: C_7  and  C_8
REMARK    6  A    between atoms: N_15  and  C_16
REMARK    7  A    between atoms: C_20  and  C_21
REMARK                            x       y       z     vdW  Elec       q    Type
REMARK                         _______ _______ _______ _____ _____    ______ ____
ROOT
ATOM      1  C   UNL     1       4.720   5.309  16.665  0.00  0.00    +0.000 A 
ATOM      2  C   UNL     1       5.238   4.077  16.289  0.00  0.00    +0.000 A 
ATOM      3  C   UNL     1       6.361   3.607  15.444  0.00  0.00    +0.000 C 
ATOM      4  O   UNL     1       4.494   3.071  16.827  0.00  0.00    +0.000 OA
ATOM      5  C   UNL     1       3.485   3.633  17.540  0.00  0.00    +0.000 A 
ATOM      6  N   UNL     1       2.572   2.898  18.186  0.00  0.00    +0.000 NA
ATOM      7  C   UNL     1       1.680   3.671  18.807  0.00  0.00    +0.000 A 
ATOM      8  N   UNL     1       1.634   5.012  18.828  0.00  0.00    +0.000 NA
ATOM      9  C   UNL     1       2.566   5.733  18.149  0.00  0.00    +0.000 A 
ATOM     10  N   UNL     1       2.462   7.128  18.103  0.00  0.00    +0.000 N 
ATOM     11  C   UNL     1       3.565   5.014  17.470  0.00  0.00    +0.000 A 
ATOM     12  H   UNL     1       3.157   7.593  17.518  0.00  0.00    +0.000 HD
ENDROOT
BRANCH  10  13
ATOM     13  C   UNL     1       1.905   7.990  19.062  0.00  0.00    +0.000 A 
ATOM     14  C   UNL     1       1.870   7.591  20.401  0.00  0.00    +0.000 A 
ATOM     15  C   UNL     1       1.352   8.435  21.383  0.00  0.00    +0.000 A 
ATOM     16  C   UNL     1       0.839   9.686  21.031  0.00  0.00    +0.000 A 
ATOM     17  C   UNL     1       0.845  10.097  19.695  0.00  0.00    +0.000 A 
ATOM     18  C   UNL     1       0.273  11.417  19.278  0.00  0.00    +0.000 C 
ATOM     19  C   UNL     1       1.387   9.246  18.722  0.00  0.00    +0.000 A 
ENDBRANCH  10  13
BRANCH   1  20
ATOM     20  C   UNL     1       5.186   6.629  16.287  0.00  0.00    +0.000 C 
ATOM     21  O   UNL     1       5.120   7.049  15.138  0.00  0.00    +0.000 OA
BRANCH  20  22
ATOM     22  O   UNL     1       5.789   7.300  17.304  0.00  0.00    +0.000 OA
BRANCH  22  24
ATOM     23  C   UNL     1       7.867   8.398  17.713  0.00  0.00    +0.000 C 
ATOM     24  C   UNL     1       7.194   7.065  17.435  0.00  0.00    +0.000 C 
ENDBRANCH  22  24
ENDBRANCH  20  22
ENDBRANCH   1  20
TORSDOF 4
ENDMDL
MODEL 2
REMARK VINA RESULT:      -7.5      1.480      1.942
REMARK  Name = 
REMARK  7 active torsions:
REMARK  status: ('A' for Active; 'I' for Inactive)
REMARK    1  A    between atoms: C_1  and  C_2
REMARK    2  A    between atoms: C_2  and  O_3
REMARK    3  A    between atoms: O_3  and  C_4
REMARK    4  A    between atoms: C_4  and  C_6
REMARK    5  A    between atoms: C_7  and  C_8
REMARK    6  A    between atoms: N_15  and  C_16
REMARK    7  A    between atoms: C_20  and  C_21
REMARK                            x       y       z     vdW  Elec       q    Type
REMARK                         _______ _______ _______ _____ _____    ______ ____
ROOT
ATOM      1  C   UNL     1       5.598   5.840  17.856  0.00  0.00    +0.000 A 
ATOM      2  C   UNL     1       6.444   4.753  18.027  0.00  0.00    +0.000 A 
ATOM      3  C   UNL     1       7.770   4.344  17.506  0.00  0.00    +0.000 C 
ATOM      4  O   UNL     1       5.877   3.843  18.867  0.00  0.00    +0.000 OA
ATOM      5  C   UNL     1       4.661   4.318  19.238  0.00  0.00    +0.000 A 
ATOM      6  N   UNL     1       3.851   3.641  20.060  0.00  0.00    +0.000 NA
ATOM      7  C   UNL     1       2.713   4.304  20.271  0.00  0.00    +0.000 A 
ATOM      8  N   UNL     1       2.352   5.493  19.763  0.00  0.00    +0.000 NA
ATOM      9  C   UNL     1       3.189   6.150  18.917  0.00  0.00    +0.000 A 
ATOM     10  N   UNL     1       2.772   7.347  18.322  0.00  0.00    +0.000 N 
ATOM     11  C   UNL     1       4.427   5.545  18.638  0.00  0.00    +0.000 A 
ATOM     12  H   UNL     1       3.426   7.744  17.647  0.00  0.00    +0.000 HD
ENDROOT
BRANCH  10  13
ATOM     13  C   UNL     1       1.878   8.304  18.829  0.00  0.00    +0.000 A 
ATOM     14  C   UNL     1       1.263   9.199  17.948  0.00  0.00    +0.000 A 
ATOM     15  C   UNL     1       0.347  10.142  18.414  0.00  0.00    +0.000 A 
ATOM     16  C   UNL     1       0.052  10.216  19.778  0.00  0.00    +0.000 A 
ATOM     17  C   UNL     1       0.671   9.346  20.679  0.00  0.00    +0.000 A 
ATOM     18  C   UNL     1       0.402   9.420  22.151  0.00  0.00    +0.000 C 
ATOM     19  C   UNL     1       1.574   8.390  20.193  0.00  0.00    +0.000 A 
ENDBRANCH  10  13
BRANCH   1  20
ATOM     20  C   UNL     1       5.799   7.010  17.023  0.00  0.00    +0.000 C 
ATOM     21  O   UNL     1       5.513   7.028  15.832  0.00  0.00    +0.000 OA
BRANCH  20  22
ATOM     22  O   UNL     1       6.424   8.031  17.667  0.00  0.00    +0.000 OA
BRANCH  22  24
ATOM     23  C   UNL     1       8.375   9.302  18.183  0.00  0.00    +0.000 C 
ATOM     24  C   UNL     1       7.853   7.991  17.620  0.00  0.00    +0.000 C 
ENDBRANCH  22  24
ENDBRANCH  20  22
ENDBRANCH   1  20
TORSDOF 4
ENDMDL
MODEL 3
REMARK VINA RESULT:      -7.4      3.734      7.167
REMARK  Name = 
REMARK  7 active torsions:
REMARK  status: ('A' for Active; 'I' for Inactive)
REMARK    1  A    between atoms: C_1  and  C_2
REMARK    2  A    between atoms: C_2  and  O_3
REMARK    3  A    between atoms: O_3  and  C_4
REMARK    4  A    between atoms: C_4  and  C_6
REMARK    5  A    between atoms: C_7  and  C_8
REMARK    6  A    between atoms: N_15  and  C_16
REMARK    7  A    between atoms: C_20  and  C_21
REMARK                            x       y       z     vdW  Elec       q    Type
REMARK                         _______ _______ _______ _____ _____    ______ ____
ROOT
ATOM      1  C   UNL     1       3.699   4.611  18.441  0.00  0.00    +0.000 A 
ATOM      2  C   UNL     1       3.673   4.621  19.828  0.00  0.00    +0.000 A 
ATOM      3  C   UNL     1       2.633   4.489  20.875  0.00  0.00    +0.000 C 
ATOM      4  O   UNL     1       4.926   4.831  20.320  0.00  0.00    +0.000 OA
ATOM      5  C   UNL     1       5.770   4.972  19.266  0.00  0.00    +0.000 A 
ATOM      6  N   UNL     1       7.079   5.200  19.426  0.00  0.00    +0.000 NA
ATOM      7  C   UNL     1       7.698   5.309  18.249  0.00  0.00    +0.000 A 
ATOM      8  N   UNL     1       7.152   5.217  17.026  0.00  0.00    +0.000 NA
ATOM      9  C   UNL     1       5.816   5.002  16.895  0.00  0.00    +0.000 A 
ATOM     10  N   UNL     1       5.239   4.994  15.620  0.00  0.00    +0.000 N 
ATOM     11  C   UNL     1       5.069   4.855  18.077  0.00  0.00    +0.000 A 
ATOM     12  H   UNL     1       4.224   4.895  15.607  0.00  0.00    +0.000 HD
ENDROOT
BRANCH  10  13
ATOM     13  C   UNL     1       5.830   4.622  14.401  0.00  0.00    +0.000 A 
ATOM     14  C   UNL     1       7.047   5.200  14.027  0.00  0.00    +0.000 A 
ATOM     15  C   UNL     1       7.676   4.830  12.838  0.00  0.00    +0.000 A 
ATOM     16  C   UNL     1       7.079   3.891  11.993  0.00  0.00    +0.000 A 
ATOM     17  C   UNL     1       5.852   3.317  12.337  0.00  0.00    +0.000 A 
ATOM     18  C   UNL     1       5.168   2.332  11.438  0.00  0.00    +0.000 C 
ATOM     19  C   UNL     1       5.242   3.683  13.545  0.00  0.00    +0.000 A 
ENDBRANCH  10  13
BRANCH   1  20
ATOM     20  C   UNL     1       2.586   4.453  17.525  0.00  0.00    +0.000 C 
ATOM     21  O   UNL     1       1.694   5.286  17.420  0.00  0.00    +0.000 OA
BRANCH  20  22
ATOM     22  O   UNL     1       2.581   3.255  16.883  0.00  0.00    +0.000 OA
BRANCH  22  24
ATOM     23  C   UNL     1       1.226   2.096  18.468  0.00  0.00    +0.000 C 
ATOM     24  C   UNL     1       2.559   2.109  17.739  0.00  0.00    +0.000 C 
ENDBRANCH  22  24
ENDBRANCH  20  22
ENDBRANCH   1  20
TORSDOF 4
ENDMDL
MODEL 4
REMARK VINA RESULT:      -7.3      0.461      1.382
REMARK  Name = 
REMARK  7 active torsions:
REMARK  status: ('A' for Active; 'I' for Inactive)
REMARK    1  A    between atoms: C_1  and  C_2
REMARK    2  A    between atoms: C_2  and  O_3
REMARK    3  A    between atoms: O_3  and  C_4
REMARK    4  A    between atoms: C_4  and  C_6
REMARK    5  A    between atoms: C_7  and  C_8
REMARK    6  A    between atoms: N_15  and  C_16
REMARK    7  A    between atoms: C_20  and  C_21
REMARK                            x       y       z     vdW  Elec       q    Type
REMARK                         _______ _______ _______ _____ _____    ______ ____
ROOT
ATOM      1  C   UNL     1       4.717   5.346  16.744  0.00  0.00    +0.000 A 
ATOM      2  C   UNL     1       5.233   4.076  16.526  0.00  0.00    +0.000 A 
ATOM      3  C   UNL     1       6.384   3.507  15.786  0.00  0.00    +0.000 C 
ATOM      4  O   UNL     1       4.453   3.141  17.136  0.00  0.00    +0.000 OA
ATOM      5  C   UNL     1       3.423   3.786  17.741  0.00  0.00    +0.000 A 
ATOM      6  N   UNL     1       2.473   3.134  18.421  0.00  0.00    +0.000 NA
ATOM      7  C   UNL     1       1.567   3.978  18.916  0.00  0.00    +0.000 A 
ATOM      8  N   UNL     1       1.539   5.314  18.791  0.00  0.00    +0.000 NA
ATOM      9  C   UNL     1       2.508   5.948  18.079  0.00  0.00    +0.000 A 
ATOM     10  N   UNL     1       2.426   7.331  17.879  0.00  0.00    +0.000 N 
ATOM     11  C   UNL     1       3.525   5.151  17.526  0.00  0.00    +0.000 A 
ATOM     12  H   UNL     1       3.152   7.723  17.279  0.00  0.00    +0.000 HD
ENDROOT
BRANCH  10  13
ATOM     13  C   UNL     1       1.841   8.297  18.714  0.00  0.00    +0.000 A 
ATOM     14  C   UNL     1       1.276   9.442  18.143  0.00  0.00    +0.000 A 
ATOM     15  C   UNL     1       0.659  10.406  18.941  0.00  0.00    +0.000 A 
ATOM     16  C   UNL     1       0.623  10.247  20.329  0.00  0.00    +0.000 A 
ATOM     17  C   UNL     1       1.201   9.122  20.922  0.00  0.00    +0.000 A 
ATOM     18  C   UNL     1       1.209   8.937  22.409  0.00  0.00    +0.000 C 
ATOM     19  C   UNL     1       1.799   8.151  20.106  0.00  0.00    +0.000 A 
ENDBRANCH  10  13
BRANCH   1  20
ATOM     20  C   UNL     1       5.217   6.614  16.248  0.00  0.00    +0.000 C 
ATOM     21  O   UNL     1       5.192   6.914  15.060  0.00  0.00    +0.000 OA
BRANCH  20  22
ATOM     22  O   UNL     1       5.801   7.378  17.208  0.00  0.00    +0.000 OA
BRANCH  22  24
ATOM     23  C   UNL     1       7.878   8.441  17.706  0.00  0.00    +0.000 C 
ATOM     24  C   UNL     1       7.190   7.115  17.428  0.00  0.00    +0.000 C 
ENDBRANCH  22  24
ENDBRANCH  20  22
ENDBRANCH   1  20
TORSDOF 4
ENDMDL
MODEL 5
REMARK VINA RESULT:      -7.0      4.167      8.071
REMARK  Name = 
REMARK  7 active torsions:
REMARK  status: ('A' for Active; 'I' for Inactive)
REMARK    1  A    between atoms: C_1  and  C_2
REMARK    2  A    between atoms: C_2  and  O_3
REMARK    3  A    between atoms: O_3  and  C_4
REMARK    4  A    between atoms: C_4  and  C_6
REMARK    5  A    between atoms: C_7  and  C_8
REMARK    6  A    between atoms: N_15  and  C_16
REMARK    7  A    between atoms: C_20  and  C_21
REMARK                            x       y       z     vdW  Elec       q    Type
REMARK                         _______ _______ _______ _____ _____    ______ ____
ROOT
ATOM      1  C   UNL     1      -1.147  11.565  20.033  0.00  0.00    +0.000 A 
ATOM      2  C   UNL     1      -2.025  12.318  20.800  0.00  0.00    +0.000 A 
ATOM      3  C   UNL     1      -2.991  13.412  20.546  0.00  0.00    +0.000 C 
ATOM      4  O   UNL     1      -1.936  11.954  22.110  0.00  0.00    +0.000 OA
ATOM      5  C   UNL     1      -0.998  10.978  22.210  0.00  0.00    +0.000 A 
ATOM      6  N   UNL     1      -0.673  10.417  23.380  0.00  0.00    +0.000 NA
ATOM      7  C   UNL     1       0.275   9.492  23.226  0.00  0.00    +0.000 A 
ATOM      8  N   UNL     1       0.877   9.119  22.086  0.00  0.00    +0.000 NA
ATOM      9  C   UNL     1       0.539   9.719  20.914  0.00  0.00    +0.000 A 
ATOM     10  N   UNL     1       1.231   9.388  19.743  0.00  0.00    +0.000 N 
ATOM     11  C   UNL     1      -0.466  10.701  20.960  0.00  0.00    +0.000 A 
ATOM     12  H   UNL     1       0.967   9.929  18.919  0.00  0.00    +0.000 HD
ENDROOT
BRANCH  10  13
ATOM     13  C   UNL     1       1.842   8.168  19.410  0.00  0.00    +0.000 A 
ATOM     14  C   UNL     1       2.533   8.058  18.199  0.00  0.00    +0.000 A 
ATOM     15  C   UNL     1       3.178   6.871  17.852  0.00  0.00    +0.000 A 
ATOM     16  C   UNL     1       3.116   5.766  18.705  0.00  0.00    +0.000 A 
ATOM     17  C   UNL     1       2.412   5.847  19.909  0.00  0.00    +0.000 A 
ATOM     18  C   UNL     1       2.299   4.671  20.831  0.00  0.00    +0.000 C 
ATOM     19  C   UNL     1       1.788   7.053  20.255  0.00  0.00    +0.000 A 
ENDBRANCH  10  13
BRANCH   1  20
ATOM     20  C   UNL     1      -0.901  11.653  18.607  0.00  0.00    +0.000 C 
ATOM     21  O   UNL     1      -0.731  12.722  18.032  0.00  0.00    +0.000 OA
BRANCH  20  22
ATOM     22  O   UNL     1      -0.980  10.456  17.970  0.00  0.00    +0.000 OA
BRANCH  22  24
ATOM     23  C   UNL     1      -2.653  10.244  16.282  0.00  0.00    +0.000 C 
ATOM     24  C   UNL     1      -2.310   9.981  17.739  0.00  0.00    +0.000 C 
ENDBRANCH  22  24
ENDBRANCH  20  22
ENDBRANCH   1  20
TORSDOF 4
ENDMDL
MODEL 6
REMARK VINA RESULT:      -7.0      1.599      2.417
REMARK  Name = 
REMARK  7 active torsions:
REMARK  status: ('A' for Active; 'I' for Inactive)
REMARK    1  A    between atoms: C_1  and  C_2
REMARK    2  A    between atoms: C_2  and  O_3
REMARK    3  A    between atoms: O_3  and  C_4
REMARK    4  A    between atoms: C_4  and  C_6
REMARK    5  A    between atoms: C_7  and  C_8
REMARK    6  A    between atoms: N_15  and  C_16
REMARK    7  A    between atoms: C_20  and  C_21
REMARK                            x       y       z     vdW  Elec       q    Type
REMARK                         _______ _______ _______ _____ _____    ______ ____
ROOT
ATOM      1  C   UNL     1       5.689   5.793  18.030  0.00  0.00    +0.000 A 
ATOM      2  C   UNL     1       6.528   4.708  18.240  0.00  0.00    +0.000 A 
ATOM      3  C   UNL     1       7.882   4.305  17.790  0.00  0.00    +0.000 C 
ATOM      4  O   UNL     1       5.920   3.792  19.045  0.00  0.00    +0.000 OA
ATOM      5  C   UNL     1       4.685   4.262  19.353  0.00  0.00    +0.000 A 
ATOM      6  N   UNL     1       3.834   3.579  20.127  0.00  0.00    +0.000 NA
ATOM      7  C   UNL     1       2.684   4.237  20.280  0.00  0.00    +0.000 A 
ATOM      8  N   UNL     1       2.347   5.427  19.758  0.00  0.00    +0.000 NA
ATOM      9  C   UNL     1       3.225   6.090  18.961  0.00  0.00    +0.000 A 
ATOM     10  N   UNL     1       2.836   7.288  18.349  0.00  0.00    +0.000 N 
ATOM     11  C   UNL     1       4.478   5.491  18.746  0.00  0.00    +0.000 A 
ATOM     12  H   UNL     1       3.524   7.690  17.712  0.00  0.00    +0.000 HD
ENDROOT
BRANCH  10  13
ATOM     13  C   UNL     1       1.913   8.240  18.812  0.00  0.00    +0.000 A 
ATOM     14  C   UNL     1       1.313   9.111  17.897  0.00  0.00    +0.000 A 
ATOM     15  C   UNL     1       0.369  10.047  18.317  0.00  0.00    +0.000 A 
ATOM     16  C   UNL     1       0.031  10.141  19.670  0.00  0.00    +0.000 A 
ATOM     17  C   UNL     1       0.634   9.295  20.605  0.00  0.00    +0.000 A 
ATOM     18  C   UNL     1       0.318   9.391  22.066  0.00  0.00    +0.000 C 
ATOM     19  C   UNL     1       1.565   8.345  20.164  0.00  0.00    +0.000 A 
ENDBRANCH  10  13
BRANCH   1  20
ATOM     20  C   UNL     1       5.930   6.967  17.213  0.00  0.00    +0.000 C 
ATOM     21  O   UNL     1       5.774   8.107  17.634  0.00  0.00    +0.000 OA
BRANCH  20  22
ATOM     22  O   UNL     1       6.240   6.673  15.923  0.00  0.00    +0.000 OA
BRANCH  22  24
ATOM     23  C   UNL     1       6.039   4.748  14.528  0.00  0.00    +0.000 C 
ATOM     24  C   UNL     1       5.283   5.856  15.242  0.00  0.00    +0.000 C 
ENDBRANCH  22  24
ENDBRANCH  20  22
ENDBRANCH   1  20
TORSDOF 4
ENDMDL
MODEL 7
REMARK VINA RESULT:      -6.9      2.064      4.125
REMARK  Name = 
REMARK  7 active torsions:
REMARK  status: ('A' for Active; 'I' for Inactive)
REMARK    1  A    between atoms: C_1  and  C_2
REMARK    2  A    between atoms: C_2  and  O_3
REMARK    3  A    between atoms: O_3  and  C_4
REMARK    4  A    between atoms: C_4  and  C_6
REMARK    5  A    between atoms: C_7  and  C_8
REMARK    6  A    between atoms: N_15  and  C_16
REMARK    7  A    between atoms: C_20  and  C_21
REMARK                            x       y       z     vdW  Elec       q    Type
REMARK                         _______ _______ _______ _____ _____    ______ ____
ROOT
ATOM      1  C   UNL     1       2.756   3.935  18.525  0.00  0.00    +0.000 A 
ATOM      2  C   UNL     1       3.507   2.917  17.954  0.00  0.00    +0.000 A 
ATOM      3  C   UNL     1       3.447   1.436  17.927  0.00  0.00    +0.000 C 
ATOM      4  O   UNL     1       4.569   3.438  17.278  0.00  0.00    +0.000 OA
ATOM      5  C   UNL     1       4.528   4.788  17.412  0.00  0.00    +0.000 A 
ATOM      6  N   UNL     1       5.449   5.588  16.863  0.00  0.00    +0.000 NA
ATOM      7  C   UNL     1       5.202   6.869  17.138  0.00  0.00    +0.000 A 
ATOM      8  N   UNL     1       4.189   7.370  17.862  0.00  0.00    +0.000 NA
ATOM      9  C   UNL     1       3.277   6.532  18.422  0.00  0.00    +0.000 A 
ATOM     10  N   UNL     1       2.274   7.053  19.248  0.00  0.00    +0.000 N 
ATOM     11  C   UNL     1       3.435   5.156  18.181  0.00  0.00    +0.000 A 
ATOM     12  H   UNL     1       1.671   6.356  19.685  0.00  0.00    +0.000 HD
ENDROOT
BRANCH  10  13
ATOM     13  C   UNL     1       1.674   8.322  19.192  0.00  0.00    +0.000 A 
ATOM     14  C   UNL     1       1.584   8.981  17.962  0.00  0.00    +0.000 A 
ATOM     15  C   UNL     1       0.967  10.229  17.866  0.00  0.00    +0.000 A 
ATOM     16  C   UNL     1       0.452  10.845  19.010  0.00  0.00    +0.000 A 
ATOM     17  C   UNL     1       0.552  10.213  20.252  0.00  0.00    +0.000 A 
ATOM     18  C   UNL     1       0.040  10.860  21.503  0.00  0.00    +0.000 C 
ATOM     19  C   UNL     1       1.156   8.951  20.330  0.00  0.00    +0.000 A 
ENDBRANCH  10  13
BRANCH   1  20
ATOM     20  C   UNL     1       1.570   3.819  19.351  0.00  0.00    +0.000 C 
ATOM     21  O   UNL     1       0.553   3.253  18.969  0.00  0.00    +0.000 OA
BRANCH  20  22
ATOM     22  O   UNL     1       1.668   4.483  20.533  0.00  0.00    +0.000 OA
BRANCH  22  24
ATOM     23  C   UNL     1       1.691   2.515  21.882  0.00  0.00    +0.000 C 
ATOM     24  C   UNL     1       2.419   3.807  21.546  0.00  0.00    +0.000 C 
ENDBRANCH  22  24
ENDBRANCH  20  22
ENDBRANCH   1  20
TORSDOF 4
ENDMDL
MODEL 8
REMARK VINA RESULT:      -6.9      3.981      7.302
REMARK  Name = 
REMARK  7 active torsions:
REMARK  status: ('A' for Active; 'I' for Inactive)
REMARK    1  A    between atoms: C_1  and  C_2
REMARK    2  A    between atoms: C_2  and  O_3
REMARK    3  A    between atoms: O_3  and  C_4
REMARK    4  A    between atoms: C_4  and  C_6
REMARK    5  A    between atoms: C_7  and  C_8
REMARK    6  A    between atoms: N_15  and  C_16
REMARK    7  A    between atoms: C_20  and  C_21
REMARK                            x       y       z     vdW  Elec       q    Type
REMARK                         _______ _______ _______ _____ _____    ______ ____
ROOT
ATOM      1  C   UNL     1       4.196   3.326  18.529  0.00  0.00    +0.000 A 
ATOM      2  C   UNL     1       4.227   3.364  19.916  0.00  0.00    +0.000 A 
ATOM      3  C   UNL     1       3.421   2.783  21.015  0.00  0.00    +0.000 C 
ATOM      4  O   UNL     1       5.247   4.160  20.341  0.00  0.00    +0.000 OA
ATOM      5  C   UNL     1       5.876   4.655  19.245  0.00  0.00    +0.000 A 
ATOM      6  N   UNL     1       6.923   5.483  19.335  0.00  0.00    +0.000 NA
ATOM      7  C   UNL     1       7.364   5.839  18.128  0.00  0.00    +0.000 A 
ATOM      8  N   UNL     1       6.877   5.462  16.935  0.00  0.00    +0.000 NA
ATOM      9  C   UNL     1       5.802   4.632  16.874  0.00  0.00    +0.000 A 
ATOM     10  N   UNL     1       5.245   4.312  15.630  0.00  0.00    +0.000 N 
ATOM     11  C   UNL     1       5.266   4.183  18.093  0.00  0.00    +0.000 A 
ATOM     12  H   UNL     1       4.400   3.741  15.670  0.00  0.00    +0.000 HD
ENDROOT
BRANCH  10  13
ATOM     13  C   UNL     1       5.889   4.230  14.385  0.00  0.00    +0.000 A 
ATOM     14  C   UNL     1       6.934   5.114  14.097  0.00  0.00    +0.000 A 
ATOM     15  C   UNL     1       7.616   5.039  12.882  0.00  0.00    +0.000 A 
ATOM     16  C   UNL     1       7.241   4.091  11.926  0.00  0.00    +0.000 A 
ATOM     17  C   UNL     1       6.185   3.213  12.184  0.00  0.00    +0.000 A 
ATOM     18  C   UNL     1       5.737   2.207  11.169  0.00  0.00    +0.000 C 
ATOM     19  C   UNL     1       5.524   3.286  13.418  0.00  0.00    +0.000 A 
ENDBRANCH  10  13
BRANCH   1  20
ATOM     20  C   UNL     1       3.255   2.629  17.673  0.00  0.00    +0.000 C 
ATOM     21  O   UNL     1       3.297   1.417  17.495  0.00  0.00    +0.000 OA
BRANCH  20  22
ATOM     22  O   UNL     1       2.403   3.460  17.018  0.00  0.00    +0.000 OA
BRANCH  22  24
ATOM     23  C   UNL     1       0.660   3.145  18.615  0.00  0.00    +0.000 C 
ATOM     24  C   UNL     1       1.486   4.170  17.856  0.00  0.00    +0.000 C 
ENDBRANCH  22  24
ENDBRANCH  20  22
ENDBRANCH   1  20
TORSDOF 4
ENDMDL
MODEL 9
REMARK VINA RESULT:      -6.8      3.026      6.858
REMARK  Name = 
REMARK  7 active torsions:
REMARK  status: ('A' for Active; 'I' for Inactive)
REMARK    1  A    between atoms: C_1  and  C_2
REMARK    2  A    between atoms: C_2  and  O_3
REMARK    3  A    between atoms: O_3  and  C_4
REMARK    4  A    between atoms: C_4  and  C_6
REMARK    5  A    between atoms: C_7  and  C_8
REMARK    6  A    between atoms: N_15  and  C_16
REMARK    7  A    between atoms: C_20  and  C_21
REMARK                            x       y       z     vdW  Elec       q    Type
REMARK                         _______ _______ _______ _____ _____    ______ ____
ROOT
ATOM      1  C   UNL     1       3.302   3.849  19.699  0.00  0.00    +0.000 A 
ATOM      2  C   UNL     1       2.619   4.296  20.821  0.00  0.00    +0.000 A 
ATOM      3  C   UNL     1       2.130   3.690  22.082  0.00  0.00    +0.000 C 
ATOM      4  O   UNL     1       2.316   5.618  20.691  0.00  0.00    +0.000 OA
ATOM      5  C   UNL     1       2.783   6.037  19.488  0.00  0.00    +0.000 A 
ATOM      6  N   UNL     1       2.630   7.296  19.062  0.00  0.00    +0.000 NA
ATOM      7  C   UNL     1       3.163   7.465  17.851  0.00  0.00    +0.000 A 
ATOM      8  N   UNL     1       3.784   6.546  17.095  0.00  0.00    +0.000 NA
ATOM      9  C   UNL     1       3.909   5.270  17.546  0.00  0.00    +0.000 A 
ATOM     10  N   UNL     1       4.480   4.296  16.718  0.00  0.00    +0.000 N 
ATOM     11  C   UNL     1       3.394   4.986  18.823  0.00  0.00    +0.000 A 
ATOM     12  H   UNL     1       4.476   3.350  17.099  0.00  0.00    +0.000 HD
ENDROOT
BRANCH  10  13
ATOM     13  C   UNL     1       5.449   4.467  15.716  0.00  0.00    +0.000 A 
ATOM     14  C   UNL     1       6.570   5.260  15.977  0.00  0.00    +0.000 A 
ATOM     15  C   UNL     1       7.567   5.425  15.016  0.00  0.00    +0.000 A 
ATOM     16  C   UNL     1       7.440   4.815  13.765  0.00  0.00    +0.000 A 
ATOM     17  C   UNL     1       6.317   4.035  13.474  0.00  0.00    +0.000 A 
ATOM     18  C   UNL     1       6.134   3.394  12.133  0.00  0.00    +0.000 C 
ATOM     19  C   UNL     1       5.334   3.861  14.458  0.00  0.00    +0.000 A 
ENDBRANCH  10  13
BRANCH   1  20
ATOM     20  C   UNL     1       3.779   2.509  19.416  0.00  0.00    +0.000 C 
ATOM     21  O   UNL     1       4.793   2.047  19.925  0.00  0.00    +0.000 OA
BRANCH  20  22
ATOM     22  O   UNL     1       3.053   1.868  18.462  0.00  0.00    +0.000 OA
BRANCH  22  24
ATOM     23  C   UNL     1       0.720   2.364  18.524  0.00  0.00    +0.000 C 
ATOM     24  C   UNL     1       1.792   1.356  18.904  0.00  0.00    +0.000 C 
ENDBRANCH  22  24
ENDBRANCH  20  22
ENDBRANCH   1  20
TORSDOF 4
ENDMDL
