MODEL 1
REMARK VINA RESULT:      -8.6      0.000      0.000
REMARK  Name = 
REMARK  5 active torsions:
REMARK  status: ('A' for Active; 'I' for Inactive)
REMARK    1  A    between atoms: C_1  and  C_2
REMARK    2  A    between atoms: N_12  and  C_13
REMARK    3  A    between atoms: C_13  and  N_15
REMARK    4  A    between atoms: C_24  and  O_25
REMARK    5  A    between atoms: O_25  and  C_26
REMARK                            x       y       z     vdW  Elec       q    Type
REMARK                         _______ _______ _______ _____ _____    ______ ____
ROOT
ATOM      1  N   UNL     1       0.900   9.826  19.213  0.00  0.00    +0.000 N 
ATOM      2  C   UNL     1       1.772   8.978  18.505  0.00  0.00    +0.000 C 
ATOM      3  O   UNL     1       2.143   9.191  17.358  0.00  0.00    +0.000 OA
ATOM      4  N   UNL     1       2.050   7.810  19.229  0.00  0.00    +0.000 N 
ATOM      5  C   UNL     1       2.954   6.966  18.602  0.00  0.00    +0.000 A 
ATOM      6  N   UNL     1       4.250   7.129  18.593  0.00  0.00    +0.000 NA
ATOM      7  C   UNL     1       4.807   6.190  17.735  0.00  0.00    +0.000 A 
ATOM      8  C   UNL     1       6.127   6.211  17.250  0.00  0.00    +0.000 A 
ATOM      9  C   UNL     1       6.547   5.241  16.335  0.00  0.00    +0.000 A 
ATOM     10  C   UNL     1       5.710   4.187  15.968  0.00  0.00    +0.000 A 
ATOM     11  C   UNL     1       4.400   4.116  16.468  0.00  0.00    +0.000 A 
ATOM     12  C   UNL     1       3.951   5.169  17.303  0.00  0.00    +0.000 A 
ATOM     13  S   UNL     1       2.360   5.525  17.905  0.00  0.00    +0.000 S 
ATOM     14  H   UNL     1       0.321   9.318  19.875  0.00  0.00    +0.000 HD
ATOM     15  H   UNL     1       2.434   8.107  20.117  0.00  0.00    +0.000 HD
ENDROOT
BRANCH   1  16
ATOM     16  C   UNL     1       0.583  11.204  19.022  0.00  0.00    +0.000 C 
ATOM     17  S   UNL     1       1.837  12.280  18.675  0.00  0.00    +0.000 S 
BRANCH  16  29
ATOM     18  C   UNL     1      -0.591  12.881  21.386  0.00  0.00    +0.000 C 
ATOM     19  C   UNL     1      -1.410  12.279  20.258  0.00  0.00    +0.000 A 
ATOM     20  N   UNL     1      -2.672  12.539  20.401  0.00  0.00    +0.000 NA
ATOM     21  C   UNL     1      -3.597  12.089  19.480  0.00  0.00    +0.000 A 
ATOM     22  C   UNL     1      -4.953  12.364  19.671  0.00  0.00    +0.000 A 
ATOM     23  C   UNL     1      -5.908  11.894  18.768  0.00  0.00    +0.000 A 
ATOM     24  C   UNL     1      -5.502  11.148  17.664  0.00  0.00    +0.000 A 
ATOM     25  C   UNL     1      -4.146  10.882  17.465  0.00  0.00    +0.000 A 
ATOM     26  C   UNL     1      -3.194  11.358  18.382  0.00  0.00    +0.000 A 
ATOM     27  C   UNL     1      -1.757  11.087  18.232  0.00  0.00    +0.000 A 
ATOM     28  O   UNL     1      -1.446  10.421  17.237  0.00  0.00    +0.000 OA
ATOM     29  N   UNL     1      -0.837  11.540  19.202  0.00  0.00    +0.000 N 
ENDBRANCH  16  29
ENDBRANCH   1  16
BRANCH  10  30
ATOM     30  O   UNL     1       6.200   3.397  14.969  0.00  0.00    +0.000 OA
BRANCH  30  31
ATOM     31  C   UNL     1       6.092   3.826  13.626  0.00  0.00    +0.000 C 
ATOM     32  F   UNL     1       4.845   4.207  13.271  0.00  0.00    +0.000 F 
ATOM     33  F   UNL     1       6.933   4.869  13.430  0.00  0.00    +0.000 F 
ATOM     34  F   UNL     1       6.480   2.823  12.809  0.00  0.00    +0.000 F 
ENDBRANCH  30  31
ENDBRANCH  10  30
TORSDOF 4
ENDMDL
MODEL 2
REMARK VINA RESULT:      -8.6      1.486      2.464
REMARK  Name = 
REMARK  5 active torsions:
REMARK  status: ('A' for Active; 'I' for Inactive)
REMARK    1  A    between atoms: C_1  and  C_2
REMARK    2  A    between atoms: N_12  and  C_13
REMARK    3  A    between atoms: C_13  and  N_15
REMARK    4  A    between atoms: C_24  and  O_25
REMARK    5  A    between atoms: O_25  and  C_26
REMARK                            x       y       z     vdW  Elec       q    Type
REMARK                         _______ _______ _______ _____ _____    ______ ____
ROOT
ATOM      1  N   UNL     1       1.024   9.715  19.369  0.00  0.00    +0.000 N 
ATOM      2  C   UNL     1       1.881   8.879  18.629  0.00  0.00    +0.000 C 
ATOM      3  O   UNL     1       2.239   9.118  17.483  0.00  0.00    +0.000 OA
ATOM      4  N   UNL     1       2.157   7.690  19.319  0.00  0.00    +0.000 N 
ATOM      5  C   UNL     1       3.047   6.855  18.659  0.00  0.00    +0.000 A 
ATOM      6  N   UNL     1       4.344   7.007  18.639  0.00  0.00    +0.000 NA
ATOM      7  C   UNL     1       4.882   6.087  17.751  0.00  0.00    +0.000 A 
ATOM      8  C   UNL     1       6.197   6.110  17.251  0.00  0.00    +0.000 A 
ATOM      9  C   UNL     1       6.598   5.160  16.306  0.00  0.00    +0.000 A 
ATOM     10  C   UNL     1       5.748   4.123  15.922  0.00  0.00    +0.000 A 
ATOM     11  C   UNL     1       4.444   4.049  16.435  0.00  0.00    +0.000 A 
ATOM     12  C   UNL     1       4.013   5.084  17.303  0.00  0.00    +0.000 A 
ATOM     13  S   UNL     1       2.432   5.438  17.933  0.00  0.00    +0.000 S 
ATOM     14  H   UNL     1       0.448   9.195  20.025  0.00  0.00    +0.000 HD
ATOM     15  H   UNL     1       2.554   7.961  20.210  0.00  0.00    +0.000 HD
ENDROOT
BRANCH   1  16
ATOM     16  C   UNL     1       0.716  11.100  19.217  0.00  0.00    +0.000 C 
ATOM     17  S   UNL     1       1.856  12.104  18.480  0.00  0.00    +0.000 S 
BRANCH  16  29
ATOM     18  C   UNL     1      -1.866  11.705  17.560  0.00  0.00    +0.000 C 
ATOM     19  C   UNL     1      -1.761  11.805  19.072  0.00  0.00    +0.000 A 
ATOM     20  N   UNL     1      -2.883  12.187  19.598  0.00  0.00    +0.000 NA
ATOM     21  C   UNL     1      -3.009  12.336  20.965  0.00  0.00    +0.000 A 
ATOM     22  C   UNL     1      -4.223  12.771  21.503  0.00  0.00    +0.000 A 
ATOM     23  C   UNL     1      -4.364  12.958  22.879  0.00  0.00    +0.000 A 
ATOM     24  C   UNL     1      -3.285  12.703  23.722  0.00  0.00    +0.000 A 
ATOM     25  C   UNL     1      -2.074  12.259  23.187  0.00  0.00    +0.000 A 
ATOM     26  C   UNL     1      -1.943  12.076  21.800  0.00  0.00    +0.000 A 
ATOM     27  C   UNL     1      -0.685  11.632  21.184  0.00  0.00    +0.000 A 
ATOM     28  O   UNL     1       0.243  11.419  21.972  0.00  0.00    +0.000 OA
ATOM     29  N   UNL     1      -0.579  11.509  19.781  0.00  0.00    +0.000 N 
ENDBRANCH  16  29
ENDBRANCH   1  16
BRANCH  10  30
ATOM     30  O   UNL     1       6.220   3.355  14.897  0.00  0.00    +0.000 OA
BRANCH  30  31
ATOM     31  C   UNL     1       6.098   3.820  13.567  0.00  0.00    +0.000 C 
ATOM     32  F   UNL     1       6.239   2.853  12.633  0.00  0.00    +0.000 F 
ATOM     33  F   UNL     1       4.882   4.394  13.413  0.00  0.00    +0.000 F 
ATOM     34  F   UNL     1       7.034   4.768  13.343  0.00  0.00    +0.000 F 
ENDBRANCH  30  31
ENDBRANCH  10  30
TORSDOF 4
ENDMDL
MODEL 3
REMARK VINA RESULT:      -8.3      2.520      4.044
REMARK  Name = 
REMARK  5 active torsions:
REMARK  status: ('A' for Active; 'I' for Inactive)
REMARK    1  A    between atoms: C_1  and  C_2
REMARK    2  A    between atoms: N_12  and  C_13
REMARK    3  A    between atoms: C_13  and  N_15
REMARK    4  A    between atoms: C_24  and  O_25
REMARK    5  A    between atoms: O_25  and  C_26
REMARK                            x       y       z     vdW  Elec       q    Type
REMARK                         _______ _______ _______ _____ _____    ______ ____
ROOT
ATOM      1  N   UNL     1       0.723   9.284  19.380  0.00  0.00    +0.000 N 
ATOM      2  C   UNL     1       1.605   8.529  18.584  0.00  0.00    +0.000 C 
ATOM      3  O   UNL     1       1.724   8.680  17.375  0.00  0.00    +0.000 OA
ATOM      4  N   UNL     1       2.221   7.511  19.325  0.00  0.00    +0.000 N 
ATOM      5  C   UNL     1       3.146   6.774  18.602  0.00  0.00    +0.000 A 
ATOM      6  N   UNL     1       4.367   7.157  18.335  0.00  0.00    +0.000 NA
ATOM      7  C   UNL     1       4.934   6.243  17.459  0.00  0.00    +0.000 A 
ATOM      8  C   UNL     1       6.122   6.440  16.732  0.00  0.00    +0.000 A 
ATOM      9  C   UNL     1       6.553   5.465  15.827  0.00  0.00    +0.000 A 
ATOM     10  C   UNL     1       5.881   4.249  15.704  0.00  0.00    +0.000 A 
ATOM     11  C   UNL     1       4.716   4.006  16.447  0.00  0.00    +0.000 A 
ATOM     12  C   UNL     1       4.226   5.049  17.273  0.00  0.00    +0.000 A 
ATOM     13  S   UNL     1       2.724   5.186  18.138  0.00  0.00    +0.000 S 
ATOM     14  H   UNL     1       0.375   8.757  20.176  0.00  0.00    +0.000 HD
ATOM     15  H   UNL     1       2.689   7.963  20.100  0.00  0.00    +0.000 HD
ENDROOT
BRANCH   1  16
ATOM     16  C   UNL     1       0.123  10.558  19.152  0.00  0.00    +0.000 C 
ATOM     17  S   UNL     1      -1.239  10.643  18.159  0.00  0.00    +0.000 S 
BRANCH  16  29
ATOM     18  C   UNL     1      -0.542  11.710  21.983  0.00  0.00    +0.000 C 
ATOM     19  C   UNL     1       0.536  12.247  21.058  0.00  0.00    +0.000 A 
ATOM     20  N   UNL     1       1.149  13.260  21.587  0.00  0.00    +0.000 NA
ATOM     21  C   UNL     1       2.172  13.898  20.916  0.00  0.00    +0.000 A 
ATOM     22  C   UNL     1       2.799  15.002  21.499  0.00  0.00    +0.000 A 
ATOM     23  C   UNL     1       3.816  15.680  20.826  0.00  0.00    +0.000 A 
ATOM     24  C   UNL     1       4.211  15.248  19.562  0.00  0.00    +0.000 A 
ATOM     25  C   UNL     1       3.593  14.138  18.982  0.00  0.00    +0.000 A 
ATOM     26  C   UNL     1       2.569  13.465  19.668  0.00  0.00    +0.000 A 
ATOM     27  C   UNL     1       1.871  12.307  19.093  0.00  0.00    +0.000 A 
ATOM     28  O   UNL     1       2.257  11.961  17.971  0.00  0.00    +0.000 OA
ATOM     29  N   UNL     1       0.813  11.687  19.794  0.00  0.00    +0.000 N 
ENDBRANCH  16  29
ENDBRANCH   1  16
BRANCH  10  30
ATOM     30  O   UNL     1       6.332   3.454  14.691  0.00  0.00    +0.000 OA
BRANCH  30  31
ATOM     31  C   UNL     1       6.047   3.805  13.351  0.00  0.00    +0.000 C 
ATOM     32  F   UNL     1       4.839   4.387  13.182  0.00  0.00    +0.000 F 
ATOM     33  F   UNL     1       7.001   4.658  12.909  0.00  0.00    +0.000 F 
ATOM     34  F   UNL     1       6.096   2.695  12.583  0.00  0.00    +0.000 F 
ENDBRANCH  30  31
ENDBRANCH  10  30
TORSDOF 4
ENDMDL
MODEL 4
REMARK VINA RESULT:      -8.3      1.129      1.899
REMARK  Name = 
REMARK  5 active torsions:
REMARK  status: ('A' for Active; 'I' for Inactive)
REMARK    1  A    between atoms: C_1  and  C_2
REMARK    2  A    between atoms: N_12  and  C_13
REMARK    3  A    between atoms: C_13  and  N_15
REMARK    4  A    between atoms: C_24  and  O_25
REMARK    5  A    between atoms: O_25  and  C_26
REMARK                            x       y       z     vdW  Elec       q    Type
REMARK                         _______ _______ _______ _____ _____    ______ ____
ROOT
ATOM      1  N   UNL     1       0.885   9.773  19.168  0.00  0.00    +0.000 N 
ATOM      2  C   UNL     1       1.755   8.936  18.444  0.00  0.00    +0.000 C 
ATOM      3  O   UNL     1       2.046   9.116  17.268  0.00  0.00    +0.000 OA
ATOM      4  N   UNL     1       2.131   7.814  19.196  0.00  0.00    +0.000 N 
ATOM      5  C   UNL     1       3.037   6.987  18.550  0.00  0.00    +0.000 A 
ATOM      6  N   UNL     1       4.321   7.208  18.456  0.00  0.00    +0.000 NA
ATOM      7  C   UNL     1       4.871   6.260  17.605  0.00  0.00    +0.000 A 
ATOM      8  C   UNL     1       6.158   6.321  17.041  0.00  0.00    +0.000 A 
ATOM      9  C   UNL     1       6.570   5.332  16.142  0.00  0.00    +0.000 A 
ATOM     10  C   UNL     1       5.765   4.226  15.869  0.00  0.00    +0.000 A 
ATOM     11  C   UNL     1       4.492   4.116  16.450  0.00  0.00    +0.000 A 
ATOM     12  C   UNL     1       4.042   5.183  17.268  0.00  0.00    +0.000 A 
ATOM     13  S   UNL     1       2.473   5.491  17.949  0.00  0.00    +0.000 S 
ATOM     14  H   UNL     1       0.371   9.268  19.885  0.00  0.00    +0.000 HD
ATOM     15  H   UNL     1       2.551   8.167  20.047  0.00  0.00    +0.000 HD
ENDROOT
BRANCH   1  16
ATOM     16  C   UNL     1       0.491  11.126  18.941  0.00  0.00    +0.000 C 
ATOM     17  S   UNL     1       1.691  12.281  18.670  0.00  0.00    +0.000 S 
BRANCH  16  29
ATOM     18  C   UNL     1      -1.643   9.952  16.980  0.00  0.00    +0.000 C 
ATOM     19  C   UNL     1      -1.951  10.870  18.149  0.00  0.00    +0.000 A 
ATOM     20  N   UNL     1      -3.221  11.120  18.230  0.00  0.00    +0.000 NA
ATOM     21  C   UNL     1      -3.719  11.932  19.229  0.00  0.00    +0.000 A 
ATOM     22  C   UNL     1      -5.089  12.204  19.280  0.00  0.00    +0.000 A 
ATOM     23  C   UNL     1      -5.611  13.045  20.263  0.00  0.00    +0.000 A 
ATOM     24  C   UNL     1      -4.758  13.615  21.204  0.00  0.00    +0.000 A 
ATOM     25  C   UNL     1      -3.390  13.337  21.162  0.00  0.00    +0.000 A 
ATOM     26  C   UNL     1      -2.876  12.490  20.167  0.00  0.00    +0.000 A 
ATOM     27  C   UNL     1      -1.442  12.182  20.064  0.00  0.00    +0.000 A 
ATOM     28  O   UNL     1      -0.725  12.711  20.921  0.00  0.00    +0.000 OA
ATOM     29  N   UNL     1      -0.957  11.366  19.019  0.00  0.00    +0.000 N 
ENDBRANCH  16  29
ENDBRANCH   1  16
BRANCH  10  30
ATOM     30  O   UNL     1       6.234   3.417  14.875  0.00  0.00    +0.000 OA
BRANCH  30  31
ATOM     31  C   UNL     1       6.047   3.794  13.525  0.00  0.00    +0.000 C 
ATOM     32  F   UNL     1       4.820   4.296  13.261  0.00  0.00    +0.000 F 
ATOM     33  F   UNL     1       6.973   4.726  13.197  0.00  0.00    +0.000 F 
ATOM     34  F   UNL     1       6.246   2.717  12.734  0.00  0.00    +0.000 F 
ENDBRANCH  30  31
ENDBRANCH  10  30
TORSDOF 4
ENDMDL
MODEL 5
REMARK VINA RESULT:      -8.0      2.845      3.749
REMARK  Name = 
REMARK  5 active torsions:
REMARK  status: ('A' for Active; 'I' for Inactive)
REMARK    1  A    between atoms: C_1  and  C_2
REMARK    2  A    between atoms: N_12  and  C_13
REMARK    3  A    between atoms: C_13  and  N_15
REMARK    4  A    between atoms: C_24  and  O_25
REMARK    5  A    between atoms: O_25  and  C_26
REMARK                            x       y       z     vdW  Elec       q    Type
REMARK                         _______ _______ _______ _____ _____    ______ ____
ROOT
ATOM      1  N   UNL     1      -0.349  11.335  19.708  0.00  0.00    +0.000 N 
ATOM      2  C   UNL     1       0.175  10.101  19.278  0.00  0.00    +0.000 C 
ATOM      3  O   UNL     1      -0.223   9.504  18.286  0.00  0.00    +0.000 OA
ATOM      4  N   UNL     1       1.106   9.592  20.195  0.00  0.00    +0.000 N 
ATOM      5  C   UNL     1       1.699   8.406  19.790  0.00  0.00    +0.000 A 
ATOM      6  N   UNL     1       2.674   8.311  18.926  0.00  0.00    +0.000 NA
ATOM      7  C   UNL     1       2.889   6.969  18.649  0.00  0.00    +0.000 A 
ATOM      8  C   UNL     1       3.658   6.470  17.582  0.00  0.00    +0.000 A 
ATOM      9  C   UNL     1       3.743   5.090  17.372  0.00  0.00    +0.000 A 
ATOM     10  C   UNL     1       3.161   4.189  18.263  0.00  0.00    +0.000 A 
ATOM     11  C   UNL     1       2.422   4.656  19.361  0.00  0.00    +0.000 A 
ATOM     12  C   UNL     1       2.248   6.057  19.496  0.00  0.00    +0.000 A 
ATOM     13  S   UNL     1       1.228   6.964  20.573  0.00  0.00    +0.000 S 
ATOM     14  H   UNL     1      -0.304  11.442  20.718  0.00  0.00    +0.000 HD
ATOM     15  H   UNL     1       1.821  10.301  20.301  0.00  0.00    +0.000 HD
ENDROOT
BRANCH   1  16
ATOM     16  C   UNL     1      -1.072  12.338  18.996  0.00  0.00    +0.000 C 
ATOM     17  S   UNL     1      -0.232  13.685  18.423  0.00  0.00    +0.000 S 
BRANCH  16  29
ATOM     18  C   UNL     1      -2.504  11.089  16.512  0.00  0.00    +0.000 C 
ATOM     19  C   UNL     1      -3.204  11.545  17.780  0.00  0.00    +0.000 A 
ATOM     20  N   UNL     1      -4.486  11.362  17.702  0.00  0.00    +0.000 NA
ATOM     21  C   UNL     1      -5.315  11.704  18.751  0.00  0.00    +0.000 A 
ATOM     22  C   UNL     1      -6.694  11.517  18.632  0.00  0.00    +0.000 A 
ATOM     23  C   UNL     1      -7.554  11.884  19.669  0.00  0.00    +0.000 A 
ATOM     24  C   UNL     1      -7.029  12.436  20.834  0.00  0.00    +0.000 A 
ATOM     25  C   UNL     1      -5.649  12.614  20.960  0.00  0.00    +0.000 A 
ATOM     26  C   UNL     1      -4.794  12.244  19.909  0.00  0.00    +0.000 A 
ATOM     27  C   UNL     1      -3.338  12.430  19.981  0.00  0.00    +0.000 A 
ATOM     28  O   UNL     1      -2.920  12.923  21.035  0.00  0.00    +0.000 OA
ATOM     29  N   UNL     1      -2.517  12.091  18.884  0.00  0.00    +0.000 N 
ENDBRANCH  16  29
ENDBRANCH   1  16
BRANCH  10  30
ATOM     30  O   UNL     1       3.207   2.885  17.861  0.00  0.00    +0.000 OA
BRANCH  30  31
ATOM     31  C   UNL     1       3.408   1.868  18.822  0.00  0.00    +0.000 C 
ATOM     32  F   UNL     1       4.250   2.214  19.820  0.00  0.00    +0.000 F 
ATOM     33  F   UNL     1       2.213   1.535  19.364  0.00  0.00    +0.000 F 
ATOM     34  F   UNL     1       3.903   0.772  18.207  0.00  0.00    +0.000 F 
ENDBRANCH  30  31
ENDBRANCH  10  30
TORSDOF 4
ENDMDL
MODEL 6
REMARK VINA RESULT:      -7.9      3.195      4.306
REMARK  Name = 
REMARK  5 active torsions:
REMARK  status: ('A' for Active; 'I' for Inactive)
REMARK    1  A    between atoms: C_1  and  C_2
REMARK    2  A    between atoms: N_12  and  C_13
REMARK    3  A    between atoms: C_13  and  N_15
REMARK    4  A    between atoms: C_24  and  O_25
REMARK    5  A    between atoms: O_25  and  C_26
REMARK                            x       y       z     vdW  Elec       q    Type
REMARK                         _______ _______ _______ _____ _____    ______ ____
ROOT
ATOM      1  N   UNL     1      -0.644  11.798  20.482  0.00  0.00    +0.000 N 
ATOM      2  C   UNL     1      -0.211  10.533  20.042  0.00  0.00    +0.000 C 
ATOM      3  O   UNL     1      -0.783   9.885  19.174  0.00  0.00    +0.000 OA
ATOM      4  N   UNL     1       0.866  10.065  20.808  0.00  0.00    +0.000 N 
ATOM      5  C   UNL     1       1.370   8.847  20.376  0.00  0.00    +0.000 A 
ATOM      6  N   UNL     1       2.175   8.687  19.360  0.00  0.00    +0.000 NA
ATOM      7  C   UNL     1       2.331   7.327  19.132  0.00  0.00    +0.000 A 
ATOM      8  C   UNL     1       2.895   6.754  17.977  0.00  0.00    +0.000 A 
ATOM      9  C   UNL     1       2.934   5.362  17.840  0.00  0.00    +0.000 A 
ATOM     10  C   UNL     1       2.515   4.525  18.873  0.00  0.00    +0.000 A 
ATOM     11  C   UNL     1       1.986   5.067  20.054  0.00  0.00    +0.000 A 
ATOM     12  C   UNL     1       1.846   6.476  20.133  0.00  0.00    +0.000 A 
ATOM     13  S   UNL     1       1.039   7.461  21.316  0.00  0.00    +0.000 S 
ATOM     14  H   UNL     1      -0.419  11.964  21.459  0.00  0.00    +0.000 HD
ATOM     15  H   UNL     1       1.591  10.767  20.742  0.00  0.00    +0.000 HD
ENDROOT
BRANCH   1  16
ATOM     16  C   UNL     1      -1.477  12.769  19.850  0.00  0.00    +0.000 C 
ATOM     17  S   UNL     1      -0.746  14.075  19.070  0.00  0.00    +0.000 S 
BRANCH  16  29
ATOM     18  C   UNL     1      -3.354  11.601  17.638  0.00  0.00    +0.000 C 
ATOM     19  C   UNL     1      -3.805  12.022  19.026  0.00  0.00    +0.000 A 
ATOM     20  N   UNL     1      -5.080  11.846  19.181  0.00  0.00    +0.000 NA
ATOM     21  C   UNL     1      -5.698  12.160  20.375  0.00  0.00    +0.000 A 
ATOM     22  C   UNL     1      -7.077  11.982  20.507  0.00  0.00    +0.000 A 
ATOM     23  C   UNL     1      -7.727  12.320  21.695  0.00  0.00    +0.000 A 
ATOM     24  C   UNL     1      -6.991  12.835  22.759  0.00  0.00    +0.000 A 
ATOM     25  C   UNL     1      -5.611  13.003  22.633  0.00  0.00    +0.000 A 
ATOM     26  C   UNL     1      -4.968  12.662  21.432  0.00  0.00    +0.000 A 
ATOM     27  C   UNL     1      -3.522  12.840  21.239  0.00  0.00    +0.000 A 
ATOM     28  O   UNL     1      -2.912  13.300  22.211  0.00  0.00    +0.000 OA
ATOM     29  N   UNL     1      -2.920  12.532  20.000  0.00  0.00    +0.000 N 
ENDBRANCH  16  29
ENDBRANCH   1  16
BRANCH  10  30
ATOM     30  O   UNL     1       2.482   3.199  18.549  0.00  0.00    +0.000 OA
BRANCH  30  31
ATOM     31  C   UNL     1       3.390   2.310  19.167  0.00  0.00    +0.000 C 
ATOM     32  F   UNL     1       3.589   1.163  18.481  0.00  0.00    +0.000 F 
ATOM     33  F   UNL     1       4.582   2.934  19.318  0.00  0.00    +0.000 F 
ATOM     34  F   UNL     1       2.930   1.994  20.398  0.00  0.00    +0.000 F 
ENDBRANCH  30  31
ENDBRANCH  10  30
TORSDOF 4
ENDMDL
MODEL 7
REMARK VINA RESULT:      -7.9      5.104     10.257
REMARK  Name = 
REMARK  5 active torsions:
REMARK  status: ('A' for Active; 'I' for Inactive)
REMARK    1  A    between atoms: C_1  and  C_2
REMARK    2  A    between atoms: N_12  and  C_13
REMARK    3  A    between atoms: C_13  and  N_15
REMARK    4  A    between atoms: C_24  and  O_25
REMARK    5  A    between atoms: O_25  and  C_26
REMARK                            x       y       z     vdW  Elec       q    Type
REMARK                         _______ _______ _______ _____ _____    ______ ____
ROOT
ATOM      1  N   UNL     1       2.382   5.606  21.062  0.00  0.00    +0.000 N 
ATOM      2  C   UNL     1       1.929   6.809  20.488  0.00  0.00    +0.000 C 
ATOM      3  O   UNL     1       1.995   7.055  19.290  0.00  0.00    +0.000 OA
ATOM      4  N   UNL     1       1.523   7.724  21.469  0.00  0.00    +0.000 N 
ATOM      5  C   UNL     1       1.011   8.905  20.954  0.00  0.00    +0.000 A 
ATOM      6  N   UNL     1      -0.197   9.055  20.480  0.00  0.00    +0.000 NA
ATOM      7  C   UNL     1      -0.293  10.316  19.907  0.00  0.00    +0.000 A 
ATOM      8  C   UNL     1      -1.331  10.750  19.063  0.00  0.00    +0.000 A 
ATOM      9  C   UNL     1      -1.276  12.027  18.495  0.00  0.00    +0.000 A 
ATOM     10  C   UNL     1      -0.259  12.921  18.829  0.00  0.00    +0.000 A 
ATOM     11  C   UNL     1       0.769  12.531  19.701  0.00  0.00    +0.000 A 
ATOM     12  C   UNL     1       0.762  11.196  20.179  0.00  0.00    +0.000 A 
ATOM     13  S   UNL     1       1.968  10.315  21.069  0.00  0.00    +0.000 S 
ATOM     14  H   UNL     1       2.720   5.735  22.012  0.00  0.00    +0.000 HD
ATOM     15  H   UNL     1       0.807   7.261  22.014  0.00  0.00    +0.000 HD
ENDROOT
BRANCH   1  16
ATOM     16  C   UNL     1       2.603   4.322  20.480  0.00  0.00    +0.000 C 
ATOM     17  S   UNL     1       2.130   2.952  21.343  0.00  0.00    +0.000 S 
BRANCH  16  29
ATOM     18  C   UNL     1       1.217   3.874  17.713  0.00  0.00    +0.000 C 
ATOM     19  C   UNL     1       2.700   4.136  17.909  0.00  0.00    +0.000 A 
ATOM     20  N   UNL     1       3.331   4.140  16.776  0.00  0.00    +0.000 NA
ATOM     21  C   UNL     1       4.692   4.367  16.725  0.00  0.00    +0.000 A 
ATOM     22  C   UNL     1       5.351   4.344  15.493  0.00  0.00    +0.000 A 
ATOM     23  C   UNL     1       6.730   4.541  15.422  0.00  0.00    +0.000 A 
ATOM     24  C   UNL     1       7.455   4.767  16.589  0.00  0.00    +0.000 A 
ATOM     25  C   UNL     1       6.796   4.802  17.820  0.00  0.00    +0.000 A 
ATOM     26  C   UNL     1       5.408   4.600  17.881  0.00  0.00    +0.000 A 
ATOM     27  C   UNL     1       4.670   4.604  19.152  0.00  0.00    +0.000 A 
ATOM     28  O   UNL     1       5.356   4.809  20.160  0.00  0.00    +0.000 OA
ATOM     29  N   UNL     1       3.282   4.347  19.176  0.00  0.00    +0.000 N 
ENDBRANCH  16  29
ENDBRANCH   1  16
BRANCH  10  30
ATOM     30  O   UNL     1      -0.256  14.074  18.098  0.00  0.00    +0.000 OA
BRANCH  30  31
ATOM     31  C   UNL     1      -0.252  15.320  18.766  0.00  0.00    +0.000 C 
ATOM     32  F   UNL     1      -0.697  16.349  18.012  0.00  0.00    +0.000 F 
ATOM     33  F   UNL     1      -1.030  15.229  19.871  0.00  0.00    +0.000 F 
ATOM     34  F   UNL     1       1.007  15.600  19.169  0.00  0.00    +0.000 F 
ENDBRANCH  30  31
ENDBRANCH  10  30
TORSDOF 4
ENDMDL
MODEL 8
REMARK VINA RESULT:      -7.8      1.891      2.499
REMARK  Name = 
REMARK  5 active torsions:
REMARK  status: ('A' for Active; 'I' for Inactive)
REMARK    1  A    between atoms: C_1  and  C_2
REMARK    2  A    between atoms: N_12  and  C_13
REMARK    3  A    between atoms: C_13  and  N_15
REMARK    4  A    between atoms: C_24  and  O_25
REMARK    5  A    between atoms: O_25  and  C_26
REMARK                            x       y       z     vdW  Elec       q    Type
REMARK                         _______ _______ _______ _____ _____    ______ ____
ROOT
ATOM      1  N   UNL     1       0.803   9.245  20.031  0.00  0.00    +0.000 N 
ATOM      2  C   UNL     1       1.712   8.494  19.262  0.00  0.00    +0.000 C 
ATOM      3  O   UNL     1       2.196   8.887  18.209  0.00  0.00    +0.000 OA
ATOM      4  N   UNL     1       1.883   7.205  19.787  0.00  0.00    +0.000 N 
ATOM      5  C   UNL     1       2.816   6.442  19.100  0.00  0.00    +0.000 A 
ATOM      6  N   UNL     1       4.111   6.542  19.235  0.00  0.00    +0.000 NA
ATOM      7  C   UNL     1       4.717   5.743  18.275  0.00  0.00    +0.000 A 
ATOM      8  C   UNL     1       6.077   5.786  17.920  0.00  0.00    +0.000 A 
ATOM      9  C   UNL     1       6.552   4.972  16.886  0.00  0.00    +0.000 A 
ATOM     10  C   UNL     1       5.721   4.040  16.264  0.00  0.00    +0.000 A 
ATOM     11  C   UNL     1       4.368   3.945  16.626  0.00  0.00    +0.000 A 
ATOM     12  C   UNL     1       3.875   4.855  17.594  0.00  0.00    +0.000 A 
ATOM     13  S   UNL     1       2.245   5.176  18.107  0.00  0.00    +0.000 S 
ATOM     14  H   UNL     1       0.148   8.657  20.538  0.00  0.00    +0.000 HD
ATOM     15  H   UNL     1       2.190   7.323  20.744  0.00  0.00    +0.000 HD
ENDROOT
BRANCH   1  16
ATOM     16  C   UNL     1       0.549  10.649  20.063  0.00  0.00    +0.000 C 
ATOM     17  S   UNL     1       1.430  11.652  19.030  0.00  0.00    +0.000 S 
BRANCH  16  29
ATOM     18  C   UNL     1       0.394   9.626  23.014  0.00  0.00    +0.000 C 
ATOM     19  C   UNL     1      -0.564  10.626  22.390  0.00  0.00    +0.000 A 
ATOM     20  N   UNL     1      -1.471  11.001  23.237  0.00  0.00    +0.000 NA
ATOM     21  C   UNL     1      -2.441  11.915  22.877  0.00  0.00    +0.000 A 
ATOM     22  C   UNL     1      -3.421  12.284  23.802  0.00  0.00    +0.000 A 
ATOM     23  C   UNL     1      -4.428  13.183  23.450  0.00  0.00    +0.000 A 
ATOM     24  C   UNL     1      -4.453  13.720  22.165  0.00  0.00    +0.000 A 
ATOM     25  C   UNL     1      -3.469  13.361  21.242  0.00  0.00    +0.000 A 
ATOM     26  C   UNL     1      -2.461  12.453  21.607  0.00  0.00    +0.000 A 
ATOM     27  C   UNL     1      -1.415  12.024  20.668  0.00  0.00    +0.000 A 
ATOM     28  O   UNL     1      -1.479  12.528  19.540  0.00  0.00    +0.000 OA
ATOM     29  N   UNL     1      -0.448  11.072  21.057  0.00  0.00    +0.000 N 
ENDBRANCH  16  29
ENDBRANCH   1  16
BRANCH  10  30
ATOM     30  O   UNL     1       6.279   3.415  15.187  0.00  0.00    +0.000 OA
BRANCH  30  31
ATOM     31  C   UNL     1       6.176   4.010  13.908  0.00  0.00    +0.000 C 
ATOM     32  F   UNL     1       7.212   4.818  13.593  0.00  0.00    +0.000 F 
ATOM     33  F   UNL     1       6.094   3.032  12.975  0.00  0.00    +0.000 F 
ATOM     34  F   UNL     1       5.037   4.734  13.849  0.00  0.00    +0.000 F 
ENDBRANCH  30  31
ENDBRANCH  10  30
TORSDOF 4
ENDMDL
MODEL 9
REMARK VINA RESULT:      -7.7      3.719      4.985
REMARK  Name = 
REMARK  5 active torsions:
REMARK  status: ('A' for Active; 'I' for Inactive)
REMARK    1  A    between atoms: C_1  and  C_2
REMARK    2  A    between atoms: N_12  and  C_13
REMARK    3  A    between atoms: C_13  and  N_15
REMARK    4  A    between atoms: C_24  and  O_25
REMARK    5  A    between atoms: O_25  and  C_26
REMARK                            x       y       z     vdW  Elec       q    Type
REMARK                         _______ _______ _______ _____ _____    ______ ____
ROOT
ATOM      1  N   UNL     1      -0.832  12.185  20.864  0.00  0.00    +0.000 N 
ATOM      2  C   UNL     1      -0.428  10.913  20.417  0.00  0.00    +0.000 C 
ATOM      3  O   UNL     1      -1.089  10.221  19.654  0.00  0.00    +0.000 OA
ATOM      4  N   UNL     1       0.749  10.495  21.056  0.00  0.00    +0.000 N 
ATOM      5  C   UNL     1       1.224   9.272  20.608  0.00  0.00    +0.000 A 
ATOM      6  N   UNL     1       1.898   9.088  19.504  0.00  0.00    +0.000 NA
ATOM      7  C   UNL     1       2.056   7.724  19.307  0.00  0.00    +0.000 A 
ATOM      8  C   UNL     1       2.483   7.118  18.111  0.00  0.00    +0.000 A 
ATOM      9  C   UNL     1       2.538   5.723  18.020  0.00  0.00    +0.000 A 
ATOM     10  C   UNL     1       2.274   4.918  19.128  0.00  0.00    +0.000 A 
ATOM     11  C   UNL     1       1.885   5.495  20.347  0.00  0.00    +0.000 A 
ATOM     12  C   UNL     1       1.722   6.903  20.392  0.00  0.00    +0.000 A 
ATOM     13  S   UNL     1       1.048   7.917  21.632  0.00  0.00    +0.000 S 
ATOM     14  H   UNL     1      -0.490  12.393  21.798  0.00  0.00    +0.000 HD
ATOM     15  H   UNL     1       1.443  11.209  20.874  0.00  0.00    +0.000 HD
ENDROOT
BRANCH   1  16
ATOM     16  C   UNL     1      -1.762  13.114  20.309  0.00  0.00    +0.000 C 
ATOM     17  S   UNL     1      -1.164  14.441  19.454  0.00  0.00    +0.000 S 
BRANCH  16  29
ATOM     18  C   UNL     1      -3.803  11.892  18.280  0.00  0.00    +0.000 C 
ATOM     19  C   UNL     1      -4.129  12.284  19.710  0.00  0.00    +0.000 A 
ATOM     20  N   UNL     1      -5.376  12.056  19.989  0.00  0.00    +0.000 NA
ATOM     21  C   UNL     1      -5.883  12.336  21.242  0.00  0.00    +0.000 A 
ATOM     22  C   UNL     1      -7.235  12.103  21.507  0.00  0.00    +0.000 A 
ATOM     23  C   UNL     1      -7.776  12.405  22.758  0.00  0.00    +0.000 A 
ATOM     24  C   UNL     1      -6.958  12.940  23.750  0.00  0.00    +0.000 A 
ATOM     25  C   UNL     1      -5.604  13.163  23.490  0.00  0.00    +0.000 A 
ATOM     26  C   UNL     1      -5.071  12.857  22.227  0.00  0.00    +0.000 A 
ATOM     27  C   UNL     1      -3.660  13.093  21.894  0.00  0.00    +0.000 A 
ATOM     28  O   UNL     1      -2.974  13.569  22.806  0.00  0.00    +0.000 OA
ATOM     29  N   UNL     1      -3.173  12.819  20.597  0.00  0.00    +0.000 N 
ENDBRANCH  16  29
ENDBRANCH   1  16
BRANCH  10  30
ATOM     30  O   UNL     1       2.232   3.581  18.858  0.00  0.00    +0.000 OA
BRANCH  30  31
ATOM     31  C   UNL     1       1.236   2.780  19.464  0.00  0.00    +0.000 C 
ATOM     32  F   UNL     1       0.123   3.461  19.814  0.00  0.00    +0.000 F 
ATOM     33  F   UNL     1       0.885   1.793  18.606  0.00  0.00    +0.000 F 
ATOM     34  F   UNL     1       1.748   2.202  20.572  0.00  0.00    +0.000 F 
ENDBRANCH  30  31
ENDBRANCH  10  30
TORSDOF 4
ENDMDL
