MODEL 1
REMARK VINA RESULT:      -6.1      0.000      0.000
REMARK  Name = 
REMARK  3 active torsions:
REMARK  status: ('A' for Active; 'I' for Inactive)
REMARK    1  A    between atoms: O_1  and  N_2
REMARK    2  A    between atoms: C_3  and  C_4
REMARK    3  A    between atoms: C_5  and  C_6
REMARK                            x       y       z     vdW  Elec       q    Type
REMARK                         _______ _______ _______ _____ _____    ______ ____
ROOT
ATOM      1  C   UNL     1       4.071   4.490  17.108  0.00  0.00    +0.000 A 
ATOM      2  C   UNL     1       3.897   3.132  17.421  0.00  0.00    +0.000 A 
ATOM      3  C   UNL     1       2.877   2.717  18.280  0.00  0.00    +0.000 A 
ATOM      4  C   UNL     1       2.033   3.662  18.854  0.00  0.00    +0.000 A 
ATOM      5 CL   UNL     1       0.766   3.150  19.900  0.00  0.00    +0.000 Cl
ATOM      6  C   UNL     1       2.212   5.017  18.587  0.00  0.00    +0.000 A 
ATOM      7  C   UNL     1       3.233   5.430  17.720  0.00  0.00    +0.000 A 
ENDROOT
BRANCH   1   9
ATOM      8  C   UNL     1       5.639   4.146  15.238  0.00  0.00    +0.000 C 
ATOM      9  C   UNL     1       5.130   4.942  16.187  0.00  0.00    +0.000 C 
BRANCH   8  11
ATOM     10  N   UNL     1       7.536   5.516  14.698  0.00  0.00    +0.000 NA
ATOM     11  C   UNL     1       6.703   4.599  14.325  0.00  0.00    +0.000 C 
BRANCH  10  12
ATOM     12  O   UNL     1       8.439   5.774  13.662  0.00  0.00    +0.000 OA
ATOM     13  H   UNL     1       8.719   4.874  13.406  0.00  0.00    +0.000 HD
ENDBRANCH  10  12
ENDBRANCH   8  11
ENDBRANCH   1   9
TORSDOF 3
ENDMDL
MODEL 2
REMARK VINA RESULT:      -6.0      0.211      1.408
REMARK  Name = 
REMARK  3 active torsions:
REMARK  status: ('A' for Active; 'I' for Inactive)
REMARK    1  A    between atoms: O_1  and  N_2
REMARK    2  A    between atoms: C_3  and  C_4
REMARK    3  A    between atoms: C_5  and  C_6
REMARK                            x       y       z     vdW  Elec       q    Type
REMARK                         _______ _______ _______ _____ _____    ______ ____
ROOT
ATOM      1  C   UNL     1       4.114   4.682  17.084  0.00  0.00    +0.000 A 
ATOM      2  C   UNL     1       3.300   5.642  17.708  0.00  0.00    +0.000 A 
ATOM      3  C   UNL     1       2.298   5.261  18.604  0.00  0.00    +0.000 A 
ATOM      4  C   UNL     1       2.085   3.912  18.867  0.00  0.00    +0.000 A 
ATOM      5 CL   UNL     1       0.862   3.444  19.983  0.00  0.00    +0.000 Cl
ATOM      6  C   UNL     1       2.857   2.943  18.231  0.00  0.00    +0.000 A 
ATOM      7  C   UNL     1       3.865   3.327  17.337  0.00  0.00    +0.000 A 
ENDROOT
BRANCH   1   9
ATOM      8  C   UNL     1       5.567   4.287  15.134  0.00  0.00    +0.000 C 
ATOM      9  C   UNL     1       5.189   5.069  16.153  0.00  0.00    +0.000 C 
BRANCH   8  11
ATOM     10  N   UNL     1       7.571   5.497  14.593  0.00  0.00    +0.000 NA
ATOM     11  C   UNL     1       6.649   4.673  14.210  0.00  0.00    +0.000 C 
BRANCH  10  12
ATOM     12  O   UNL     1       8.470   5.707  13.544  0.00  0.00    +0.000 OA
ATOM     13  H   UNL     1       8.552   4.813  13.162  0.00  0.00    +0.000 HD
ENDBRANCH  10  12
ENDBRANCH   8  11
ENDBRANCH   1   9
TORSDOF 3
ENDMDL
MODEL 3
REMARK VINA RESULT:      -6.0      1.156      1.682
REMARK  Name = 
REMARK  3 active torsions:
REMARK  status: ('A' for Active; 'I' for Inactive)
REMARK    1  A    between atoms: O_1  and  N_2
REMARK    2  A    between atoms: C_3  and  C_4
REMARK    3  A    between atoms: C_5  and  C_6
REMARK                            x       y       z     vdW  Elec       q    Type
REMARK                         _______ _______ _______ _____ _____    ______ ____
ROOT
ATOM      1  C   UNL     1       3.563   3.719  17.745  0.00  0.00    +0.000 A 
ATOM      2  C   UNL     1       2.166   3.846  17.799  0.00  0.00    +0.000 A 
ATOM      3  C   UNL     1       1.461   3.541  18.967  0.00  0.00    +0.000 A 
ATOM      4  C   UNL     1       2.148   3.083  20.086  0.00  0.00    +0.000 A 
ATOM      5 CL   UNL     1       1.282   2.723  21.529  0.00  0.00    +0.000 Cl
ATOM      6  C   UNL     1       3.530   2.914  20.041  0.00  0.00    +0.000 A 
ATOM      7  C   UNL     1       4.235   3.226  18.871  0.00  0.00    +0.000 A 
ENDROOT
BRANCH   1   9
ATOM      8  C   UNL     1       5.634   4.326  16.556  0.00  0.00    +0.000 C 
ATOM      9  C   UNL     1       4.323   4.056  16.528  0.00  0.00    +0.000 C 
BRANCH   8  11
ATOM     10  N   UNL     1       7.464   5.388  15.418  0.00  0.00    +0.000 NA
ATOM     11  C   UNL     1       6.389   4.672  15.337  0.00  0.00    +0.000 C 
BRANCH  10  12
ATOM     12  O   UNL     1       7.988   5.583  14.137  0.00  0.00    +0.000 OA
ATOM     13  H   UNL     1       7.649   4.804  13.656  0.00  0.00    +0.000 HD
ENDBRANCH  10  12
ENDBRANCH   8  11
ENDBRANCH   1   9
TORSDOF 3
ENDMDL
MODEL 4
REMARK VINA RESULT:      -5.9      1.117      1.344
REMARK  Name = 
REMARK  3 active torsions:
REMARK  status: ('A' for Active; 'I' for Inactive)
REMARK    1  A    between atoms: O_1  and  N_2
REMARK    2  A    between atoms: C_3  and  C_4
REMARK    3  A    between atoms: C_5  and  C_6
REMARK                            x       y       z     vdW  Elec       q    Type
REMARK                         _______ _______ _______ _____ _____    ______ ____
ROOT
ATOM      1  C   UNL     1       3.807   3.586  17.599  0.00  0.00    +0.000 A 
ATOM      2  C   UNL     1       4.381   3.318  18.853  0.00  0.00    +0.000 A 
ATOM      3  C   UNL     1       3.581   3.087  19.975  0.00  0.00    +0.000 A 
ATOM      4  C   UNL     1       2.196   3.144  19.857  0.00  0.00    +0.000 A 
ATOM      5 CL   UNL     1       1.210   2.844  21.235  0.00  0.00    +0.000 Cl
ATOM      6  C   UNL     1       1.608   3.446  18.631  0.00  0.00    +0.000 A 
ATOM      7  C   UNL     1       2.412   3.672  17.506  0.00  0.00    +0.000 A 
ENDROOT
BRANCH   1   9
ATOM      8  C   UNL     1       5.474   4.851  16.298  0.00  0.00    +0.000 C 
ATOM      9  C   UNL     1       4.637   3.812  16.402  0.00  0.00    +0.000 C 
BRANCH   8  11
ATOM     10  N   UNL     1       7.520   5.481  15.208  0.00  0.00    +0.000 NA
ATOM     11  C   UNL     1       6.295   5.077  15.095  0.00  0.00    +0.000 C 
BRANCH  10  12
ATOM     12  O   UNL     1       8.080   5.627  13.935  0.00  0.00    +0.000 OA
ATOM     13  H   UNL     1       7.302   5.863  13.395  0.00  0.00    +0.000 HD
ENDBRANCH  10  12
ENDBRANCH   8  11
ENDBRANCH   1   9
TORSDOF 3
ENDMDL
MODEL 5
REMARK VINA RESULT:      -5.5      1.117      1.454
REMARK  Name = 
REMARK  3 active torsions:
REMARK  status: ('A' for Active; 'I' for Inactive)
REMARK    1  A    between atoms: O_1  and  N_2
REMARK    2  A    between atoms: C_3  and  C_4
REMARK    3  A    between atoms: C_5  and  C_6
REMARK                            x       y       z     vdW  Elec       q    Type
REMARK                         _______ _______ _______ _____ _____    ______ ____
ROOT
ATOM      1  C   UNL     1       3.966   4.661  17.687  0.00  0.00    +0.000 A 
ATOM      2  C   UNL     1       4.135   5.000  19.039  0.00  0.00    +0.000 A 
ATOM      3  C   UNL     1       3.176   4.648  19.993  0.00  0.00    +0.000 A 
ATOM      4  C   UNL     1       2.028   3.971  19.598  0.00  0.00    +0.000 A 
ATOM      5 CL   UNL     1       0.855   3.522  20.775  0.00  0.00    +0.000 Cl
ATOM      6  C   UNL     1       1.824   3.658  18.256  0.00  0.00    +0.000 A 
ATOM      7  C   UNL     1       2.788   4.008  17.302  0.00  0.00    +0.000 A 
ENDROOT
BRANCH   1   9
ATOM      8  C   UNL     1       6.233   4.545  16.726  0.00  0.00    +0.000 C 
ATOM      9  C   UNL     1       4.977   5.007  16.671  0.00  0.00    +0.000 C 
BRANCH   8  11
ATOM     10  N   UNL     1       6.877   5.354  14.558  0.00  0.00    +0.000 NA
ATOM     11  C   UNL     1       7.243   4.901  15.714  0.00  0.00    +0.000 C 
BRANCH  10  12
ATOM     12  O   UNL     1       8.009   5.610  13.780  0.00  0.00    +0.000 OA
ATOM     13  H   UNL     1       7.620   5.775  12.900  0.00  0.00    +0.000 HD
ENDBRANCH  10  12
ENDBRANCH   8  11
ENDBRANCH   1   9
TORSDOF 3
ENDMDL
MODEL 6
REMARK VINA RESULT:      -5.4      8.508      9.504
REMARK  Name = 
REMARK  3 active torsions:
REMARK  status: ('A' for Active; 'I' for Inactive)
REMARK    1  A    between atoms: O_1  and  N_2
REMARK    2  A    between atoms: C_3  and  C_4
REMARK    3  A    between atoms: C_5  and  C_6
REMARK                            x       y       z     vdW  Elec       q    Type
REMARK                         _______ _______ _______ _____ _____    ______ ____
ROOT
ATOM      1  C   UNL     1       9.591  10.621  19.083  0.00  0.00    +0.000 A 
ATOM      2  C   UNL     1      10.061  11.347  17.976  0.00  0.00    +0.000 A 
ATOM      3  C   UNL     1      10.774  12.536  18.146  0.00  0.00    +0.000 A 
ATOM      4  C   UNL     1      11.004  13.024  19.428  0.00  0.00    +0.000 A 
ATOM      5 CL   UNL     1      11.897  14.480  19.639  0.00  0.00    +0.000 Cl
ATOM      6  C   UNL     1      10.515  12.339  20.538  0.00  0.00    +0.000 A 
ATOM      7  C   UNL     1       9.805  11.143  20.365  0.00  0.00    +0.000 A 
ENDROOT
BRANCH   1   9
ATOM      8  C   UNL     1       8.196   9.049  17.796  0.00  0.00    +0.000 C 
ATOM      9  C   UNL     1       8.856   9.354  18.921  0.00  0.00    +0.000 C 
BRANCH   8  11
ATOM     10  N   UNL     1       7.684   7.014  16.628  0.00  0.00    +0.000 NA
ATOM     11  C   UNL     1       7.455   7.784  17.642  0.00  0.00    +0.000 C 
BRANCH  10  12
ATOM     12  O   UNL     1       6.857   5.889  16.704  0.00  0.00    +0.000 OA
ATOM     13  H   UNL     1       6.872   5.561  15.784  0.00  0.00    +0.000 HD
ENDBRANCH  10  12
ENDBRANCH   8  11
ENDBRANCH   1   9
TORSDOF 3
ENDMDL
MODEL 7
REMARK VINA RESULT:      -5.3      1.885      2.040
REMARK  Name = 
REMARK  3 active torsions:
REMARK  status: ('A' for Active; 'I' for Inactive)
REMARK    1  A    between atoms: O_1  and  N_2
REMARK    2  A    between atoms: C_3  and  C_4
REMARK    3  A    between atoms: C_5  and  C_6
REMARK                            x       y       z     vdW  Elec       q    Type
REMARK                         _______ _______ _______ _____ _____    ______ ____
ROOT
ATOM      1  C   UNL     1       4.351   4.284  17.360  0.00  0.00    +0.000 A 
ATOM      2  C   UNL     1       2.968   4.036  17.335  0.00  0.00    +0.000 A 
ATOM      3  C   UNL     1       2.134   4.515  18.349  0.00  0.00    +0.000 A 
ATOM      4  C   UNL     1       2.680   5.227  19.411  0.00  0.00    +0.000 A 
ATOM      5 CL   UNL     1       1.651   5.830  20.651  0.00  0.00    +0.000 Cl
ATOM      6  C   UNL     1       4.053   5.451  19.474  0.00  0.00    +0.000 A 
ATOM      7  C   UNL     1       4.887   4.975  18.454  0.00  0.00    +0.000 A 
ENDROOT
BRANCH   1   9
ATOM      8  C   UNL     1       5.372   4.452  15.124  0.00  0.00    +0.000 C 
ATOM      9  C   UNL     1       5.241   3.804  16.288  0.00  0.00    +0.000 C 
BRANCH   8  11
ATOM     10  N   UNL     1       5.755   3.507  12.949  0.00  0.00    +0.000 NA
ATOM     11  C   UNL     1       6.257   3.964  14.051  0.00  0.00    +0.000 C 
BRANCH  10  12
ATOM     12  O   UNL     1       6.789   3.104  12.100  0.00  0.00    +0.000 OA
ATOM     13  H   UNL     1       6.783   2.134  12.216  0.00  0.00    +0.000 HD
ENDBRANCH  10  12
ENDBRANCH   8  11
ENDBRANCH   1   9
TORSDOF 3
ENDMDL
MODEL 8
REMARK VINA RESULT:      -5.3      1.515      2.087
REMARK  Name = 
REMARK  3 active torsions:
REMARK  status: ('A' for Active; 'I' for Inactive)
REMARK    1  A    between atoms: O_1  and  N_2
REMARK    2  A    between atoms: C_3  and  C_4
REMARK    3  A    between atoms: C_5  and  C_6
REMARK                            x       y       z     vdW  Elec       q    Type
REMARK                         _______ _______ _______ _____ _____    ______ ____
ROOT
ATOM      1  C   UNL     1       4.268   5.243  17.079  0.00  0.00    +0.000 A 
ATOM      2  C   UNL     1       3.985   6.386  17.845  0.00  0.00    +0.000 A 
ATOM      3  C   UNL     1       3.131   6.318  18.949  0.00  0.00    +0.000 A 
ATOM      4  C   UNL     1       2.534   5.108  19.284  0.00  0.00    +0.000 A 
ATOM      5 CL   UNL     1       1.496   5.020  20.654  0.00  0.00    +0.000 Cl
ATOM      6  C   UNL     1       2.772   3.971  18.516  0.00  0.00    +0.000 A 
ATOM      7  C   UNL     1       3.633   4.040  17.412  0.00  0.00    +0.000 A 
ENDROOT
BRANCH   1   9
ATOM      8  C   UNL     1       5.511   4.201  15.224  0.00  0.00    +0.000 C 
ATOM      9  C   UNL     1       5.183   5.294  15.924  0.00  0.00    +0.000 C 
BRANCH   8  11
ATOM     10  N   UNL     1       6.084   3.751  12.936  0.00  0.00    +0.000 NA
ATOM     11  C   UNL     1       6.433   4.254  14.076  0.00  0.00    +0.000 C 
BRANCH  10  12
ATOM     12  O   UNL     1       7.124   3.919  12.016  0.00  0.00    +0.000 OA
ATOM     13  H   UNL     1       7.742   4.493  12.509  0.00  0.00    +0.000 HD
ENDBRANCH  10  12
ENDBRANCH   8  11
ENDBRANCH   1   9
TORSDOF 3
ENDMDL
MODEL 9
REMARK VINA RESULT:      -5.2      2.344      2.956
REMARK  Name = 
REMARK  3 active torsions:
REMARK  status: ('A' for Active; 'I' for Inactive)
REMARK    1  A    between atoms: O_1  and  N_2
REMARK    2  A    between atoms: C_3  and  C_4
REMARK    3  A    between atoms: C_5  and  C_6
REMARK                            x       y       z     vdW  Elec       q    Type
REMARK                         _______ _______ _______ _____ _____    ______ ____
ROOT
ATOM      1  C   UNL     1       4.838   4.959  16.456  0.00  0.00    +0.000 A 
ATOM      2  C   UNL     1       4.906   6.359  16.548  0.00  0.00    +0.000 A 
ATOM      3  C   UNL     1       4.121   7.058  17.468  0.00  0.00    +0.000 A 
ATOM      4  C   UNL     1       3.242   6.363  18.292  0.00  0.00    +0.000 A 
ATOM      5 CL   UNL     1       2.287   7.222  19.437  0.00  0.00    +0.000 Cl
ATOM      6  C   UNL     1       3.131   4.978  18.190  0.00  0.00    +0.000 A 
ATOM      7  C   UNL     1       3.924   4.279  17.270  0.00  0.00    +0.000 A 
ENDROOT
BRANCH   1   9
ATOM      8  C   UNL     1       5.580   4.374  14.180  0.00  0.00    +0.000 C 
ATOM      9  C   UNL     1       5.674   4.205  15.505  0.00  0.00    +0.000 C 
BRANCH   8  11
ATOM     10  N   UNL     1       5.861   2.950  12.266  0.00  0.00    +0.000 NA
ATOM     11  C   UNL     1       6.412   3.611  13.232  0.00  0.00    +0.000 C 
BRANCH  10  12
ATOM     12  O   UNL     1       6.852   2.310  11.516  0.00  0.00    +0.000 OA
ATOM     13  H   UNL     1       7.640   2.420  12.082  0.00  0.00    +0.000 HD
ENDBRANCH  10  12
ENDBRANCH   8  11
ENDBRANCH   1   9
TORSDOF 3
ENDMDL
