MODEL 1
REMARK VINA RESULT:      -9.1      0.000      0.000
REMARK  Name = 
REMARK  6 active torsions:
REMARK  status: ('A' for Active; 'I' for Inactive)
REMARK    1  A    between atoms: C_2  and  C_14
REMARK    2  A    between atoms: N_3  and  N_4
REMARK    3  A    between atoms: N_4  and  C_5
REMARK    4  A    between atoms: C_5  and  N_7
REMARK    5  A    between atoms: N_7  and  C_8
REMARK    6  A    between atoms: C_16  and  C_17
REMARK                            x       y       z     vdW  Elec       q    Type
REMARK                         _______ _______ _______ _____ _____    ______ ____
ROOT
ATOM      1  O   UNL     1       2.893   7.563  17.349  0.00  0.00    +0.000 OA
ATOM      2  C   UNL     1       2.829   7.263  18.539  0.00  0.00    +0.000 C 
ATOM      3  N   UNL     1       2.103   8.053  19.429  0.00  0.00    +0.000 N 
ATOM      4  H   UNL     1       1.994   7.814  20.407  0.00  0.00    +0.000 HD
ENDROOT
BRANCH   2   5
ATOM      5  C   UNL     1       3.324   5.898  18.998  0.00  0.00    +0.000 A 
ATOM      6  C   UNL     1       4.692   6.037  19.284  0.00  0.00    +0.000 A 
ATOM      7  C   UNL     1       5.464   4.968  18.935  0.00  0.00    +0.000 A 
ATOM      8  N   UNL     1       5.063   3.826  19.498  0.00  0.00    +0.000 NA
ATOM      9  C   UNL     1       3.791   3.531  19.235  0.00  0.00    +0.000 A 
ATOM     10  C   UNL     1       3.578   2.175  19.031  0.00  0.00    +0.000 A 
ATOM     11  C   UNL     1       2.359   1.711  18.584  0.00  0.00    +0.000 A 
ATOM     12  C   UNL     1       1.309   2.613  18.430  0.00  0.00    +0.000 A 
ATOM     13  C   UNL     1       1.522   4.014  18.614  0.00  0.00    +0.000 A 
ATOM     14  C   UNL     1       2.812   4.533  18.949  0.00  0.00    +0.000 A 
BRANCH   7  15
ATOM     15  C   UNL     1       5.841   4.650  17.519  0.00  0.00    +0.000 A 
ATOM     16  C   UNL     1       4.986   5.081  16.505  0.00  0.00    +0.000 A 
ATOM     17  C   UNL     1       5.497   5.368  15.243  0.00  0.00    +0.000 A 
ATOM     18  C   UNL     1       6.849   5.172  15.011  0.00  0.00    +0.000 A 
ATOM     19  N   UNL     1       7.686   4.619  15.907  0.00  0.00    +0.000 NA
ATOM     20  C   UNL     1       7.160   4.357  17.128  0.00  0.00    +0.000 A 
ENDBRANCH   7  15
ENDBRANCH   2   5
BRANCH   3  21
ATOM     21  N   UNL     1       1.255   9.143  18.950  0.00  0.00    +0.000 N 
ATOM     22  H   UNL     1       1.746   9.815  18.366  0.00  0.00    +0.000 HD
BRANCH  21  23
ATOM     23  C   UNL     1       0.258   9.593  19.764  0.00  0.00    +0.000 C 
ATOM     24  S   UNL     1       0.086   9.082  21.367  0.00  0.00    +0.000 S 
BRANCH  23  25
ATOM     25  N   UNL     1      -0.722  10.433  19.341  0.00  0.00    +0.000 N 
ATOM     26  H   UNL     1      -0.802  11.202  20.001  0.00  0.00    +0.000 HD
BRANCH  25  27
ATOM     27  C   UNL     1      -1.703  10.500  18.322  0.00  0.00    +0.000 A 
ATOM     28  C   UNL     1      -1.695   9.794  17.129  0.00  0.00    +0.000 A 
ATOM     29  C   UNL     1      -2.723   9.989  16.185  0.00  0.00    +0.000 A 
ATOM     30  C   UNL     1      -3.773  10.877  16.426  0.00  0.00    +0.000 A 
ATOM     31  C   UNL     1      -3.813  11.569  17.632  0.00  0.00    +0.000 A 
ATOM     32  C   UNL     1      -2.787  11.376  18.566  0.00  0.00    +0.000 A 
ENDBRANCH  25  27
ENDBRANCH  23  25
ENDBRANCH  21  23
ENDBRANCH   3  21
TORSDOF 6
ENDMDL
MODEL 2
REMARK VINA RESULT:      -8.9      1.902      2.653
REMARK  Name = 
REMARK  6 active torsions:
REMARK  status: ('A' for Active; 'I' for Inactive)
REMARK    1  A    between atoms: C_2  and  C_14
REMARK    2  A    between atoms: N_3  and  N_4
REMARK    3  A    between atoms: N_4  and  C_5
REMARK    4  A    between atoms: C_5  and  N_7
REMARK    5  A    between atoms: N_7  and  C_8
REMARK    6  A    between atoms: C_16  and  C_17
REMARK                            x       y       z     vdW  Elec       q    Type
REMARK                         _______ _______ _______ _____ _____    ______ ____
ROOT
ATOM      1  O   UNL     1       3.641   7.688  16.962  0.00  0.00    +0.000 OA
ATOM      2  C   UNL     1       3.128   7.351  18.028  0.00  0.00    +0.000 C 
ATOM      3  N   UNL     1       2.037   8.052  18.538  0.00  0.00    +0.000 N 
ATOM      4  H   UNL     1       1.563   7.779  19.390  0.00  0.00    +0.000 HD
ENDROOT
BRANCH   2   5
ATOM      5  C   UNL     1       3.513   6.021  18.661  0.00  0.00    +0.000 A 
ATOM      6  C   UNL     1       4.874   6.109  18.994  0.00  0.00    +0.000 A 
ATOM      7  C   UNL     1       5.587   4.962  18.806  0.00  0.00    +0.000 A 
ATOM      8  N   UNL     1       5.089   3.919  19.474  0.00  0.00    +0.000 NA
ATOM      9  C   UNL     1       3.812   3.674  19.185  0.00  0.00    +0.000 A 
ATOM     10  C   UNL     1       3.519   2.318  19.126  0.00  0.00    +0.000 A 
ATOM     11  C   UNL     1       2.291   1.880  18.676  0.00  0.00    +0.000 A 
ATOM     12  C   UNL     1       1.309   2.821  18.371  0.00  0.00    +0.000 A 
ATOM     13  C   UNL     1       1.607   4.218  18.405  0.00  0.00    +0.000 A 
ATOM     14  C   UNL     1       2.913   4.693  18.741  0.00  0.00    +0.000 A 
BRANCH   7  15
ATOM     15  C   UNL     1       5.999   4.459  17.454  0.00  0.00    +0.000 A 
ATOM     16  C   UNL     1       5.028   4.405  16.456  0.00  0.00    +0.000 A 
ATOM     17  C   UNL     1       5.398   4.541  15.121  0.00  0.00    +0.000 A 
ATOM     18  C   UNL     1       6.742   4.680  14.813  0.00  0.00    +0.000 A 
ATOM     19  N   UNL     1       7.728   4.589  15.723  0.00  0.00    +0.000 NA
ATOM     20  C   UNL     1       7.335   4.465  17.014  0.00  0.00    +0.000 A 
ENDBRANCH   7  15
ENDBRANCH   2   5
BRANCH   3  21
ATOM     21  N   UNL     1       1.363   9.080  17.747  0.00  0.00    +0.000 N 
ATOM     22  H   UNL     1       1.967   9.529  17.063  0.00  0.00    +0.000 HD
BRANCH  21  23
ATOM     23  C   UNL     1       0.390   9.824  18.345  0.00  0.00    +0.000 C 
ATOM     24  S   UNL     1      -1.131  10.070  17.646  0.00  0.00    +0.000 S 
BRANCH  23  25
ATOM     25  N   UNL     1       0.577  10.489  19.514  0.00  0.00    +0.000 N 
ATOM     26  H   UNL     1       1.416  11.059  19.437  0.00  0.00    +0.000 HD
BRANCH  25  27
ATOM     27  C   UNL     1       0.009  10.549  20.809  0.00  0.00    +0.000 A 
ATOM     28  C   UNL     1       0.108   9.578  21.794  0.00  0.00    +0.000 A 
ATOM     29  C   UNL     1      -0.544   9.755  23.030  0.00  0.00    +0.000 A 
ATOM     30  C   UNL     1      -1.287  10.906  23.302  0.00  0.00    +0.000 A 
ATOM     31  C   UNL     1      -1.370  11.904  22.338  0.00  0.00    +0.000 A 
ATOM     32  C   UNL     1      -0.724  11.722  21.108  0.00  0.00    +0.000 A 
ENDBRANCH  25  27
ENDBRANCH  23  25
ENDBRANCH  21  23
ENDBRANCH   3  21
TORSDOF 6
ENDMDL
MODEL 3
REMARK VINA RESULT:      -8.9      1.698      3.891
REMARK  Name = 
REMARK  6 active torsions:
REMARK  status: ('A' for Active; 'I' for Inactive)
REMARK    1  A    between atoms: C_2  and  C_14
REMARK    2  A    between atoms: N_3  and  N_4
REMARK    3  A    between atoms: N_4  and  C_5
REMARK    4  A    between atoms: C_5  and  N_7
REMARK    5  A    between atoms: N_7  and  C_8
REMARK    6  A    between atoms: C_16  and  C_17
REMARK                            x       y       z     vdW  Elec       q    Type
REMARK                         _______ _______ _______ _____ _____    ______ ____
ROOT
ATOM      1  O   UNL     1       2.121   8.075  19.544  0.00  0.00    +0.000 OA
ATOM      2  C   UNL     1       2.307   8.036  18.329  0.00  0.00    +0.000 C 
ATOM      3  N   UNL     1       2.099   9.170  17.546  0.00  0.00    +0.000 N 
ATOM      4  H   UNL     1       2.281   9.187  16.550  0.00  0.00    +0.000 HD
ENDROOT
BRANCH   2   5
ATOM      5  C   UNL     1       3.007   6.832  17.714  0.00  0.00    +0.000 A 
ATOM      6  C   UNL     1       2.070   5.787  17.686  0.00  0.00    +0.000 A 
ATOM      7  C   UNL     1       2.579   4.550  17.953  0.00  0.00    +0.000 A 
ATOM      8  N   UNL     1       3.573   4.204  17.131  0.00  0.00    +0.000 NA
ATOM      9  C   UNL     1       4.576   5.080  17.125  0.00  0.00    +0.000 A 
ATOM     10  C   UNL     1       5.824   4.479  17.037  0.00  0.00    +0.000 A 
ATOM     11  C   UNL     1       6.977   5.219  17.186  0.00  0.00    +0.000 A 
ATOM     12  C   UNL     1       6.877   6.601  17.330  0.00  0.00    +0.000 A 
ATOM     13  C   UNL     1       5.599   7.229  17.445  0.00  0.00    +0.000 A 
ATOM     14  C   UNL     1       4.390   6.465  17.427  0.00  0.00    +0.000 A 
BRANCH   7  15
ATOM     15  C   UNL     1       2.971   4.099  19.328  0.00  0.00    +0.000 A 
ATOM     16  C   UNL     1       2.200   4.542  20.403  0.00  0.00    +0.000 A 
ATOM     17  C   UNL     1       2.095   3.758  21.549  0.00  0.00    +0.000 A 
ATOM     18  C   UNL     1       2.805   2.570  21.611  0.00  0.00    +0.000 A 
ATOM     19  N   UNL     1       3.676   2.172  20.667  0.00  0.00    +0.000 NA
ATOM     20  C   UNL     1       3.750   2.951  19.561  0.00  0.00    +0.000 A 
ENDBRANCH   7  15
ENDBRANCH   2   5
BRANCH   3  21
ATOM     21  N   UNL     1       1.835  10.471  18.158  0.00  0.00    +0.000 N 
ATOM     22  H   UNL     1       2.676  10.960  18.454  0.00  0.00    +0.000 HD
BRANCH  21  23
ATOM     23  C   UNL     1       0.700  10.620  18.899  0.00  0.00    +0.000 C 
ATOM     24  S   UNL     1       0.677  11.435  20.381  0.00  0.00    +0.000 S 
BRANCH  23  25
ATOM     25  N   UNL     1      -0.491  10.070  18.550  0.00  0.00    +0.000 N 
ATOM     26  H   UNL     1      -0.447   9.066  18.703  0.00  0.00    +0.000 HD
BRANCH  25  27
ATOM     27  C   UNL     1      -1.718  10.467  17.963  0.00  0.00    +0.000 A 
ATOM     28  C   UNL     1      -2.623  11.375  18.489  0.00  0.00    +0.000 A 
ATOM     29  C   UNL     1      -3.828  11.646  17.811  0.00  0.00    +0.000 A 
ATOM     30  C   UNL     1      -4.135  11.029  16.597  0.00  0.00    +0.000 A 
ATOM     31  C   UNL     1      -3.222  10.139  16.039  0.00  0.00    +0.000 A 
ATOM     32  C   UNL     1      -2.028   9.868  16.718  0.00  0.00    +0.000 A 
ENDBRANCH  25  27
ENDBRANCH  23  25
ENDBRANCH  21  23
ENDBRANCH   3  21
TORSDOF 6
ENDMDL
MODEL 4
REMARK VINA RESULT:      -8.9      2.280      2.807
REMARK  Name = 
REMARK  6 active torsions:
REMARK  status: ('A' for Active; 'I' for Inactive)
REMARK    1  A    between atoms: C_2  and  C_14
REMARK    2  A    between atoms: N_3  and  N_4
REMARK    3  A    between atoms: N_4  and  C_5
REMARK    4  A    between atoms: C_5  and  N_7
REMARK    5  A    between atoms: N_7  and  C_8
REMARK    6  A    between atoms: C_16  and  C_17
REMARK                            x       y       z     vdW  Elec       q    Type
REMARK                         _______ _______ _______ _____ _____    ______ ____
ROOT
ATOM      1  O   UNL     1       2.192   7.762  20.485  0.00  0.00    +0.000 OA
ATOM      2  C   UNL     1       2.338   7.111  19.453  0.00  0.00    +0.000 C 
ATOM      3  N   UNL     1       2.210   7.723  18.207  0.00  0.00    +0.000 N 
ATOM      4  H   UNL     1       2.364   7.228  17.337  0.00  0.00    +0.000 HD
ENDROOT
BRANCH   2   5
ATOM      5  C   UNL     1       2.910   5.702  19.527  0.00  0.00    +0.000 A 
ATOM      6  C   UNL     1       4.308   5.827  19.471  0.00  0.00    +0.000 A 
ATOM      7  C   UNL     1       4.944   4.854  18.758  0.00  0.00    +0.000 A 
ATOM      8  N   UNL     1       4.681   3.623  19.200  0.00  0.00    +0.000 NA
ATOM      9  C   UNL     1       3.379   3.343  19.226  0.00  0.00    +0.000 A 
ATOM     10  C   UNL     1       3.096   2.036  18.854  0.00  0.00    +0.000 A 
ATOM     11  C   UNL     1       1.795   1.621  18.663  0.00  0.00    +0.000 A 
ATOM     12  C   UNL     1       0.757   2.508  18.942  0.00  0.00    +0.000 A 
ATOM     13  C   UNL     1       1.036   3.863  19.302  0.00  0.00    +0.000 A 
ATOM     14  C   UNL     1       2.378   4.351  19.378  0.00  0.00    +0.000 A 
BRANCH   7  15
ATOM     15  C   UNL     1       4.937   4.792  17.259  0.00  0.00    +0.000 A 
ATOM     16  C   UNL     1       4.807   5.991  16.559  0.00  0.00    +0.000 A 
ATOM     17  C   UNL     1       5.367   6.115  15.290  0.00  0.00    +0.000 A 
ATOM     18  C   UNL     1       6.004   5.018  14.732  0.00  0.00    +0.000 A 
ATOM     19  N   UNL     1       6.025   3.800  15.302  0.00  0.00    +0.000 NA
ATOM     20  C   UNL     1       5.479   3.713  16.539  0.00  0.00    +0.000 A 
ENDBRANCH   7  15
ENDBRANCH   2   5
BRANCH   3  21
ATOM     21  N   UNL     1       2.081   9.174  18.090  0.00  0.00    +0.000 N 
ATOM     22  H   UNL     1       2.971   9.666  18.115  0.00  0.00    +0.000 HD
BRANCH  21  23
ATOM     23  C   UNL     1       0.990   9.775  18.645  0.00  0.00    +0.000 C 
ATOM     24  S   UNL     1      -0.533   9.758  17.910  0.00  0.00    +0.000 S 
BRANCH  23  25
ATOM     25  N   UNL     1       1.044  10.495  19.794  0.00  0.00    +0.000 N 
ATOM     26  H   UNL     1       1.938  10.977  19.839  0.00  0.00    +0.000 HD
BRANCH  25  27
ATOM     27  C   UNL     1       0.272  10.695  20.964  0.00  0.00    +0.000 A 
ATOM     28  C   UNL     1       0.019   9.754  21.951  0.00  0.00    +0.000 A 
ATOM     29  C   UNL     1      -0.802  10.083  23.047  0.00  0.00    +0.000 A 
ATOM     30  C   UNL     1      -1.367  11.353  23.179  0.00  0.00    +0.000 A 
ATOM     31  C   UNL     1      -1.097  12.318  22.215  0.00  0.00    +0.000 A 
ATOM     32  C   UNL     1      -0.284  11.987  21.124  0.00  0.00    +0.000 A 
ENDBRANCH  25  27
ENDBRANCH  23  25
ENDBRANCH  21  23
ENDBRANCH   3  21
TORSDOF 6
ENDMDL
MODEL 5
REMARK VINA RESULT:      -8.8      1.238      1.509
REMARK  Name = 
REMARK  6 active torsions:
REMARK  status: ('A' for Active; 'I' for Inactive)
REMARK    1  A    between atoms: C_2  and  C_14
REMARK    2  A    between atoms: N_3  and  N_4
REMARK    3  A    between atoms: N_4  and  C_5
REMARK    4  A    between atoms: C_5  and  N_7
REMARK    5  A    between atoms: N_7  and  C_8
REMARK    6  A    between atoms: C_16  and  C_17
REMARK                            x       y       z     vdW  Elec       q    Type
REMARK                         _______ _______ _______ _____ _____    ______ ____
ROOT
ATOM      1  O   UNL     1       2.174   7.932  20.352  0.00  0.00    +0.000 OA
ATOM      2  C   UNL     1       2.281   7.228  19.349  0.00  0.00    +0.000 C 
ATOM      3  N   UNL     1       2.104   7.776  18.080  0.00  0.00    +0.000 N 
ATOM      4  H   UNL     1       2.226   7.238  17.231  0.00  0.00    +0.000 HD
ENDROOT
BRANCH   2   5
ATOM      5  C   UNL     1       2.857   5.824  19.474  0.00  0.00    +0.000 A 
ATOM      6  C   UNL     1       4.255   5.953  19.424  0.00  0.00    +0.000 A 
ATOM      7  C   UNL     1       4.900   4.960  18.746  0.00  0.00    +0.000 A 
ATOM      8  N   UNL     1       4.638   3.742  19.227  0.00  0.00    +0.000 NA
ATOM      9  C   UNL     1       3.337   3.459  19.253  0.00  0.00    +0.000 A 
ATOM     10  C   UNL     1       3.061   2.139  18.922  0.00  0.00    +0.000 A 
ATOM     11  C   UNL     1       1.762   1.714  18.735  0.00  0.00    +0.000 A 
ATOM     12  C   UNL     1       0.719   2.606  18.977  0.00  0.00    +0.000 A 
ATOM     13  C   UNL     1       0.991   3.972  19.295  0.00  0.00    +0.000 A 
ATOM     14  C   UNL     1       2.330   4.468  19.364  0.00  0.00    +0.000 A 
BRANCH   7  15
ATOM     15  C   UNL     1       4.903   4.849  17.251  0.00  0.00    +0.000 A 
ATOM     16  C   UNL     1       4.837   6.029  16.511  0.00  0.00    +0.000 A 
ATOM     17  C   UNL     1       5.413   6.086  15.245  0.00  0.00    +0.000 A 
ATOM     18  C   UNL     1       6.003   4.943  14.729  0.00  0.00    +0.000 A 
ATOM     19  N   UNL     1       5.962   3.744  15.338  0.00  0.00    +0.000 NA
ATOM     20  C   UNL     1       5.402   3.723  16.571  0.00  0.00    +0.000 A 
ENDBRANCH   7  15
ENDBRANCH   2   5
BRANCH   3  21
ATOM     21  N   UNL     1       1.969   9.220  17.894  0.00  0.00    +0.000 N 
ATOM     22  H   UNL     1       2.834   9.733  18.047  0.00  0.00    +0.000 HD
BRANCH  21  23
ATOM     23  C   UNL     1       0.791   9.810  18.242  0.00  0.00    +0.000 C 
ATOM     24  S   UNL     1       0.651  10.863  19.558  0.00  0.00    +0.000 S 
BRANCH  23  25
ATOM     25  N   UNL     1      -0.383   9.553  17.609  0.00  0.00    +0.000 N 
ATOM     26  H   UNL     1      -0.278   8.709  17.053  0.00  0.00    +0.000 HD
BRANCH  25  27
ATOM     27  C   UNL     1      -1.652  10.155  17.432  0.00  0.00    +0.000 A 
ATOM     28  C   UNL     1      -2.337  10.917  18.366  0.00  0.00    +0.000 A 
ATOM     29  C   UNL     1      -3.616  11.424  18.064  0.00  0.00    +0.000 A 
ATOM     30  C   UNL     1      -4.219  11.189  16.827  0.00  0.00    +0.000 A 
ATOM     31  C   UNL     1      -3.532  10.454  15.866  0.00  0.00    +0.000 A 
ATOM     32  C   UNL     1      -2.263   9.947  16.171  0.00  0.00    +0.000 A 
ENDBRANCH  25  27
ENDBRANCH  23  25
ENDBRANCH  21  23
ENDBRANCH   3  21
TORSDOF 6
ENDMDL
MODEL 6
REMARK VINA RESULT:      -8.7      3.086      8.499
REMARK  Name = 
REMARK  6 active torsions:
REMARK  status: ('A' for Active; 'I' for Inactive)
REMARK    1  A    between atoms: C_2  and  C_14
REMARK    2  A    between atoms: N_3  and  N_4
REMARK    3  A    between atoms: N_4  and  C_5
REMARK    4  A    between atoms: C_5  and  N_7
REMARK    5  A    between atoms: N_7  and  C_8
REMARK    6  A    between atoms: C_16  and  C_17
REMARK                            x       y       z     vdW  Elec       q    Type
REMARK                         _______ _______ _______ _____ _____    ______ ____
ROOT
ATOM      1  O   UNL     1       2.303  10.157  17.365  0.00  0.00    +0.000 OA
ATOM      2  C   UNL     1       1.675   9.346  18.043  0.00  0.00    +0.000 C 
ATOM      3  N   UNL     1       2.129   8.035  18.177  0.00  0.00    +0.000 N 
ATOM      4  H   UNL     1       1.661   7.352  18.760  0.00  0.00    +0.000 HD
ENDROOT
BRANCH   2   5
ATOM      5  C   UNL     1       0.548   9.833  18.944  0.00  0.00    +0.000 A 
ATOM      6  C   UNL     1      -0.195  10.762  18.199  0.00  0.00    +0.000 A 
ATOM      7  C   UNL     1      -0.658  11.831  18.909  0.00  0.00    +0.000 A 
ATOM      8  N   UNL     1      -1.410  11.479  19.955  0.00  0.00    +0.000 NA
ATOM      9  C   UNL     1      -0.786  10.654  20.794  0.00  0.00    +0.000 A 
ATOM     10  C   UNL     1      -1.075  10.913  22.127  0.00  0.00    +0.000 A 
ATOM     11  C   UNL     1      -0.392  10.268  23.136  0.00  0.00    +0.000 A 
ATOM     12  C   UNL     1       0.530   9.278  22.800  0.00  0.00    +0.000 A 
ATOM     13  C   UNL     1       0.853   9.020  21.432  0.00  0.00    +0.000 A 
ATOM     14  C   UNL     1       0.254   9.768  20.372  0.00  0.00    +0.000 A 
BRANCH   7  15
ATOM     15  C   UNL     1       0.217  12.963  19.359  0.00  0.00    +0.000 A 
ATOM     16  C   UNL     1       1.441  13.136  18.714  0.00  0.00    +0.000 A 
ATOM     17  C   UNL     1       2.003  14.406  18.624  0.00  0.00    +0.000 A 
ATOM     18  C   UNL     1       1.347  15.469  19.224  0.00  0.00    +0.000 A 
ATOM     19  N   UNL     1       0.245  15.332  19.983  0.00  0.00    +0.000 NA
ATOM     20  C   UNL     1      -0.282  14.085  20.045  0.00  0.00    +0.000 A 
ENDBRANCH   7  15
ENDBRANCH   2   5
BRANCH   3  21
ATOM     21  N   UNL     1       3.441   7.636  17.673  0.00  0.00    +0.000 N 
ATOM     22  H   UNL     1       3.747   8.171  16.864  0.00  0.00    +0.000 HD
BRANCH  21  23
ATOM     23  C   UNL     1       3.796   6.322  17.756  0.00  0.00    +0.000 C 
ATOM     24  S   UNL     1       5.384   5.788  17.523  0.00  0.00    +0.000 S 
BRANCH  23  25
ATOM     25  N   UNL     1       2.899   5.324  17.962  0.00  0.00    +0.000 N 
ATOM     26  H   UNL     1       2.442   5.106  17.081  0.00  0.00    +0.000 HD
BRANCH  25  27
ATOM     27  C   UNL     1       2.364   4.577  19.039  0.00  0.00    +0.000 A 
ATOM     28  C   UNL     1       2.672   4.737  20.382  0.00  0.00    +0.000 A 
ATOM     29  C   UNL     1       2.088   3.893  21.347  0.00  0.00    +0.000 A 
ATOM     30  C   UNL     1       1.183   2.893  20.987  0.00  0.00    +0.000 A 
ATOM     31  C   UNL     1       0.838   2.740  19.648  0.00  0.00    +0.000 A 
ATOM     32  C   UNL     1       1.424   3.578  18.691  0.00  0.00    +0.000 A 
ENDBRANCH  25  27
ENDBRANCH  23  25
ENDBRANCH  21  23
ENDBRANCH   3  21
TORSDOF 6
ENDMDL
MODEL 7
REMARK VINA RESULT:      -8.7      1.732      3.852
REMARK  Name = 
REMARK  6 active torsions:
REMARK  status: ('A' for Active; 'I' for Inactive)
REMARK    1  A    between atoms: C_2  and  C_14
REMARK    2  A    between atoms: N_3  and  N_4
REMARK    3  A    between atoms: N_4  and  C_5
REMARK    4  A    between atoms: C_5  and  N_7
REMARK    5  A    between atoms: N_7  and  C_8
REMARK    6  A    between atoms: C_16  and  C_17
REMARK                            x       y       z     vdW  Elec       q    Type
REMARK                         _______ _______ _______ _____ _____    ______ ____
ROOT
ATOM      1  O   UNL     1       2.327   7.980  19.665  0.00  0.00    +0.000 OA
ATOM      2  C   UNL     1       2.227   7.857  18.445  0.00  0.00    +0.000 C 
ATOM      3  N   UNL     1       1.821   8.934  17.658  0.00  0.00    +0.000 N 
ATOM      4  H   UNL     1       1.767   8.882  16.649  0.00  0.00    +0.000 HD
ENDROOT
BRANCH   2   5
ATOM      5  C   UNL     1       2.788   6.616  17.766  0.00  0.00    +0.000 A 
ATOM      6  C   UNL     1       1.755   5.665  17.739  0.00  0.00    +0.000 A 
ATOM      7  C   UNL     1       2.154   4.377  17.947  0.00  0.00    +0.000 A 
ATOM      8  N   UNL     1       3.082   3.969  17.078  0.00  0.00    +0.000 NA
ATOM      9  C   UNL     1       4.162   4.747  17.063  0.00  0.00    +0.000 A 
ATOM     10  C   UNL     1       5.344   4.035  16.910  0.00  0.00    +0.000 A 
ATOM     11  C   UNL     1       6.567   4.658  17.039  0.00  0.00    +0.000 A 
ATOM     12  C   UNL     1       6.604   6.038  17.231  0.00  0.00    +0.000 A 
ATOM     13  C   UNL     1       5.395   6.778  17.414  0.00  0.00    +0.000 A 
ATOM     14  C   UNL     1       4.120   6.132  17.416  0.00  0.00    +0.000 A 
BRANCH   7  15
ATOM     15  C   UNL     1       2.547   3.843  19.292  0.00  0.00    +0.000 A 
ATOM     16  C   UNL     1       2.453   4.701  20.387  0.00  0.00    +0.000 A 
ATOM     17  C   UNL     1       2.212   4.181  21.655  0.00  0.00    +0.000 A 
ATOM     18  C   UNL     1       2.118   2.806  21.806  0.00  0.00    +0.000 A 
ATOM     19  N   UNL     1       2.349   1.931  20.811  0.00  0.00    +0.000 NA
ATOM     20  C   UNL     1       2.573   2.468  19.588  0.00  0.00    +0.000 A 
ENDBRANCH   7  15
ENDBRANCH   2   5
BRANCH   3  21
ATOM     21  N   UNL     1       1.681  10.273  18.226  0.00  0.00    +0.000 N 
ATOM     22  H   UNL     1       2.568  10.705  18.475  0.00  0.00    +0.000 HD
BRANCH  21  23
ATOM     23  C   UNL     1       0.588  10.539  18.997  0.00  0.00    +0.000 C 
ATOM     24  S   UNL     1       0.673  11.456  20.416  0.00  0.00    +0.000 S 
BRANCH  23  25
ATOM     25  N   UNL     1      -0.645  10.036  18.735  0.00  0.00    +0.000 N 
ATOM     26  H   UNL     1      -0.775   9.186  19.278  0.00  0.00    +0.000 HD
BRANCH  25  27
ATOM     27  C   UNL     1      -1.742  10.294  17.877  0.00  0.00    +0.000 A 
ATOM     28  C   UNL     1      -1.944   9.749  16.618  0.00  0.00    +0.000 A 
ATOM     29  C   UNL     1      -3.067  10.128  15.857  0.00  0.00    +0.000 A 
ATOM     30  C   UNL     1      -4.005  11.039  16.346  0.00  0.00    +0.000 A 
ATOM     31  C   UNL     1      -3.834  11.570  17.620  0.00  0.00    +0.000 A 
ATOM     32  C   UNL     1      -2.714  11.195  18.372  0.00  0.00    +0.000 A 
ENDBRANCH  25  27
ENDBRANCH  23  25
ENDBRANCH  21  23
ENDBRANCH   3  21
TORSDOF 6
ENDMDL
MODEL 8
REMARK VINA RESULT:      -8.6      2.305      9.361
REMARK  Name = 
REMARK  6 active torsions:
REMARK  status: ('A' for Active; 'I' for Inactive)
REMARK    1  A    between atoms: C_2  and  C_14
REMARK    2  A    between atoms: N_3  and  N_4
REMARK    3  A    between atoms: N_4  and  C_5
REMARK    4  A    between atoms: C_5  and  N_7
REMARK    5  A    between atoms: N_7  and  C_8
REMARK    6  A    between atoms: C_16  and  C_17
REMARK                            x       y       z     vdW  Elec       q    Type
REMARK                         _______ _______ _______ _____ _____    ______ ____
ROOT
ATOM      1  O   UNL     1       2.120   9.338  17.271  0.00  0.00    +0.000 OA
ATOM      2  C   UNL     1       1.661   9.197  18.403  0.00  0.00    +0.000 C 
ATOM      3  N   UNL     1       1.968   8.063  19.154  0.00  0.00    +0.000 N 
ATOM      4  H   UNL     1       1.642   7.933  20.103  0.00  0.00    +0.000 HD
ENDROOT
BRANCH   2   5
ATOM      5  C   UNL     1       0.969  10.369  19.085  0.00  0.00    +0.000 A 
ATOM      6  C   UNL     1      -0.234   9.877  19.617  0.00  0.00    +0.000 A 
ATOM      7  C   UNL     1      -1.292  10.735  19.535  0.00  0.00    +0.000 A 
ATOM      8  N   UNL     1      -1.059  11.912  20.121  0.00  0.00    +0.000 NA
ATOM      9  C   UNL     1       0.021  12.529  19.645  0.00  0.00    +0.000 A 
ATOM     10  C   UNL     1      -0.139  13.904  19.541  0.00  0.00    +0.000 A 
ATOM     11  C   UNL     1       0.812  14.680  18.914  0.00  0.00    +0.000 A 
ATOM     12  C   UNL     1       1.987  14.079  18.468  0.00  0.00    +0.000 A 
ATOM     13  C   UNL     1       2.153  12.662  18.547  0.00  0.00    +0.000 A 
ATOM     14  C   UNL     1       1.124  11.820  19.074  0.00  0.00    +0.000 A 
BRANCH   7  15
ATOM     15  C   UNL     1      -2.027  11.019  18.259  0.00  0.00    +0.000 A 
ATOM     16  C   UNL     1      -1.814  10.161  17.181  0.00  0.00    +0.000 A 
ATOM     17  C   UNL     1      -2.820   9.971  16.238  0.00  0.00    +0.000 A 
ATOM     18  C   UNL     1      -4.002  10.683  16.372  0.00  0.00    +0.000 A 
ATOM     19  N   UNL     1      -4.199  11.630  17.306  0.00  0.00    +0.000 NA
ATOM     20  C   UNL     1      -3.205  11.786  18.213  0.00  0.00    +0.000 A 
ENDBRANCH   7  15
ENDBRANCH   2   5
BRANCH   3  21
ATOM     21  N   UNL     1       2.977   7.109  18.699  0.00  0.00    +0.000 N 
ATOM     22  H   UNL     1       3.099   7.094  17.690  0.00  0.00    +0.000 HD
BRANCH  21  23
ATOM     23  C   UNL     1       3.122   5.942  19.390  0.00  0.00    +0.000 C 
ATOM     24  S   UNL     1       1.961   5.376  20.481  0.00  0.00    +0.000 S 
BRANCH  23  25
ATOM     25  N   UNL     1       4.237   5.170  19.316  0.00  0.00    +0.000 N 
ATOM     26  H   UNL     1       4.384   4.719  20.215  0.00  0.00    +0.000 HD
BRANCH  25  27
ATOM     27  C   UNL     1       5.281   4.889  18.401  0.00  0.00    +0.000 A 
ATOM     28  C   UNL     1       6.639   5.046  18.633  0.00  0.00    +0.000 A 
ATOM     29  C   UNL     1       7.567   4.762  17.612  0.00  0.00    +0.000 A 
ATOM     30  C   UNL     1       7.154   4.305  16.359  0.00  0.00    +0.000 A 
ATOM     31  C   UNL     1       5.798   4.111  16.121  0.00  0.00    +0.000 A 
ATOM     32  C   UNL     1       4.877   4.399  17.136  0.00  0.00    +0.000 A 
ENDBRANCH  25  27
ENDBRANCH  23  25
ENDBRANCH  21  23
ENDBRANCH   3  21
TORSDOF 6
ENDMDL
MODEL 9
REMARK VINA RESULT:      -8.6      2.516      4.634
REMARK  Name = 
REMARK  6 active torsions:
REMARK  status: ('A' for Active; 'I' for Inactive)
REMARK    1  A    between atoms: C_2  and  C_14
REMARK    2  A    between atoms: N_3  and  N_4
REMARK    3  A    between atoms: N_4  and  C_5
REMARK    4  A    between atoms: C_5  and  N_7
REMARK    5  A    between atoms: N_7  and  C_8
REMARK    6  A    between atoms: C_16  and  C_17
REMARK                            x       y       z     vdW  Elec       q    Type
REMARK                         _______ _______ _______ _____ _____    ______ ____
ROOT
ATOM      1  O   UNL     1       2.279   8.018  19.563  0.00  0.00    +0.000 OA
ATOM      2  C   UNL     1       2.357   7.917  18.340  0.00  0.00    +0.000 C 
ATOM      3  N   UNL     1       2.017   8.992  17.520  0.00  0.00    +0.000 N 
ATOM      4  H   UNL     1       2.108   8.959  16.512  0.00  0.00    +0.000 HD
ENDROOT
BRANCH   2   5
ATOM      5  C   UNL     1       3.066   6.716  17.728  0.00  0.00    +0.000 A 
ATOM      6  C   UNL     1       2.132   5.667  17.696  0.00  0.00    +0.000 A 
ATOM      7  C   UNL     1       2.646   4.433  17.965  0.00  0.00    +0.000 A 
ATOM      8  N   UNL     1       3.645   4.091  17.148  0.00  0.00    +0.000 NA
ATOM      9  C   UNL     1       4.644   4.971  17.146  0.00  0.00    +0.000 A 
ATOM     10  C   UNL     1       5.895   4.375  17.064  0.00  0.00    +0.000 A 
ATOM     11  C   UNL     1       7.045   5.121  17.217  0.00  0.00    +0.000 A 
ATOM     12  C   UNL     1       6.938   6.503  17.360  0.00  0.00    +0.000 A 
ATOM     13  C   UNL     1       5.656   7.125  17.470  0.00  0.00    +0.000 A 
ATOM     14  C   UNL     1       4.451   6.356  17.446  0.00  0.00    +0.000 A 
BRANCH   7  15
ATOM     15  C   UNL     1       3.034   3.984  19.343  0.00  0.00    +0.000 A 
ATOM     16  C   UNL     1       2.279   4.453  20.417  0.00  0.00    +0.000 A 
ATOM     17  C   UNL     1       2.162   3.682  21.570  0.00  0.00    +0.000 A 
ATOM     18  C   UNL     1       2.843   2.477  21.639  0.00  0.00    +0.000 A 
ATOM     19  N   UNL     1       3.700   2.052  20.694  0.00  0.00    +0.000 NA
ATOM     20  C   UNL     1       3.787   2.819  19.581  0.00  0.00    +0.000 A 
ENDBRANCH   7  15
ENDBRANCH   2   5
BRANCH   3  21
ATOM     21  N   UNL     1       1.737  10.311  18.083  0.00  0.00    +0.000 N 
ATOM     22  H   UNL     1       2.574  10.848  18.299  0.00  0.00    +0.000 HD
BRANCH  21  23
ATOM     23  C   UNL     1       0.646  10.454  18.888  0.00  0.00    +0.000 C 
ATOM     24  S   UNL     1      -0.935  10.477  18.287  0.00  0.00    +0.000 S 
BRANCH  23  25
ATOM     25  N   UNL     1       0.734  10.660  20.227  0.00  0.00    +0.000 N 
ATOM     26  H   UNL     1       1.496  10.098  20.596  0.00  0.00    +0.000 HD
BRANCH  25  27
ATOM     27  C   UNL     1       0.031  11.343  21.249  0.00  0.00    +0.000 A 
ATOM     28  C   UNL     1      -0.778  10.766  22.215  0.00  0.00    +0.000 A 
ATOM     29  C   UNL     1      -1.449  11.577  23.152  0.00  0.00    +0.000 A 
ATOM     30  C   UNL     1      -1.310  12.966  23.144  0.00  0.00    +0.000 A 
ATOM     31  C   UNL     1      -0.477  13.559  22.201  0.00  0.00    +0.000 A 
ATOM     32  C   UNL     1       0.185  12.750  21.269  0.00  0.00    +0.000 A 
ENDBRANCH  25  27
ENDBRANCH  23  25
ENDBRANCH  21  23
ENDBRANCH   3  21
TORSDOF 6
ENDMDL
