MODEL 1
REMARK VINA RESULT:      -8.9      0.000      0.000
REMARK  Name = 
REMARK  2 active torsions:
REMARK  status: ('A' for Active; 'I' for Inactive)
REMARK    1  A    between atoms: C_1  and  N_2
REMARK    2  A    between atoms: C_5  and  C_7
REMARK                            x       y       z     vdW  Elec       q    Type
REMARK                         _______ _______ _______ _____ _____    ______ ____
ROOT
ATOM      1  C   UNL     1       0.984   9.223  20.159  0.00  0.00    +0.000 A 
ATOM      2  C   UNL     1       0.595   8.446  21.252  0.00  0.00    +0.000 A 
ATOM      3  C   UNL     1      -0.135   9.020  22.300  0.00  0.00    +0.000 A 
ATOM      4  C   UNL     1      -0.462  10.388  22.254  0.00  0.00    +0.000 A 
ATOM      5  C   UNL     1      -1.141  11.249  23.143  0.00  0.00    +0.000 A 
ATOM      6  C   UNL     1      -1.111  12.536  22.634  0.00  0.00    +0.000 A 
ATOM      7  N   UNL     1      -0.499  12.463  21.396  0.00  0.00    +0.000 N 
ATOM      8  C   UNL     1      -0.084  11.154  21.153  0.00  0.00    +0.000 A 
ATOM      9  C   UNL     1       0.605  10.576  20.067  0.00  0.00    +0.000 A 
ATOM     10  C   UNL     1      -0.291  13.545  20.447  0.00  0.00    +0.000 C 
ATOM     11  C   UNL     1      -0.170  14.982  20.963  0.00  0.00    +0.000 C 
ATOM     12  C   UNL     1       0.248  15.084  22.415  0.00  0.00    +0.000 C 
ATOM     13  N   UNL     1      -0.903  14.853  23.252  0.00  0.00    +0.000 N 
ATOM     14  C   UNL     1      -1.622  13.694  23.331  0.00  0.00    +0.000 C 
ATOM     15  O   UNL     1      -2.622  13.670  24.045  0.00  0.00    +0.000 OA
ATOM     16  H   UNL     1      -1.294  15.614  23.795  0.00  0.00    +0.000 HD
ENDROOT
BRANCH   1  21
ATOM     17  C   UNL     1       3.343   4.536  19.727  0.00  0.00    +0.000 C 
ATOM     18  N   UNL     1       3.616   5.442  18.637  0.00  0.00    +0.000 N 
ATOM     19  C   UNL     1       3.127   6.717  18.428  0.00  0.00    +0.000 A 
ATOM     20  N   UNL     1       2.239   7.349  19.277  0.00  0.00    +0.000 N 
ATOM     21  C   UNL     1       1.833   8.661  19.069  0.00  0.00    +0.000 C 
ATOM     22  O   UNL     1       2.131   9.406  18.144  0.00  0.00    +0.000 OA
ATOM     23  N   UNL     1       3.645   7.222  17.332  0.00  0.00    +0.000 NA
ATOM     24  C   UNL     1       4.488   6.279  16.823  0.00  0.00    +0.000 A 
ATOM     25  C   UNL     1       5.300   6.333  15.681  0.00  0.00    +0.000 A 
ATOM     26  C   UNL     1       6.089   5.222  15.363  0.00  0.00    +0.000 A 
ATOM     27  C   UNL     1       6.063   4.077  16.161  0.00  0.00    +0.000 A 
ATOM     28  C   UNL     1       5.257   4.006  17.304  0.00  0.00    +0.000 A 
ATOM     29  C   UNL     1       4.487   5.136  17.608  0.00  0.00    +0.000 A 
ATOM     30  H   UNL     1       1.962   6.882  20.125  0.00  0.00    +0.000 HD
ENDBRANCH   1  21
TORSDOF 1
ENDMDL
MODEL 2
REMARK VINA RESULT:      -8.7      2.435      9.412
REMARK  Name = 
REMARK  2 active torsions:
REMARK  status: ('A' for Active; 'I' for Inactive)
REMARK    1  A    between atoms: C_1  and  N_2
REMARK    2  A    between atoms: C_5  and  C_7
REMARK                            x       y       z     vdW  Elec       q    Type
REMARK                         _______ _______ _______ _____ _____    ______ ____
ROOT
ATOM      1  C   UNL     1       2.244   8.163  18.470  0.00  0.00    +0.000 A 
ATOM      2  C   UNL     1       3.302   8.116  17.561  0.00  0.00    +0.000 A 
ATOM      3  C   UNL     1       3.917   6.896  17.258  0.00  0.00    +0.000 A 
ATOM      4  C   UNL     1       3.475   5.717  17.887  0.00  0.00    +0.000 A 
ATOM      5  C   UNL     1       3.895   4.371  17.823  0.00  0.00    +0.000 A 
ATOM      6  C   UNL     1       3.154   3.624  18.722  0.00  0.00    +0.000 A 
ATOM      7  N   UNL     1       2.217   4.478  19.275  0.00  0.00    +0.000 N 
ATOM      8  C   UNL     1       2.408   5.769  18.782  0.00  0.00    +0.000 A 
ATOM      9  C   UNL     1       1.745   6.983  19.055  0.00  0.00    +0.000 A 
ATOM     10  C   UNL     1       1.169   4.145  20.227  0.00  0.00    +0.000 C 
ATOM     11  C   UNL     1       1.371   2.962  21.180  0.00  0.00    +0.000 C 
ATOM     12  C   UNL     1       2.821   2.593  21.407  0.00  0.00    +0.000 C 
ATOM     13  N   UNL     1       3.285   1.805  20.293  0.00  0.00    +0.000 N 
ATOM     14  C   UNL     1       3.385   2.225  18.996  0.00  0.00    +0.000 C 
ATOM     15  O   UNL     1       3.738   1.415  18.141  0.00  0.00    +0.000 OA
ATOM     16  H   UNL     1       3.499   0.824  20.422  0.00  0.00    +0.000 HD
ENDROOT
BRANCH   1  21
ATOM     17  C   UNL     1      -0.285   9.513  22.886  0.00  0.00    +0.000 C 
ATOM     18  N   UNL     1      -0.239  10.552  21.886  0.00  0.00    +0.000 N 
ATOM     19  C   UNL     1       0.375  10.536  20.648  0.00  0.00    +0.000 A 
ATOM     20  N   UNL     1       1.090   9.460  20.159  0.00  0.00    +0.000 N 
ATOM     21  C   UNL     1       1.626   9.458  18.877  0.00  0.00    +0.000 C 
ATOM     22  O   UNL     1       1.598  10.357  18.046  0.00  0.00    +0.000 OA
ATOM     23  N   UNL     1       0.155  11.670  20.023  0.00  0.00    +0.000 NA
ATOM     24  C   UNL     1      -0.616  12.433  20.850  0.00  0.00    +0.000 A 
ATOM     25  C   UNL     1      -1.144  13.715  20.644  0.00  0.00    +0.000 A 
ATOM     26  C   UNL     1      -1.917  14.296  21.655  0.00  0.00    +0.000 A 
ATOM     27  C   UNL     1      -2.154  13.615  22.851  0.00  0.00    +0.000 A 
ATOM     28  C   UNL     1      -1.635  12.334  23.073  0.00  0.00    +0.000 A 
ATOM     29  C   UNL     1      -0.874  11.770  22.040  0.00  0.00    +0.000 A 
ATOM     30  H   UNL     1       1.135   8.616  20.706  0.00  0.00    +0.000 HD
ENDBRANCH   1  21
TORSDOF 1
ENDMDL
MODEL 3
REMARK VINA RESULT:      -8.4      2.451      9.830
REMARK  Name = 
REMARK  2 active torsions:
REMARK  status: ('A' for Active; 'I' for Inactive)
REMARK    1  A    between atoms: C_1  and  N_2
REMARK    2  A    between atoms: C_5  and  C_7
REMARK                            x       y       z     vdW  Elec       q    Type
REMARK                         _______ _______ _______ _____ _____    ______ ____
ROOT
ATOM      1  C   UNL     1       1.595   8.233  19.828  0.00  0.00    +0.000 A 
ATOM      2  C   UNL     1       2.196   8.589  18.620  0.00  0.00    +0.000 A 
ATOM      3  C   UNL     1       2.814   7.615  17.826  0.00  0.00    +0.000 A 
ATOM      4  C   UNL     1       2.840   6.276  18.260  0.00  0.00    +0.000 A 
ATOM      5  C   UNL     1       3.396   5.096  17.720  0.00  0.00    +0.000 A 
ATOM      6  C   UNL     1       3.195   4.055  18.610  0.00  0.00    +0.000 A 
ATOM      7  N   UNL     1       2.441   4.561  19.653  0.00  0.00    +0.000 N 
ATOM      8  C   UNL     1       2.224   5.925  19.459  0.00  0.00    +0.000 A 
ATOM      9  C   UNL     1       1.552   6.887  20.241  0.00  0.00    +0.000 A 
ATOM     10  C   UNL     1       1.921   3.835  20.802  0.00  0.00    +0.000 C 
ATOM     11  C   UNL     1       2.660   2.588  21.297  0.00  0.00    +0.000 C 
ATOM     12  C   UNL     1       4.119   2.534  20.894  0.00  0.00    +0.000 C 
ATOM     13  N   UNL     1       4.212   2.077  19.530  0.00  0.00    +0.000 N 
ATOM     14  C   UNL     1       3.723   2.723  18.429  0.00  0.00    +0.000 C 
ATOM     15  O   UNL     1       3.822   2.175  17.333  0.00  0.00    +0.000 OA
ATOM     16  H   UNL     1       4.603   1.165  19.328  0.00  0.00    +0.000 HD
ENDROOT
BRANCH   1  21
ATOM     17  C   UNL     1      -2.124  11.851  18.938  0.00  0.00    +0.000 C 
ATOM     18  N   UNL     1      -1.545  11.907  20.259  0.00  0.00    +0.000 N 
ATOM     19  C   UNL     1      -0.586  11.084  20.818  0.00  0.00    +0.000 A 
ATOM     20  N   UNL     1      -0.014  10.013  20.161  0.00  0.00    +0.000 N 
ATOM     21  C   UNL     1       1.003   9.259  20.734  0.00  0.00    +0.000 C 
ATOM     22  O   UNL     1       1.492   9.377  21.851  0.00  0.00    +0.000 OA
ATOM     23  N   UNL     1      -0.303  11.488  22.035  0.00  0.00    +0.000 NA
ATOM     24  C   UNL     1      -1.071  12.590  22.274  0.00  0.00    +0.000 A 
ATOM     25  C   UNL     1      -1.128  13.407  23.411  0.00  0.00    +0.000 A 
ATOM     26  C   UNL     1      -2.008  14.495  23.416  0.00  0.00    +0.000 A 
ATOM     27  C   UNL     1      -2.821  14.759  22.312  0.00  0.00    +0.000 A 
ATOM     28  C   UNL     1      -2.778  13.953  21.168  0.00  0.00    +0.000 A 
ATOM     29  C   UNL     1      -1.879  12.877  21.184  0.00  0.00    +0.000 A 
ATOM     30  H   UNL     1      -0.266   9.839  19.202  0.00  0.00    +0.000 HD
ENDBRANCH   1  21
TORSDOF 1
ENDMDL
MODEL 4
REMARK VINA RESULT:      -8.1      2.628      4.572
REMARK  Name = 
REMARK  2 active torsions:
REMARK  status: ('A' for Active; 'I' for Inactive)
REMARK    1  A    between atoms: C_1  and  N_2
REMARK    2  A    between atoms: C_5  and  C_7
REMARK                            x       y       z     vdW  Elec       q    Type
REMARK                         _______ _______ _______ _____ _____    ______ ____
ROOT
ATOM      1  C   UNL     1      -0.530  11.523  22.236  0.00  0.00    +0.000 A 
ATOM      2  C   UNL     1      -0.014  12.669  21.629  0.00  0.00    +0.000 A 
ATOM      3  C   UNL     1      -0.661  13.901  21.786  0.00  0.00    +0.000 A 
ATOM      4  C   UNL     1      -1.843  13.976  22.546  0.00  0.00    +0.000 A 
ATOM      5  C   UNL     1      -2.726  15.033  22.858  0.00  0.00    +0.000 A 
ATOM      6  C   UNL     1      -3.791  14.530  23.585  0.00  0.00    +0.000 A 
ATOM      7  N   UNL     1      -3.529  13.190  23.803  0.00  0.00    +0.000 N 
ATOM      8  C   UNL     1      -2.344  12.831  23.162  0.00  0.00    +0.000 A 
ATOM      9  C   UNL     1      -1.673  11.595  23.056  0.00  0.00    +0.000 A 
ATOM     10  C   UNL     1      -4.326  12.247  24.573  0.00  0.00    +0.000 C 
ATOM     11  C   UNL     1      -5.835  12.476  24.708  0.00  0.00    +0.000 C 
ATOM     12  C   UNL     1      -6.429  13.337  23.614  0.00  0.00    +0.000 C 
ATOM     13  N   UNL     1      -6.168  14.723  23.913  0.00  0.00    +0.000 N 
ATOM     14  C   UNL     1      -4.937  15.312  23.987  0.00  0.00    +0.000 C 
ATOM     15  O   UNL     1      -4.870  16.494  24.318  0.00  0.00    +0.000 OA
ATOM     16  H   UNL     1      -6.931  15.337  24.170  0.00  0.00    +0.000 HD
ENDROOT
BRANCH   1  21
ATOM     17  C   UNL     1       1.970   9.545  18.047  0.00  0.00    +0.000 C 
ATOM     18  N   UNL     1       1.808   8.613  19.137  0.00  0.00    +0.000 N 
ATOM     19  C   UNL     1       1.239   8.824  20.378  0.00  0.00    +0.000 A 
ATOM     20  N   UNL     1       0.720  10.036  20.790  0.00  0.00    +0.000 N 
ATOM     21  C   UNL     1       0.088  10.183  22.019  0.00  0.00    +0.000 C 
ATOM     22  O   UNL     1      -0.063   9.342  22.896  0.00  0.00    +0.000 OA
ATOM     23  N   UNL     1       1.253   7.710  21.074  0.00  0.00    +0.000 NA
ATOM     24  C   UNL     1       1.825   6.758  20.281  0.00  0.00    +0.000 A 
ATOM     25  C   UNL     1       2.053   5.400  20.544  0.00  0.00    +0.000 A 
ATOM     26  C   UNL     1       2.662   4.616  19.558  0.00  0.00    +0.000 A 
ATOM     27  C   UNL     1       3.044   5.176  18.337  0.00  0.00    +0.000 A 
ATOM     28  C   UNL     1       2.825   6.531  18.059  0.00  0.00    +0.000 A 
ATOM     29  C   UNL     1       2.202   7.291  19.058  0.00  0.00    +0.000 A 
ATOM     30  H   UNL     1       0.707  10.806  20.142  0.00  0.00    +0.000 HD
ENDBRANCH   1  21
TORSDOF 1
ENDMDL
MODEL 5
REMARK VINA RESULT:      -8.1      3.014      3.591
REMARK  Name = 
REMARK  2 active torsions:
REMARK  status: ('A' for Active; 'I' for Inactive)
REMARK    1  A    between atoms: C_1  and  N_2
REMARK    2  A    between atoms: C_5  and  C_7
REMARK                            x       y       z     vdW  Elec       q    Type
REMARK                         _______ _______ _______ _____ _____    ______ ____
ROOT
ATOM      1  C   UNL     1       0.460  10.562  18.949  0.00  0.00    +0.000 A 
ATOM      2  C   UNL     1       0.816  11.549  19.870  0.00  0.00    +0.000 A 
ATOM      3  C   UNL     1      -0.162  12.387  20.418  0.00  0.00    +0.000 A 
ATOM      4  C   UNL     1      -1.505  12.241  20.025  0.00  0.00    +0.000 A 
ATOM      5  C   UNL     1      -2.691  12.929  20.359  0.00  0.00    +0.000 A 
ATOM      6  C   UNL     1      -3.737  12.417  19.611  0.00  0.00    +0.000 A 
ATOM      7  N   UNL     1      -3.226  11.357  18.884  0.00  0.00    +0.000 N 
ATOM      8  C   UNL     1      -1.856  11.243  19.117  0.00  0.00    +0.000 A 
ATOM      9  C   UNL     1      -0.888  10.358  18.599  0.00  0.00    +0.000 A 
ATOM     10  C   UNL     1      -3.952  10.462  17.997  0.00  0.00    +0.000 C 
ATOM     11  C   UNL     1      -5.220  10.965  17.298  0.00  0.00    +0.000 C 
ATOM     12  C   UNL     1      -5.301  12.472  17.175  0.00  0.00    +0.000 C 
ATOM     13  N   UNL     1      -5.745  13.022  18.431  0.00  0.00    +0.000 N 
ATOM     14  C   UNL     1      -5.078  12.953  19.621  0.00  0.00    +0.000 C 
ATOM     15  O   UNL     1      -5.617  13.416  20.625  0.00  0.00    +0.000 OA
ATOM     16  H   UNL     1      -6.663  13.444  18.501  0.00  0.00    +0.000 HD
ENDROOT
BRANCH   1  21
ATOM     17  C   UNL     1       2.168   5.720  20.112  0.00  0.00    +0.000 C 
ATOM     18  N   UNL     1       2.854   6.342  19.005  0.00  0.00    +0.000 N 
ATOM     19  C   UNL     1       2.625   7.577  18.429  0.00  0.00    +0.000 A 
ATOM     20  N   UNL     1       1.635   8.447  18.843  0.00  0.00    +0.000 N 
ATOM     21  C   UNL     1       1.490   9.711  18.285  0.00  0.00    +0.000 C 
ATOM     22  O   UNL     1       2.132  10.211  17.370  0.00  0.00    +0.000 OA
ATOM     23  N   UNL     1       3.490   7.789  17.464  0.00  0.00    +0.000 NA
ATOM     24  C   UNL     1       4.299   6.693  17.412  0.00  0.00    +0.000 A 
ATOM     25  C   UNL     1       5.394   6.433  16.575  0.00  0.00    +0.000 A 
ATOM     26  C   UNL     1       6.076   5.220  16.716  0.00  0.00    +0.000 A 
ATOM     27  C   UNL     1       5.672   4.281  17.668  0.00  0.00    +0.000 A 
ATOM     28  C   UNL     1       4.581   4.524  18.511  0.00  0.00    +0.000 A 
ATOM     29  C   UNL     1       3.922   5.752  18.358  0.00  0.00    +0.000 A 
ATOM     30  H   UNL     1       1.072   8.200  19.641  0.00  0.00    +0.000 HD
ENDBRANCH   1  21
TORSDOF 1
ENDMDL
MODEL 6
REMARK VINA RESULT:      -8.0      2.789      4.003
REMARK  Name = 
REMARK  2 active torsions:
REMARK  status: ('A' for Active; 'I' for Inactive)
REMARK    1  A    between atoms: C_1  and  N_2
REMARK    2  A    between atoms: C_5  and  C_7
REMARK                            x       y       z     vdW  Elec       q    Type
REMARK                         _______ _______ _______ _____ _____    ______ ____
ROOT
ATOM      1  C   UNL     1       0.485  10.216  19.704  0.00  0.00    +0.000 A 
ATOM      2  C   UNL     1      -0.688  10.437  18.980  0.00  0.00    +0.000 A 
ATOM      3  C   UNL     1      -1.022  11.728  18.558  0.00  0.00    +0.000 A 
ATOM      4  C   UNL     1      -0.177  12.808  18.879  0.00  0.00    +0.000 A 
ATOM      5  C   UNL     1      -0.247  14.196  18.635  0.00  0.00    +0.000 A 
ATOM      6  C   UNL     1       0.825  14.817  19.251  0.00  0.00    +0.000 A 
ATOM      7  N   UNL     1       1.607  13.816  19.798  0.00  0.00    +0.000 N 
ATOM      8  C   UNL     1       1.000  12.577  19.589  0.00  0.00    +0.000 A 
ATOM      9  C   UNL     1       1.375  11.274  19.974  0.00  0.00    +0.000 A 
ATOM     10  C   UNL     1       2.876  13.964  20.494  0.00  0.00    +0.000 C 
ATOM     11  C   UNL     1       3.177  15.273  21.232  0.00  0.00    +0.000 C 
ATOM     12  C   UNL     1       1.944  16.065  21.613  0.00  0.00    +0.000 C 
ATOM     13  N   UNL     1       1.479  16.794  20.459  0.00  0.00    +0.000 N 
ATOM     14  C   UNL     1       1.016  16.248  19.295  0.00  0.00    +0.000 C 
ATOM     15  O   UNL     1       0.715  17.002  18.371  0.00  0.00    +0.000 OA
ATOM     16  H   UNL     1       1.552  17.804  20.436  0.00  0.00    +0.000 HD
ENDROOT
BRANCH   1  21
ATOM     17  C   UNL     1       3.847   6.573  17.929  0.00  0.00    +0.000 C 
ATOM     18  N   UNL     1       3.091   6.169  19.090  0.00  0.00    +0.000 N 
ATOM     19  C   UNL     1       2.166   6.895  19.817  0.00  0.00    +0.000 A 
ATOM     20  N   UNL     1       1.816   8.200  19.530  0.00  0.00    +0.000 N 
ATOM     21  C   UNL     1       0.825   8.866  20.240  0.00  0.00    +0.000 C 
ATOM     22  O   UNL     1       0.179   8.458  21.197  0.00  0.00    +0.000 OA
ATOM     23  N   UNL     1       1.675   6.155  20.785  0.00  0.00    +0.000 NA
ATOM     24  C   UNL     1       2.272   4.932  20.687  0.00  0.00    +0.000 A 
ATOM     25  C   UNL     1       2.078   3.782  21.465  0.00  0.00    +0.000 A 
ATOM     26  C   UNL     1       2.817   2.633  21.165  0.00  0.00    +0.000 A 
ATOM     27  C   UNL     1       3.737   2.632  20.114  0.00  0.00    +0.000 A 
ATOM     28  C   UNL     1       3.943   3.771  19.327  0.00  0.00    +0.000 A 
ATOM     29  C   UNL     1       3.181   4.905  19.641  0.00  0.00    +0.000 A 
ATOM     30  H   UNL     1       2.215   8.644  18.719  0.00  0.00    +0.000 HD
ENDBRANCH   1  21
TORSDOF 1
ENDMDL
MODEL 7
REMARK VINA RESULT:      -8.0      2.825      4.190
REMARK  Name = 
REMARK  2 active torsions:
REMARK  status: ('A' for Active; 'I' for Inactive)
REMARK    1  A    between atoms: C_1  and  N_2
REMARK    2  A    between atoms: C_5  and  C_7
REMARK                            x       y       z     vdW  Elec       q    Type
REMARK                         _______ _______ _______ _____ _____    ______ ____
ROOT
ATOM      1  C   UNL     1       0.268  10.454  20.395  0.00  0.00    +0.000 A 
ATOM      2  C   UNL     1      -0.975  10.962  20.778  0.00  0.00    +0.000 A 
ATOM      3  C   UNL     1      -1.302  12.297  20.512  0.00  0.00    +0.000 A 
ATOM      4  C   UNL     1      -0.366  13.130  19.871  0.00  0.00    +0.000 A 
ATOM      5  C   UNL     1      -0.379  14.492  19.501  0.00  0.00    +0.000 A 
ATOM      6  C   UNL     1       0.853  14.825  18.963  0.00  0.00    +0.000 A 
ATOM      7  N   UNL     1       1.595  13.659  18.914  0.00  0.00    +0.000 N 
ATOM      8  C   UNL     1       0.866  12.612  19.478  0.00  0.00    +0.000 A 
ATOM      9  C   UNL     1       1.188  11.256  19.692  0.00  0.00    +0.000 A 
ATOM     10  C   UNL     1       2.934  13.485  18.371  0.00  0.00    +0.000 C 
ATOM     11  C   UNL     1       3.897  14.676  18.356  0.00  0.00    +0.000 C 
ATOM     12  C   UNL     1       3.566  15.751  19.370  0.00  0.00    +0.000 C 
ATOM     13  N   UNL     1       2.503  16.574  18.850  0.00  0.00    +0.000 N 
ATOM     14  C   UNL     1       1.230  16.162  18.571  0.00  0.00    +0.000 C 
ATOM     15  O   UNL     1       0.449  16.969  18.069  0.00  0.00    +0.000 OA
ATOM     16  H   UNL     1       2.690  17.533  18.586  0.00  0.00    +0.000 HD
ENDROOT
BRANCH   1  21
ATOM     17  C   UNL     1       3.455   7.103  17.880  0.00  0.00    +0.000 C 
ATOM     18  N   UNL     1       2.833   6.557  19.063  0.00  0.00    +0.000 N 
ATOM     19  C   UNL     1       1.985   7.179  19.960  0.00  0.00    +0.000 A 
ATOM     20  N   UNL     1       1.593   8.499  19.858  0.00  0.00    +0.000 N 
ATOM     21  C   UNL     1       0.677   9.062  20.739  0.00  0.00    +0.000 C 
ATOM     22  O   UNL     1       0.142   8.538  21.708  0.00  0.00    +0.000 OA
ATOM     23  N   UNL     1       1.609   6.327  20.886  0.00  0.00    +0.000 NA
ATOM     24  C   UNL     1       2.204   5.136  20.590  0.00  0.00    +0.000 A 
ATOM     25  C   UNL     1       2.107   3.903  21.252  0.00  0.00    +0.000 A 
ATOM     26  C   UNL     1       2.821   2.811  20.749  0.00  0.00    +0.000 A 
ATOM     27  C   UNL     1       3.622   2.944  19.613  0.00  0.00    +0.000 A 
ATOM     28  C   UNL     1       3.730   4.168  18.940  0.00  0.00    +0.000 A 
ATOM     29  C   UNL     1       2.995   5.243  19.457  0.00  0.00    +0.000 A 
ATOM     30  H   UNL     1       1.897   9.038  19.064  0.00  0.00    +0.000 HD
ENDBRANCH   1  21
TORSDOF 1
ENDMDL
MODEL 8
REMARK VINA RESULT:      -7.9      2.024      3.455
REMARK  Name = 
REMARK  2 active torsions:
REMARK  status: ('A' for Active; 'I' for Inactive)
REMARK    1  A    between atoms: C_1  and  N_2
REMARK    2  A    between atoms: C_5  and  C_7
REMARK                            x       y       z     vdW  Elec       q    Type
REMARK                         _______ _______ _______ _____ _____    ______ ____
ROOT
ATOM      1  C   UNL     1       0.445   9.975  20.435  0.00  0.00    +0.000 A 
ATOM      2  C   UNL     1       0.795  10.681  19.283  0.00  0.00    +0.000 A 
ATOM      3  C   UNL     1       0.270  11.958  19.053  0.00  0.00    +0.000 A 
ATOM      4  C   UNL     1      -0.626  12.522  19.981  0.00  0.00    +0.000 A 
ATOM      5  C   UNL     1      -1.335  13.741  20.021  0.00  0.00    +0.000 A 
ATOM      6  C   UNL     1      -2.150  13.752  21.140  0.00  0.00    +0.000 A 
ATOM      7  N   UNL     1      -1.883  12.589  21.840  0.00  0.00    +0.000 N 
ATOM      8  C   UNL     1      -0.959  11.818  21.136  0.00  0.00    +0.000 A 
ATOM      9  C   UNL     1      -0.396  10.554  21.406  0.00  0.00    +0.000 A 
ATOM     10  C   UNL     1      -2.445  12.177  23.117  0.00  0.00    +0.000 C 
ATOM     11  C   UNL     1      -3.834  12.680  23.522  0.00  0.00    +0.000 C 
ATOM     12  C   UNL     1      -4.698  13.112  22.357  0.00  0.00    +0.000 C 
ATOM     13  N   UNL     1      -4.310  14.440  21.951  0.00  0.00    +0.000 N 
ATOM     14  C   UNL     1      -3.093  14.802  21.444  0.00  0.00    +0.000 C 
ATOM     15  O   UNL     1      -2.888  15.991  21.203  0.00  0.00    +0.000 OA
ATOM     16  H   UNL     1      -4.938  15.219  22.103  0.00  0.00    +0.000 HD
ENDROOT
BRANCH   1  21
ATOM     17  C   UNL     1       3.777   6.989  17.661  0.00  0.00    +0.000 C 
ATOM     18  N   UNL     1       3.186   6.322  18.797  0.00  0.00    +0.000 N 
ATOM     19  C   UNL     1       2.312   6.829  19.740  0.00  0.00    +0.000 A 
ATOM     20  N   UNL     1       1.858   8.134  19.744  0.00  0.00    +0.000 N 
ATOM     21  C   UNL     1       0.920   8.581  20.667  0.00  0.00    +0.000 C 
ATOM     22  O   UNL     1       0.414   7.956  21.590  0.00  0.00    +0.000 OA
ATOM     23  N   UNL     1       1.980   5.890  20.595  0.00  0.00    +0.000 NA
ATOM     24  C   UNL     1       2.629   4.755  20.206  0.00  0.00    +0.000 A 
ATOM     25  C   UNL     1       2.593   3.471  20.767  0.00  0.00    +0.000 A 
ATOM     26  C   UNL     1       3.356   2.457  20.179  0.00  0.00    +0.000 A 
ATOM     27  C   UNL     1       4.146   2.718  19.057  0.00  0.00    +0.000 A 
ATOM     28  C   UNL     1       4.194   3.995  18.484  0.00  0.00    +0.000 A 
ATOM     29  C   UNL     1       3.411   4.990  19.085  0.00  0.00    +0.000 A 
ATOM     30  H   UNL     1       2.134   8.748  18.995  0.00  0.00    +0.000 HD
ENDBRANCH   1  21
TORSDOF 1
ENDMDL
MODEL 9
REMARK VINA RESULT:      -7.7      2.115      3.598
REMARK  Name = 
REMARK  2 active torsions:
REMARK  status: ('A' for Active; 'I' for Inactive)
REMARK    1  A    between atoms: C_1  and  N_2
REMARK    2  A    between atoms: C_5  and  C_7
REMARK                            x       y       z     vdW  Elec       q    Type
REMARK                         _______ _______ _______ _____ _____    ______ ____
ROOT
ATOM      1  C   UNL     1       0.593  10.225  20.276  0.00  0.00    +0.000 A 
ATOM      2  C   UNL     1       0.729  10.654  18.955  0.00  0.00    +0.000 A 
ATOM      3  C   UNL     1       0.348  11.952  18.593  0.00  0.00    +0.000 A 
ATOM      4  C   UNL     1      -0.188  12.818  19.564  0.00  0.00    +0.000 A 
ATOM      5  C   UNL     1      -0.682  14.139  19.514  0.00  0.00    +0.000 A 
ATOM      6  C   UNL     1      -1.169  14.486  20.762  0.00  0.00    +0.000 A 
ATOM      7  N   UNL     1      -0.897  13.425  21.606  0.00  0.00    +0.000 N 
ATOM      8  C   UNL     1      -0.306  12.388  20.884  0.00  0.00    +0.000 A 
ATOM      9  C   UNL     1       0.123  11.103  21.273  0.00  0.00    +0.000 A 
ATOM     10  C   UNL     1      -1.161  13.341  23.034  0.00  0.00    +0.000 C 
ATOM     11  C   UNL     1      -2.312  14.155  23.633  0.00  0.00    +0.000 C 
ATOM     12  C   UNL     1      -3.379  14.545  22.632  0.00  0.00    +0.000 C 
ATOM     13  N   UNL     1      -2.925  15.691  21.884  0.00  0.00    +0.000 N 
ATOM     14  C   UNL     1      -1.843  15.730  21.051  0.00  0.00    +0.000 C 
ATOM     15  O   UNL     1      -1.541  16.803  20.530  0.00  0.00    +0.000 OA
ATOM     16  H   UNL     1      -3.375  16.588  22.013  0.00  0.00    +0.000 HD
ENDROOT
BRANCH   1  21
ATOM     17  C   UNL     1       3.702   6.638  17.999  0.00  0.00    +0.000 C 
ATOM     18  N   UNL     1       2.999   6.161  19.165  0.00  0.00    +0.000 N 
ATOM     19  C   UNL     1       2.147   6.852  20.006  0.00  0.00    +0.000 A 
ATOM     20  N   UNL     1       1.832   8.188  19.852  0.00  0.00    +0.000 N 
ATOM     21  C   UNL     1       0.910   8.824  20.675  0.00  0.00    +0.000 C 
ATOM     22  O   UNL     1       0.304   8.357  21.631  0.00  0.00    +0.000 OA
ATOM     23  N   UNL     1       1.684   6.048  20.935  0.00  0.00    +0.000 NA
ATOM     24  C   UNL     1       2.226   4.819  20.699  0.00  0.00    +0.000 A 
ATOM     25  C   UNL     1       2.032   3.613  21.388  0.00  0.00    +0.000 A 
ATOM     26  C   UNL     1       2.708   2.470  20.947  0.00  0.00    +0.000 A 
ATOM     27  C   UNL     1       3.564   2.528  19.846  0.00  0.00    +0.000 A 
ATOM     28  C   UNL     1       3.769   3.724  19.147  0.00  0.00    +0.000 A 
ATOM     29  C   UNL     1       3.071   4.852  19.601  0.00  0.00    +0.000 A 
ATOM     30  H   UNL     1       2.200   8.687  19.058  0.00  0.00    +0.000 HD
ENDBRANCH   1  21
TORSDOF 1
ENDMDL
