MODEL 1
REMARK VINA RESULT:      -8.9      0.000      0.000
REMARK  Name = 
REMARK  10 active torsions:
REMARK  status: ('A' for Active; 'I' for Inactive)
REMARK    1  A    between atoms: C_1  and  C_2
REMARK    2  A    between atoms: C_5  and  S_6
REMARK    3  A    between atoms: S_6  and  C_9
REMARK    4  A    between atoms: C_9  and  C_10
REMARK    5  A    between atoms: N_12  and  C_13
REMARK    6  A    between atoms: C_16  and  S_17
REMARK    7  A    between atoms: S_17  and  N_20
REMARK    8  A    between atoms: N_20  and  C_21
REMARK    9  A    between atoms: C_24  and  C_25
REMARK   10  A    between atoms: C_26  and  C_27
REMARK                            x       y       z     vdW  Elec       q    Type
REMARK                         _______ _______ _______ _____ _____    ______ ____
ROOT
ATOM      1  C   UNL     1       1.983   6.866  20.271  0.00  0.00    +0.000 A 
ATOM      2  C   UNL     1       2.306   6.894  18.912  0.00  0.00    +0.000 A 
ATOM      3  C   UNL     1       2.467   5.715  18.189  0.00  0.00    +0.000 A 
ATOM      4  C   UNL     1       2.318   4.487  18.829  0.00  0.00    +0.000 A 
ATOM      5  C   UNL     1       1.971   4.430  20.181  0.00  0.00    +0.000 A 
ATOM      6  C   UNL     1       1.821   5.621  20.907  0.00  0.00    +0.000 A 
ENDROOT
BRANCH   1   9
ATOM      7  C   UNL     1       0.655   8.568  21.510  0.00  0.00    +0.000 C 
ATOM      8  O   UNL     1      -0.437   8.001  21.493  0.00  0.00    +0.000 OA
ATOM      9  N   UNL     1       1.847   8.042  21.040  0.00  0.00    +0.000 N 
ATOM     10  H   UNL     1       2.707   8.561  21.215  0.00  0.00    +0.000 HD
BRANCH   7  11
ATOM     11  C   UNL     1       0.757   9.904  22.176  0.00  0.00    +0.000 C 
BRANCH  11  12
ATOM     12  S   UNL     1       0.381  11.204  21.060  0.00  0.00    +0.000 S 
ATOM     13  O   UNL     1       0.359  10.629  19.722  0.00  0.00    +0.000 OA
ATOM     14  O   UNL     1       1.281  12.301  21.355  0.00  0.00    +0.000 OA
BRANCH  12  19
ATOM     15  C   UNL     1      -5.119  13.333  22.513  0.00  0.00    +0.000 C 
ATOM     16  C   UNL     1      -3.771  12.778  22.151  0.00  0.00    +0.000 A 
ATOM     17  C   UNL     1      -2.937  12.225  23.130  0.00  0.00    +0.000 A 
ATOM     18  C   UNL     1      -1.678  11.727  22.790  0.00  0.00    +0.000 A 
ATOM     19  C   UNL     1      -1.253  11.770  21.459  0.00  0.00    +0.000 A 
ATOM     20  C   UNL     1      -2.071  12.320  20.471  0.00  0.00    +0.000 A 
ATOM     21  C   UNL     1      -3.328  12.822  20.820  0.00  0.00    +0.000 A 
ENDBRANCH  12  19
ENDBRANCH  11  12
ENDBRANCH   7  11
ENDBRANCH   1   9
BRANCH   4  22
ATOM     22  S   UNL     1       2.508   3.016  17.865  0.00  0.00    +0.000 S 
ATOM     23  O   UNL     1       1.715   1.973  18.487  0.00  0.00    +0.000 OA
ATOM     24  O   UNL     1       2.321   3.339  16.470  0.00  0.00    +0.000 OA
BRANCH  22  25
ATOM     25  N   UNL     1       4.120   2.573  18.150  0.00  0.00    +0.000 N 
ATOM     26  H   UNL     1       4.387   1.956  17.385  0.00  0.00    +0.000 HD
BRANCH  25  27
ATOM     27  C   UNL     1       4.980   3.679  18.375  0.00  0.00    +0.000 A 
ATOM     28  O   UNL     1       5.351   4.110  19.610  0.00  0.00    +0.000 OA
ATOM     29  N   UNL     1       6.269   5.138  19.487  0.00  0.00    +0.000 NA
ATOM     30  C   UNL     1       6.416   5.338  18.173  0.00  0.00    +0.000 A 
ATOM     31  C   UNL     1       7.316   6.407  17.677  0.00  0.00    +0.000 C 
ATOM     32  C   UNL     1       5.614   4.437  17.414  0.00  0.00    +0.000 A 
ATOM     33  C   UNL     1       5.448   4.382  15.945  0.00  0.00    +0.000 C 
ENDBRANCH  25  27
ENDBRANCH  22  25
ENDBRANCH   4  22
TORSDOF 7
ENDMDL
MODEL 2
REMARK VINA RESULT:      -8.8      1.345      2.099
REMARK  Name = 
REMARK  10 active torsions:
REMARK  status: ('A' for Active; 'I' for Inactive)
REMARK    1  A    between atoms: C_1  and  C_2
REMARK    2  A    between atoms: C_5  and  S_6
REMARK    3  A    between atoms: S_6  and  C_9
REMARK    4  A    between atoms: C_9  and  C_10
REMARK    5  A    between atoms: N_12  and  C_13
REMARK    6  A    between atoms: C_16  and  S_17
REMARK    7  A    between atoms: S_17  and  N_20
REMARK    8  A    between atoms: N_20  and  C_21
REMARK    9  A    between atoms: C_24  and  C_25
REMARK   10  A    between atoms: C_26  and  C_27
REMARK                            x       y       z     vdW  Elec       q    Type
REMARK                         _______ _______ _______ _____ _____    ______ ____
ROOT
ATOM      1  C   UNL     1       2.002   6.966  20.099  0.00  0.00    +0.000 A 
ATOM      2  C   UNL     1       1.851   5.781  20.825  0.00  0.00    +0.000 A 
ATOM      3  C   UNL     1       2.011   4.541  20.213  0.00  0.00    +0.000 A 
ATOM      4  C   UNL     1       2.313   4.474  18.855  0.00  0.00    +0.000 A 
ATOM      5  C   UNL     1       2.494   5.643  18.113  0.00  0.00    +0.000 A 
ATOM      6  C   UNL     1       2.320   6.889  18.731  0.00  0.00    +0.000 A 
ENDROOT
BRANCH   1   9
ATOM      7  C   UNL     1       0.606   8.753  21.124  0.00  0.00    +0.000 C 
ATOM      8  O   UNL     1      -0.443   8.121  21.250  0.00  0.00    +0.000 OA
ATOM      9  N   UNL     1       1.813   8.237  20.682  0.00  0.00    +0.000 N 
ATOM     10  H   UNL     1       2.639   8.833  20.730  0.00  0.00    +0.000 HD
BRANCH   7  11
ATOM     11  C   UNL     1       0.637  10.181  21.568  0.00  0.00    +0.000 C 
BRANCH  11  12
ATOM     12  S   UNL     1       0.754  11.273  20.199  0.00  0.00    +0.000 S 
ATOM     13  O   UNL     1       1.714  10.696  19.269  0.00  0.00    +0.000 OA
ATOM     14  O   UNL     1       0.976  12.605  20.727  0.00  0.00    +0.000 OA
BRANCH  12  19
ATOM     15  C   UNL     1      -4.758  11.164  17.650  0.00  0.00    +0.000 C 
ATOM     16  C   UNL     1      -3.385  11.211  18.259  0.00  0.00    +0.000 A 
ATOM     17  C   UNL     1      -2.361  10.385  17.782  0.00  0.00    +0.000 A 
ATOM     18  C   UNL     1      -1.093  10.421  18.364  0.00  0.00    +0.000 A 
ATOM     19  C   UNL     1      -0.842  11.298  19.422  0.00  0.00    +0.000 A 
ATOM     20  C   UNL     1      -1.852  12.127  19.911  0.00  0.00    +0.000 A 
ATOM     21  C   UNL     1      -3.121  12.082  19.327  0.00  0.00    +0.000 A 
ENDBRANCH  12  19
ENDBRANCH  11  12
ENDBRANCH   7  11
ENDBRANCH   1   9
BRANCH   4  22
ATOM     22  S   UNL     1       2.531   2.877  18.127  0.00  0.00    +0.000 S 
ATOM     23  O   UNL     1       1.754   1.928  18.902  0.00  0.00    +0.000 OA
ATOM     24  O   UNL     1       2.343   2.979  16.699  0.00  0.00    +0.000 OA
BRANCH  22  25
ATOM     25  N   UNL     1       4.150   2.511  18.478  0.00  0.00    +0.000 N 
ATOM     26  H   UNL     1       4.438   1.807  17.801  0.00  0.00    +0.000 HD
BRANCH  25  27
ATOM     27  C   UNL     1       4.983   3.656  18.567  0.00  0.00    +0.000 A 
ATOM     28  O   UNL     1       5.352   4.234  19.741  0.00  0.00    +0.000 OA
ATOM     29  N   UNL     1       6.243   5.263  19.492  0.00  0.00    +0.000 NA
ATOM     30  C   UNL     1       6.375   5.315  18.162  0.00  0.00    +0.000 A 
ATOM     31  C   UNL     1       7.244   6.342  17.538  0.00  0.00    +0.000 C 
ATOM     32  C   UNL     1       5.591   4.314  17.520  0.00  0.00    +0.000 A 
ATOM     33  C   UNL     1       5.416   4.087  16.068  0.00  0.00    +0.000 C 
ENDBRANCH  25  27
ENDBRANCH  22  25
ENDBRANCH   4  22
TORSDOF 7
ENDMDL
MODEL 3
REMARK VINA RESULT:      -8.8      0.170      1.239
REMARK  Name = 
REMARK  10 active torsions:
REMARK  status: ('A' for Active; 'I' for Inactive)
REMARK    1  A    between atoms: C_1  and  C_2
REMARK    2  A    between atoms: C_5  and  S_6
REMARK    3  A    between atoms: S_6  and  C_9
REMARK    4  A    between atoms: C_9  and  C_10
REMARK    5  A    between atoms: N_12  and  C_13
REMARK    6  A    between atoms: C_16  and  S_17
REMARK    7  A    between atoms: S_17  and  N_20
REMARK    8  A    between atoms: N_20  and  C_21
REMARK    9  A    between atoms: C_24  and  C_25
REMARK   10  A    between atoms: C_26  and  C_27
REMARK                            x       y       z     vdW  Elec       q    Type
REMARK                         _______ _______ _______ _____ _____    ______ ____
ROOT
ATOM      1  C   UNL     1       2.008   6.820  20.411  0.00  0.00    +0.000 A 
ATOM      2  C   UNL     1       1.780   5.551  20.950  0.00  0.00    +0.000 A 
ATOM      3  C   UNL     1       1.927   4.405  20.173  0.00  0.00    +0.000 A 
ATOM      4  C   UNL     1       2.294   4.521  18.835  0.00  0.00    +0.000 A 
ATOM      5  C   UNL     1       2.552   5.776  18.277  0.00  0.00    +0.000 A 
ATOM      6  C   UNL     1       2.391   6.927  19.062  0.00  0.00    +0.000 A 
ENDROOT
BRANCH   1   9
ATOM      7  C   UNL     1       0.622   8.511  21.601  0.00  0.00    +0.000 C 
ATOM      8  O   UNL     1      -0.459   7.923  21.567  0.00  0.00    +0.000 OA
ATOM      9  N   UNL     1       1.833   8.002  21.162  0.00  0.00    +0.000 N 
ATOM     10  H   UNL     1       2.679   8.541  21.348  0.00  0.00    +0.000 HD
BRANCH   7  11
ATOM     11  C   UNL     1       0.684   9.856  22.252  0.00  0.00    +0.000 C 
BRANCH  11  12
ATOM     12  S   UNL     1       0.265  11.132  21.123  0.00  0.00    +0.000 S 
ATOM     13  O   UNL     1       0.082  10.510  19.820  0.00  0.00    +0.000 OA
ATOM     14  O   UNL     1       1.244  12.189  21.284  0.00  0.00    +0.000 OA
BRANCH  12  19
ATOM     15  C   UNL     1      -5.165  13.239  22.847  0.00  0.00    +0.000 C 
ATOM     16  C   UNL     1      -3.810  12.746  22.426  0.00  0.00    +0.000 A 
ATOM     17  C   UNL     1      -3.379  12.880  21.100  0.00  0.00    +0.000 A 
ATOM     18  C   UNL     1      -2.126  12.405  20.711  0.00  0.00    +0.000 A 
ATOM     19  C   UNL     1      -1.291  11.801  21.655  0.00  0.00    +0.000 A 
ATOM     20  C   UNL     1      -1.706  11.656  22.979  0.00  0.00    +0.000 A 
ATOM     21  C   UNL     1      -2.965  12.130  23.361  0.00  0.00    +0.000 A 
ENDBRANCH  12  19
ENDBRANCH  11  12
ENDBRANCH   7  11
ENDBRANCH   1   9
BRANCH   4  22
ATOM     22  S   UNL     1       2.493   3.036  17.894  0.00  0.00    +0.000 S 
ATOM     23  O   UNL     1       1.716   1.996  18.539  0.00  0.00    +0.000 OA
ATOM     24  O   UNL     1       2.293   3.334  16.495  0.00  0.00    +0.000 OA
BRANCH  22  25
ATOM     25  N   UNL     1       4.112   2.616  18.175  0.00  0.00    +0.000 N 
ATOM     26  H   UNL     1       4.391   2.016  17.400  0.00  0.00    +0.000 HD
BRANCH  25  27
ATOM     27  C   UNL     1       4.953   3.732  18.422  0.00  0.00    +0.000 A 
ATOM     28  O   UNL     1       5.332   4.133  19.664  0.00  0.00    +0.000 OA
ATOM     29  N   UNL     1       6.228   5.182  19.561  0.00  0.00    +0.000 NA
ATOM     30  C   UNL     1       6.353   5.424  18.251  0.00  0.00    +0.000 A 
ATOM     31  C   UNL     1       7.224   6.525  17.776  0.00  0.00    +0.000 C 
ATOM     32  C   UNL     1       5.559   4.530  17.477  0.00  0.00    +0.000 A 
ATOM     33  C   UNL     1       5.375   4.515  16.009  0.00  0.00    +0.000 C 
ENDBRANCH  25  27
ENDBRANCH  22  25
ENDBRANCH   4  22
TORSDOF 7
ENDMDL
MODEL 4
REMARK VINA RESULT:      -8.5      2.065      9.547
REMARK  Name = 
REMARK  10 active torsions:
REMARK  status: ('A' for Active; 'I' for Inactive)
REMARK    1  A    between atoms: C_1  and  C_2
REMARK    2  A    between atoms: C_5  and  S_6
REMARK    3  A    between atoms: S_6  and  C_9
REMARK    4  A    between atoms: C_9  and  C_10
REMARK    5  A    between atoms: N_12  and  C_13
REMARK    6  A    between atoms: C_16  and  S_17
REMARK    7  A    between atoms: S_17  and  N_20
REMARK    8  A    between atoms: N_20  and  C_21
REMARK    9  A    between atoms: C_24  and  C_25
REMARK   10  A    between atoms: C_26  and  C_27
REMARK                            x       y       z     vdW  Elec       q    Type
REMARK                         _______ _______ _______ _____ _____    ______ ____
ROOT
ATOM      1  C   UNL     1       2.182   6.845  20.063  0.00  0.00    +0.000 A 
ATOM      2  C   UNL     1       2.404   7.543  18.873  0.00  0.00    +0.000 A 
ATOM      3  C   UNL     1       1.865   8.811  18.675  0.00  0.00    +0.000 A 
ATOM      4  C   UNL     1       1.081   9.391  19.670  0.00  0.00    +0.000 A 
ATOM      5  C   UNL     1       0.865   8.726  20.878  0.00  0.00    +0.000 A 
ATOM      6  C   UNL     1       1.400   7.444  21.067  0.00  0.00    +0.000 A 
ENDROOT
BRANCH   1   9
ATOM      7  C   UNL     1       2.143   4.372  19.779  0.00  0.00    +0.000 C 
ATOM      8  O   UNL     1       1.261   4.297  18.923  0.00  0.00    +0.000 OA
ATOM      9  N   UNL     1       2.685   5.544  20.280  0.00  0.00    +0.000 N 
ATOM     10  H   UNL     1       3.491   5.476  20.902  0.00  0.00    +0.000 HD
BRANCH   7  11
ATOM     11  C   UNL     1       2.771   3.107  20.271  0.00  0.00    +0.000 C 
BRANCH  11  12
ATOM     12  S   UNL     1       4.027   2.551  19.179  0.00  0.00    +0.000 S 
ATOM     13  O   UNL     1       3.364   1.939  18.036  0.00  0.00    +0.000 OA
ATOM     14  O   UNL     1       4.969   1.777  19.962  0.00  0.00    +0.000 OA
BRANCH  12  19
ATOM     15  C   UNL     1       7.194   7.350  17.219  0.00  0.00    +0.000 C 
ATOM     16  C   UNL     1       6.391   6.182  17.718  0.00  0.00    +0.000 A 
ATOM     17  C   UNL     1       6.638   5.630  18.981  0.00  0.00    +0.000 A 
ATOM     18  C   UNL     1       5.901   4.534  19.431  0.00  0.00    +0.000 A 
ATOM     19  C   UNL     1       4.900   3.993  18.620  0.00  0.00    +0.000 A 
ATOM     20  C   UNL     1       4.643   4.529  17.358  0.00  0.00    +0.000 A 
ATOM     21  C   UNL     1       5.389   5.623  16.911  0.00  0.00    +0.000 A 
ENDBRANCH  12  19
ENDBRANCH  11  12
ENDBRANCH   7  11
ENDBRANCH   1   9
BRANCH   4  22
ATOM     22  S   UNL     1       0.438  11.015  19.383  0.00  0.00    +0.000 S 
ATOM     23  O   UNL     1       1.315  11.677  18.437  0.00  0.00    +0.000 OA
ATOM     24  O   UNL     1      -0.979  10.921  19.122  0.00  0.00    +0.000 OA
BRANCH  22  25
ATOM     25  N   UNL     1       0.709  11.803  20.861  0.00  0.00    +0.000 N 
ATOM     26  H   UNL     1       1.451  12.479  20.693  0.00  0.00    +0.000 HD
BRANCH  25  27
ATOM     27  C   UNL     1      -0.473  12.321  21.451  0.00  0.00    +0.000 A 
ATOM     28  O   UNL     1      -1.053  13.493  21.077  0.00  0.00    +0.000 OA
ATOM     29  N   UNL     1      -2.239  13.665  21.769  0.00  0.00    +0.000 NA
ATOM     30  C   UNL     1      -2.343  12.606  22.579  0.00  0.00    +0.000 A 
ATOM     31  C   UNL     1      -3.497  12.484  23.502  0.00  0.00    +0.000 C 
ATOM     32  C   UNL     1      -1.242  11.717  22.421  0.00  0.00    +0.000 A 
ATOM     33  C   UNL     1      -0.958  10.476  23.175  0.00  0.00    +0.000 C 
ENDBRANCH  25  27
ENDBRANCH  22  25
ENDBRANCH   4  22
TORSDOF 7
ENDMDL
MODEL 5
REMARK VINA RESULT:      -8.5      1.027      1.848
REMARK  Name = 
REMARK  10 active torsions:
REMARK  status: ('A' for Active; 'I' for Inactive)
REMARK    1  A    between atoms: C_1  and  C_2
REMARK    2  A    between atoms: C_5  and  S_6
REMARK    3  A    between atoms: S_6  and  C_9
REMARK    4  A    between atoms: C_9  and  C_10
REMARK    5  A    between atoms: N_12  and  C_13
REMARK    6  A    between atoms: C_16  and  S_17
REMARK    7  A    between atoms: S_17  and  N_20
REMARK    8  A    between atoms: N_20  and  C_21
REMARK    9  A    between atoms: C_24  and  C_25
REMARK   10  A    between atoms: C_26  and  C_27
REMARK                            x       y       z     vdW  Elec       q    Type
REMARK                         _______ _______ _______ _____ _____    ______ ____
ROOT
ATOM      1  C   UNL     1       1.970   6.508  20.270  0.00  0.00    +0.000 A 
ATOM      2  C   UNL     1       1.770   5.213  20.756  0.00  0.00    +0.000 A 
ATOM      3  C   UNL     1       2.023   4.101  19.958  0.00  0.00    +0.000 A 
ATOM      4  C   UNL     1       2.471   4.276  18.651  0.00  0.00    +0.000 A 
ATOM      5  C   UNL     1       2.703   5.558  18.148  0.00  0.00    +0.000 A 
ATOM      6  C   UNL     1       2.435   6.675  18.952  0.00  0.00    +0.000 A 
ENDROOT
BRANCH   1   9
ATOM      7  C   UNL     1       1.260   8.877  20.547  0.00  0.00    +0.000 C 
ATOM      8  O   UNL     1       0.881   9.094  19.397  0.00  0.00    +0.000 OA
ATOM      9  N   UNL     1       1.689   7.656  21.040  0.00  0.00    +0.000 N 
ATOM     10  H   UNL     1       1.869   7.576  22.041  0.00  0.00    +0.000 HD
BRANCH   7  11
ATOM     11  C   UNL     1       1.172   9.984  21.549  0.00  0.00    +0.000 C 
BRANCH  11  12
ATOM     12  S   UNL     1      -0.192   9.761  22.631  0.00  0.00    +0.000 S 
ATOM     13  O   UNL     1       0.324   9.816  23.991  0.00  0.00    +0.000 OA
ATOM     14  O   UNL     1      -0.911   8.585  22.182  0.00  0.00    +0.000 OA
BRANCH  12  19
ATOM     15  C   UNL     1      -4.052  14.350  21.661  0.00  0.00    +0.000 C 
ATOM     16  C   UNL     1      -3.075  13.235  21.908  0.00  0.00    +0.000 A 
ATOM     17  C   UNL     1      -2.212  12.801  20.895  0.00  0.00    +0.000 A 
ATOM     18  C   UNL     1      -1.320  11.753  21.125  0.00  0.00    +0.000 A 
ATOM     19  C   UNL     1      -1.278  11.143  22.381  0.00  0.00    +0.000 A 
ATOM     20  C   UNL     1      -2.133  11.561  23.401  0.00  0.00    +0.000 A 
ATOM     21  C   UNL     1      -3.028  12.608  23.162  0.00  0.00    +0.000 A 
ENDBRANCH  12  19
ENDBRANCH  11  12
ENDBRANCH   7  11
ENDBRANCH   1   9
BRANCH   4  22
ATOM     22  S   UNL     1       2.803   2.832  17.684  0.00  0.00    +0.000 S 
ATOM     23  O   UNL     1       2.064   1.729  18.267  0.00  0.00    +0.000 OA
ATOM     24  O   UNL     1       2.646   3.155  16.285  0.00  0.00    +0.000 OA
BRANCH  22  25
ATOM     25  N   UNL     1       4.431   2.504  18.028  0.00  0.00    +0.000 N 
ATOM     26  H   UNL     1       4.775   1.926  17.263  0.00  0.00    +0.000 HD
BRANCH  25  27
ATOM     27  C   UNL     1       5.195   3.664  18.314  0.00  0.00    +0.000 A 
ATOM     28  O   UNL     1       5.454   4.109  19.572  0.00  0.00    +0.000 OA
ATOM     29  N   UNL     1       6.305   5.198  19.515  0.00  0.00    +0.000 NA
ATOM     30  C   UNL     1       6.522   5.420  18.214  0.00  0.00    +0.000 A 
ATOM     31  C   UNL     1       7.376   6.553  17.782  0.00  0.00    +0.000 C 
ATOM     32  C   UNL     1       5.836   4.473  17.401  0.00  0.00    +0.000 A 
ATOM     33  C   UNL     1       5.770   4.419  15.923  0.00  0.00    +0.000 C 
ENDBRANCH  25  27
ENDBRANCH  22  25
ENDBRANCH   4  22
TORSDOF 7
ENDMDL
MODEL 6
REMARK VINA RESULT:      -8.5      2.520      9.450
REMARK  Name = 
REMARK  10 active torsions:
REMARK  status: ('A' for Active; 'I' for Inactive)
REMARK    1  A    between atoms: C_1  and  C_2
REMARK    2  A    between atoms: C_5  and  S_6
REMARK    3  A    between atoms: S_6  and  C_9
REMARK    4  A    between atoms: C_9  and  C_10
REMARK    5  A    between atoms: N_12  and  C_13
REMARK    6  A    between atoms: C_16  and  S_17
REMARK    7  A    between atoms: S_17  and  N_20
REMARK    8  A    between atoms: N_20  and  C_21
REMARK    9  A    between atoms: C_24  and  C_25
REMARK   10  A    between atoms: C_26  and  C_27
REMARK                            x       y       z     vdW  Elec       q    Type
REMARK                         _______ _______ _______ _____ _____    ______ ____
ROOT
ATOM      1  C   UNL     1       1.922   7.148  19.904  0.00  0.00    +0.000 A 
ATOM      2  C   UNL     1       1.396   7.477  21.156  0.00  0.00    +0.000 A 
ATOM      3  C   UNL     1       0.880   8.746  21.406  0.00  0.00    +0.000 A 
ATOM      4  C   UNL     1       0.898   9.709  20.401  0.00  0.00    +0.000 A 
ATOM      5  C   UNL     1       1.395   9.400  19.133  0.00  0.00    +0.000 A 
ATOM      6  C   UNL     1       1.924   8.124  18.890  0.00  0.00    +0.000 A 
ENDROOT
BRANCH   1   9
ATOM      7  C   UNL     1       1.920   4.660  19.950  0.00  0.00    +0.000 C 
ATOM      8  O   UNL     1       0.770   4.482  20.351  0.00  0.00    +0.000 OA
ATOM      9  N   UNL     1       2.484   5.883  19.629  0.00  0.00    +0.000 N 
ATOM     10  H   UNL     1       3.408   5.891  19.198  0.00  0.00    +0.000 HD
BRANCH   7  11
ATOM     11  C   UNL     1       2.778   3.463  19.687  0.00  0.00    +0.000 C 
BRANCH  11  12
ATOM     12  S   UNL     1       3.290   3.401  18.009  0.00  0.00    +0.000 S 
ATOM     13  O   UNL     1       2.163   3.843  17.199  0.00  0.00    +0.000 OA
ATOM     14  O   UNL     1       3.869   2.093  17.782  0.00  0.00    +0.000 OA
BRANCH  12  19
ATOM     15  C   UNL     1       7.669   7.578  17.485  0.00  0.00    +0.000 C 
ATOM     16  C   UNL     1       6.601   6.527  17.594  0.00  0.00    +0.000 A 
ATOM     17  C   UNL     1       5.542   6.483  16.680  0.00  0.00    +0.000 A 
ATOM     18  C   UNL     1       4.544   5.515  16.798  0.00  0.00    +0.000 A 
ATOM     19  C   UNL     1       4.610   4.575  17.830  0.00  0.00    +0.000 A 
ATOM     20  C   UNL     1       5.657   4.606  18.751  0.00  0.00    +0.000 A 
ATOM     21  C   UNL     1       6.651   5.582  18.630  0.00  0.00    +0.000 A 
ENDBRANCH  12  19
ENDBRANCH  11  12
ENDBRANCH   7  11
ENDBRANCH   1   9
BRANCH   4  22
ATOM     22  S   UNL     1       0.209  11.299  20.758  0.00  0.00    +0.000 S 
ATOM     23  O   UNL     1      -1.019  11.092  21.501  0.00  0.00    +0.000 OA
ATOM     24  O   UNL     1       1.245  12.155  21.286  0.00  0.00    +0.000 OA
BRANCH  22  25
ATOM     25  N   UNL     1      -0.286  11.855  19.234  0.00  0.00    +0.000 N 
ATOM     26  H   UNL     1       0.276  11.353  18.549  0.00  0.00    +0.000 HD
BRANCH  25  27
ATOM     27  C   UNL     1      -1.690  11.797  19.038  0.00  0.00    +0.000 A 
ATOM     28  O   UNL     1      -2.580  12.576  19.710  0.00  0.00    +0.000 OA
ATOM     29  N   UNL     1      -3.855  12.352  19.221  0.00  0.00    +0.000 NA
ATOM     30  C   UNL     1      -3.722  11.411  18.279  0.00  0.00    +0.000 A 
ATOM     31  C   UNL     1      -4.914  10.899  17.561  0.00  0.00    +0.000 C 
ATOM     32  C   UNL     1      -2.362  11.017  18.122  0.00  0.00    +0.000 A 
ATOM     33  C   UNL     1      -1.815   9.966  17.236  0.00  0.00    +0.000 C 
ENDBRANCH  25  27
ENDBRANCH  22  25
ENDBRANCH   4  22
TORSDOF 7
ENDMDL
MODEL 7
REMARK VINA RESULT:      -8.5      2.079      9.593
REMARK  Name = 
REMARK  10 active torsions:
REMARK  status: ('A' for Active; 'I' for Inactive)
REMARK    1  A    between atoms: C_1  and  C_2
REMARK    2  A    between atoms: C_5  and  S_6
REMARK    3  A    between atoms: S_6  and  C_9
REMARK    4  A    between atoms: C_9  and  C_10
REMARK    5  A    between atoms: N_12  and  C_13
REMARK    6  A    between atoms: C_16  and  S_17
REMARK    7  A    between atoms: S_17  and  N_20
REMARK    8  A    between atoms: N_20  and  C_21
REMARK    9  A    between atoms: C_24  and  C_25
REMARK   10  A    between atoms: C_26  and  C_27
REMARK                            x       y       z     vdW  Elec       q    Type
REMARK                         _______ _______ _______ _____ _____    ______ ____
ROOT
ATOM      1  C   UNL     1       2.175   6.895  20.064  0.00  0.00    +0.000 A 
ATOM      2  C   UNL     1       1.436   7.557  21.049  0.00  0.00    +0.000 A 
ATOM      3  C   UNL     1       0.912   8.826  20.819  0.00  0.00    +0.000 A 
ATOM      4  C   UNL     1       1.135   9.454  19.596  0.00  0.00    +0.000 A 
ATOM      5  C   UNL     1       1.849   8.805  18.587  0.00  0.00    +0.000 A 
ATOM      6  C   UNL     1       2.385   7.532  18.828  0.00  0.00    +0.000 A 
ENDROOT
BRANCH   1   9
ATOM      7  C   UNL     1       2.149   4.407  19.998  0.00  0.00    +0.000 C 
ATOM      8  O   UNL     1       1.113   4.249  19.354  0.00  0.00    +0.000 OA
ATOM      9  N   UNL     1       2.749   5.623  20.278  0.00  0.00    +0.000 N 
ATOM     10  H   UNL     1       3.667   5.618  20.722  0.00  0.00    +0.000 HD
BRANCH   7  11
ATOM     11  C   UNL     1       2.902   3.196  20.450  0.00  0.00    +0.000 C 
BRANCH  11  12
ATOM     12  S   UNL     1       3.952   2.586  19.184  0.00  0.00    +0.000 S 
ATOM     13  O   UNL     1       3.095   2.119  18.103  0.00  0.00    +0.000 OA
ATOM     14  O   UNL     1       4.890   1.672  19.803  0.00  0.00    +0.000 OA
BRANCH  12  19
ATOM     15  C   UNL     1       7.034   7.441  17.226  0.00  0.00    +0.000 C 
ATOM     16  C   UNL     1       6.291   6.221  17.695  0.00  0.00    +0.000 A 
ATOM     17  C   UNL     1       5.272   5.661  16.916  0.00  0.00    +0.000 A 
ATOM     18  C   UNL     1       4.574   4.539  17.365  0.00  0.00    +0.000 A 
ATOM     19  C   UNL     1       4.904   3.965  18.595  0.00  0.00    +0.000 A 
ATOM     20  C   UNL     1       5.915   4.513  19.385  0.00  0.00    +0.000 A 
ATOM     21  C   UNL     1       6.607   5.640  18.932  0.00  0.00    +0.000 A 
ENDBRANCH  12  19
ENDBRANCH  11  12
ENDBRANCH   7  11
ENDBRANCH   1   9
BRANCH   4  22
ATOM     22  S   UNL     1       0.428  11.056  19.341  0.00  0.00    +0.000 S 
ATOM     23  O   UNL     1       1.266  11.763  18.392  0.00  0.00    +0.000 OA
ATOM     24  O   UNL     1      -0.988  10.914  19.098  0.00  0.00    +0.000 OA
BRANCH  22  25
ATOM     25  N   UNL     1       0.690  11.834  20.826  0.00  0.00    +0.000 N 
ATOM     26  H   UNL     1       1.430  12.516  20.665  0.00  0.00    +0.000 HD
BRANCH  25  27
ATOM     27  C   UNL     1      -0.496  12.341  21.417  0.00  0.00    +0.000 A 
ATOM     28  O   UNL     1      -1.089  13.505  21.042  0.00  0.00    +0.000 OA
ATOM     29  N   UNL     1      -2.276  13.667  21.735  0.00  0.00    +0.000 NA
ATOM     30  C   UNL     1      -2.367  12.608  22.548  0.00  0.00    +0.000 A 
ATOM     31  C   UNL     1      -3.517  12.476  23.474  0.00  0.00    +0.000 C 
ATOM     32  C   UNL     1      -1.256  11.730  22.390  0.00  0.00    +0.000 A 
ATOM     33  C   UNL     1      -0.957  10.495  23.147  0.00  0.00    +0.000 C 
ENDBRANCH  25  27
ENDBRANCH  22  25
ENDBRANCH   4  22
TORSDOF 7
ENDMDL
MODEL 8
REMARK VINA RESULT:      -8.5      2.504      9.503
REMARK  Name = 
REMARK  10 active torsions:
REMARK  status: ('A' for Active; 'I' for Inactive)
REMARK    1  A    between atoms: C_1  and  C_2
REMARK    2  A    between atoms: C_5  and  S_6
REMARK    3  A    between atoms: S_6  and  C_9
REMARK    4  A    between atoms: C_9  and  C_10
REMARK    5  A    between atoms: N_12  and  C_13
REMARK    6  A    between atoms: C_16  and  S_17
REMARK    7  A    between atoms: S_17  and  N_20
REMARK    8  A    between atoms: N_20  and  C_21
REMARK    9  A    between atoms: C_24  and  C_25
REMARK   10  A    between atoms: C_26  and  C_27
REMARK                            x       y       z     vdW  Elec       q    Type
REMARK                         _______ _______ _______ _____ _____    ______ ____
ROOT
ATOM      1  C   UNL     1       2.669   7.304  18.350  0.00  0.00    +0.000 A 
ATOM      2  C   UNL     1       2.485   6.727  19.609  0.00  0.00    +0.000 A 
ATOM      3  C   UNL     1       1.790   7.399  20.611  0.00  0.00    +0.000 A 
ATOM      4  C   UNL     1       1.281   8.672  20.364  0.00  0.00    +0.000 A 
ATOM      5  C   UNL     1       1.430   9.262  19.107  0.00  0.00    +0.000 A 
ATOM      6  C   UNL     1       2.141   8.585  18.105  0.00  0.00    +0.000 A 
ENDROOT
BRANCH   1   9
ATOM      7  C   UNL     1       4.764   6.762  17.120  0.00  0.00    +0.000 C 
ATOM      8  O   UNL     1       5.573   7.266  17.900  0.00  0.00    +0.000 OA
ATOM      9  N   UNL     1       3.398   6.664  17.325  0.00  0.00    +0.000 N 
ATOM     10  H   UNL     1       2.848   6.123  16.659  0.00  0.00    +0.000 HD
BRANCH   7  11
ATOM     11  C   UNL     1       5.281   6.108  15.878  0.00  0.00    +0.000 C 
BRANCH  11  12
ATOM     12  S   UNL     1       5.754   4.446  16.182  0.00  0.00    +0.000 S 
ATOM     13  O   UNL     1       7.065   4.480  16.814  0.00  0.00    +0.000 OA
ATOM     14  O   UNL     1       5.571   3.712  14.945  0.00  0.00    +0.000 OA
BRANCH  12  19
ATOM     15  C   UNL     1       1.707   2.383  20.216  0.00  0.00    +0.000 C 
ATOM     16  C   UNL     1       2.720   2.865  19.216  0.00  0.00    +0.000 A 
ATOM     17  C   UNL     1       3.999   3.260  19.625  0.00  0.00    +0.000 A 
ATOM     18  C   UNL     1       4.929   3.723  18.693  0.00  0.00    +0.000 A 
ATOM     19  C   UNL     1       4.584   3.780  17.340  0.00  0.00    +0.000 A 
ATOM     20  C   UNL     1       3.313   3.393  16.916  0.00  0.00    +0.000 A 
ATOM     21  C   UNL     1       2.384   2.935  17.855  0.00  0.00    +0.000 A 
ENDBRANCH  12  19
ENDBRANCH  11  12
ENDBRANCH   7  11
ENDBRANCH   1   9
BRANCH   4  22
ATOM     22  S   UNL     1       0.385   9.477  21.659  0.00  0.00    +0.000 S 
ATOM     23  O   UNL     1      -0.737   8.629  22.014  0.00  0.00    +0.000 OA
ATOM     24  O   UNL     1       1.314   9.918  22.673  0.00  0.00    +0.000 OA
BRANCH  22  25
ATOM     25  N   UNL     1      -0.305  10.815  20.877  0.00  0.00    +0.000 N 
ATOM     26  H   UNL     1      -1.241  10.531  20.596  0.00  0.00    +0.000 HD
BRANCH  25  27
ATOM     27  C   UNL     1      -0.226  12.014  21.631  0.00  0.00    +0.000 A 
ATOM     28  O   UNL     1       0.769  12.930  21.495  0.00  0.00    +0.000 OA
ATOM     29  N   UNL     1       0.504  14.028  22.294  0.00  0.00    +0.000 NA
ATOM     30  C   UNL     1      -0.637  13.744  22.931  0.00  0.00    +0.000 A 
ATOM     31  C   UNL     1      -1.203  14.704  23.910  0.00  0.00    +0.000 C 
ATOM     32  C   UNL     1      -1.147  12.470  22.549  0.00  0.00    +0.000 A 
ATOM     33  C   UNL     1      -2.342  11.773  23.073  0.00  0.00    +0.000 C 
ENDBRANCH  25  27
ENDBRANCH  22  25
ENDBRANCH   4  22
TORSDOF 7
ENDMDL
MODEL 9
REMARK VINA RESULT:      -8.4      1.583      2.027
REMARK  Name = 
REMARK  10 active torsions:
REMARK  status: ('A' for Active; 'I' for Inactive)
REMARK    1  A    between atoms: C_1  and  C_2
REMARK    2  A    between atoms: C_5  and  S_6
REMARK    3  A    between atoms: S_6  and  C_9
REMARK    4  A    between atoms: C_9  and  C_10
REMARK    5  A    between atoms: N_12  and  C_13
REMARK    6  A    between atoms: C_16  and  S_17
REMARK    7  A    between atoms: S_17  and  N_20
REMARK    8  A    between atoms: N_20  and  C_21
REMARK    9  A    between atoms: C_24  and  C_25
REMARK   10  A    between atoms: C_26  and  C_27
REMARK                            x       y       z     vdW  Elec       q    Type
REMARK                         _______ _______ _______ _____ _____    ______ ____
ROOT
ATOM      1  C   UNL     1       1.941   7.289  19.353  0.00  0.00    +0.000 A 
ATOM      2  C   UNL     1       2.222   6.826  18.065  0.00  0.00    +0.000 A 
ATOM      3  C   UNL     1       2.703   5.536  17.857  0.00  0.00    +0.000 A 
ATOM      4  C   UNL     1       2.920   4.695  18.946  0.00  0.00    +0.000 A 
ATOM      5  C   UNL     1       2.624   5.125  20.242  0.00  0.00    +0.000 A 
ATOM      6  C   UNL     1       2.151   6.429  20.446  0.00  0.00    +0.000 A 
ENDROOT
BRANCH   1   9
ATOM      7  C   UNL     1       1.614   9.679  18.739  0.00  0.00    +0.000 C 
ATOM      8  O   UNL     1       1.970   9.619  17.563  0.00  0.00    +0.000 OA
ATOM      9  N   UNL     1       1.486   8.602  19.601  0.00  0.00    +0.000 N 
ATOM     10  H   UNL     1       1.072   8.764  20.519  0.00  0.00    +0.000 HD
BRANCH   7  11
ATOM     11  C   UNL     1       1.184  11.002  19.290  0.00  0.00    +0.000 C 
BRANCH  11  12
ATOM     12  S   UNL     1      -0.491  11.344  18.896  0.00  0.00    +0.000 S 
ATOM     13  O   UNL     1      -1.067  10.117  18.363  0.00  0.00    +0.000 OA
ATOM     14  O   UNL     1      -0.509  12.552  18.095  0.00  0.00    +0.000 OA
BRANCH  12  19
ATOM     15  C   UNL     1      -3.452  12.534  24.065  0.00  0.00    +0.000 C 
ATOM     16  C   UNL     1      -2.704  12.266  22.789  0.00  0.00    +0.000 A 
ATOM     17  C   UNL     1      -3.163  12.776  21.569  0.00  0.00    +0.000 A 
ATOM     18  C   UNL     1      -2.474  12.509  20.385  0.00  0.00    +0.000 A 
ATOM     19  C   UNL     1      -1.310  11.737  20.421  0.00  0.00    +0.000 A 
ATOM     20  C   UNL     1      -0.840  11.219  21.629  0.00  0.00    +0.000 A 
ATOM     21  C   UNL     1      -1.538  11.486  22.810  0.00  0.00    +0.000 A 
ENDBRANCH  12  19
ENDBRANCH  11  12
ENDBRANCH   7  11
ENDBRANCH   1   9
BRANCH   4  22
ATOM     22  S   UNL     1       3.508   3.057  18.630  0.00  0.00    +0.000 S 
ATOM     23  O   UNL     1       3.986   2.509  19.885  0.00  0.00    +0.000 OA
ATOM     24  O   UNL     1       2.522   2.344  17.853  0.00  0.00    +0.000 OA
BRANCH  22  25
ATOM     25  N   UNL     1       4.904   3.320  17.704  0.00  0.00    +0.000 N 
ATOM     26  H   UNL     1       4.589   3.457  16.745  0.00  0.00    +0.000 HD
BRANCH  25  27
ATOM     27  C   UNL     1       5.747   4.335  18.225  0.00  0.00    +0.000 A 
ATOM     28  O   UNL     1       6.174   4.375  19.515  0.00  0.00    +0.000 OA
ATOM     29  N   UNL     1       7.059   5.425  19.680  0.00  0.00    +0.000 NA
ATOM     30  C   UNL     1       7.128   6.031  18.489  0.00  0.00    +0.000 A 
ATOM     31  C   UNL     1       7.973   7.237  18.313  0.00  0.00    +0.000 C 
ATOM     32  C   UNL     1       6.309   5.379  17.523  0.00  0.00    +0.000 A 
ATOM     33  C   UNL     1       6.064   5.777  16.119  0.00  0.00    +0.000 C 
ENDBRANCH  25  27
ENDBRANCH  22  25
ENDBRANCH   4  22
TORSDOF 7
ENDMDL
