MODEL 1
REMARK VINA RESULT:      -7.6      0.000      0.000
REMARK  Name = 
REMARK  8 active torsions:
REMARK  status: ('A' for Active; 'I' for Inactive)
REMARK    1  A    between atoms: C_1  and  O_2
REMARK    2  A    between atoms: O_2  and  C_3
REMARK    3  A    between atoms: C_3  and  C_4
REMARK    4  A    between atoms: C_4  and  C_5
REMARK    5  A    between atoms: C_4  and  C_6
REMARK    6  A    between atoms: C_4  and  N_7
REMARK    7  A    between atoms: N_7  and  C_8
REMARK    8  A    between atoms: C_10  and  C_11
REMARK                            x       y       z     vdW  Elec       q    Type
REMARK                         _______ _______ _______ _____ _____    ______ ____
ROOT
ATOM      1  C   UNL     1       3.361   4.706  17.434  0.00  0.00    +0.000 A 
ATOM      2  N   UNL     1       2.623   5.670  17.997  0.00  0.00    +0.000 NA
ATOM      3  C   UNL     1       3.114   6.917  18.071  0.00  0.00    +0.000 A 
ATOM      4  N   UNL     1       4.337   7.274  17.653  0.00  0.00    +0.000 NA
ATOM      5  C   UNL     1       5.079   6.312  17.093  0.00  0.00    +0.000 A 
ATOM      6  C   UNL     1       6.350   6.592  16.622  0.00  0.00    +0.000 A 
ATOM      7  N   UNL     1       7.203   5.707  16.039  0.00  0.00    +0.000 NA
ATOM      8  C   UNL     1       6.766   4.443  15.917  0.00  0.00    +0.000 A 
ATOM      9  C   UNL     1       5.515   4.042  16.352  0.00  0.00    +0.000 A 
ATOM     10  C   UNL     1       4.649   4.985  16.942  0.00  0.00    +0.000 A 
ENDROOT
BRANCH   3  11
ATOM     11  C   UNL     1       2.247   7.961  18.626  0.00  0.00    +0.000 A 
ATOM     12  C   UNL     1       1.769   9.014  17.836  0.00  0.00    +0.000 A 
ATOM     13  C   UNL     1       0.954   9.977  18.410  0.00  0.00    +0.000 A 
ATOM     14  N   UNL     1       0.580   9.969  19.706  0.00  0.00    +0.000 NA
ATOM     15  C   UNL     1       1.037   8.948  20.459  0.00  0.00    +0.000 A 
ATOM     16  C   UNL     1       1.856   7.941  19.973  0.00  0.00    +0.000 A 
ENDBRANCH   3  11
BRANCH   1  17
ATOM     17  N   UNL     1       2.865   3.418  17.396  0.00  0.00    +0.000 N 
ATOM     18  H   UNL     1       2.367   3.124  16.567  0.00  0.00    +0.000 HD
BRANCH  17  19
ATOM     19  C   UNL     1       2.856   2.451  18.508  0.00  0.00    +0.000 C 
ATOM     20  C   UNL     1       3.705   1.202  18.244  0.00  0.00    +0.000 C 
ATOM     21  C   UNL     1       1.391   2.082  18.787  0.00  0.00    +0.000 C 
BRANCH  19  22
ATOM     22  C   UNL     1       3.419   3.157  19.786  0.00  0.00    +0.000 C 
BRANCH  22  24
ATOM     23  C   UNL     1       2.172   4.469  21.318  0.00  0.00    +0.000 C 
ATOM     24  O   UNL     1       2.441   3.160  20.835  0.00  0.00    +0.000 OA
ENDBRANCH  22  24
ENDBRANCH  19  22
ENDBRANCH  17  19
ENDBRANCH   1  17
TORSDOF 5
ENDMDL
MODEL 2
REMARK VINA RESULT:      -7.5      0.486      1.369
REMARK  Name = 
REMARK  8 active torsions:
REMARK  status: ('A' for Active; 'I' for Inactive)
REMARK    1  A    between atoms: C_1  and  O_2
REMARK    2  A    between atoms: O_2  and  C_3
REMARK    3  A    between atoms: C_3  and  C_4
REMARK    4  A    between atoms: C_4  and  C_5
REMARK    5  A    between atoms: C_4  and  C_6
REMARK    6  A    between atoms: C_4  and  N_7
REMARK    7  A    between atoms: N_7  and  C_8
REMARK    8  A    between atoms: C_10  and  C_11
REMARK                            x       y       z     vdW  Elec       q    Type
REMARK                         _______ _______ _______ _____ _____    ______ ____
ROOT
ATOM      1  C   UNL     1       3.519   4.644  17.532  0.00  0.00    +0.000 A 
ATOM      2  N   UNL     1       2.764   5.600  18.085  0.00  0.00    +0.000 NA
ATOM      3  C   UNL     1       3.191   6.872  18.065  0.00  0.00    +0.000 A 
ATOM      4  N   UNL     1       4.369   7.266  17.557  0.00  0.00    +0.000 NA
ATOM      5  C   UNL     1       5.128   6.313  17.006  0.00  0.00    +0.000 A 
ATOM      6  C   UNL     1       6.354   6.630  16.447  0.00  0.00    +0.000 A 
ATOM      7  N   UNL     1       7.219   5.757  15.862  0.00  0.00    +0.000 NA
ATOM      8  C   UNL     1       6.844   4.468  15.834  0.00  0.00    +0.000 A 
ATOM      9  C   UNL     1       5.642   4.030  16.362  0.00  0.00    +0.000 A 
ATOM     10  C   UNL     1       4.761   4.960  16.951  0.00  0.00    +0.000 A 
ENDROOT
BRANCH   3  11
ATOM     11  C   UNL     1       2.302   7.900  18.614  0.00  0.00    +0.000 A 
ATOM     12  C   UNL     1       1.900   7.882  19.956  0.00  0.00    +0.000 A 
ATOM     13  C   UNL     1       1.056   8.876  20.424  0.00  0.00    +0.000 A 
ATOM     14  N   UNL     1       0.585   9.883  19.661  0.00  0.00    +0.000 NA
ATOM     15  C   UNL     1       0.983   9.901  18.373  0.00  0.00    +0.000 A 
ATOM     16  C   UNL     1       1.824   8.950  17.816  0.00  0.00    +0.000 A 
ENDBRANCH   3  11
BRANCH   1  17
ATOM     17  N   UNL     1       3.091   3.333  17.590  0.00  0.00    +0.000 N 
ATOM     18  H   UNL     1       2.512   2.987  16.838  0.00  0.00    +0.000 HD
BRANCH  17  19
ATOM     19  C   UNL     1       3.270   2.405  18.722  0.00  0.00    +0.000 C 
ATOM     20  C   UNL     1       4.168   2.958  19.834  0.00  0.00    +0.000 C 
ATOM     21  C   UNL     1       3.830   1.091  18.155  0.00  0.00    +0.000 C 
BRANCH  19  22
ATOM     22  C   UNL     1       1.867   2.095  19.340  0.00  0.00    +0.000 C 
BRANCH  22  24
ATOM     23  C   UNL     1       0.827   3.939  20.408  0.00  0.00    +0.000 C 
ATOM     24  O   UNL     1       1.683   2.817  20.566  0.00  0.00    +0.000 OA
ENDBRANCH  22  24
ENDBRANCH  19  22
ENDBRANCH  17  19
ENDBRANCH   1  17
TORSDOF 5
ENDMDL
MODEL 3
REMARK VINA RESULT:      -7.4      2.254      4.544
REMARK  Name = 
REMARK  8 active torsions:
REMARK  status: ('A' for Active; 'I' for Inactive)
REMARK    1  A    between atoms: C_1  and  O_2
REMARK    2  A    between atoms: O_2  and  C_3
REMARK    3  A    between atoms: C_3  and  C_4
REMARK    4  A    between atoms: C_4  and  C_5
REMARK    5  A    between atoms: C_4  and  C_6
REMARK    6  A    between atoms: C_4  and  N_7
REMARK    7  A    between atoms: N_7  and  C_8
REMARK    8  A    between atoms: C_10  and  C_11
REMARK                            x       y       z     vdW  Elec       q    Type
REMARK                         _______ _______ _______ _____ _____    ______ ____
ROOT
ATOM      1  C   UNL     1       4.054   5.453  18.609  0.00  0.00    +0.000 A 
ATOM      2  N   UNL     1       3.420   6.632  18.593  0.00  0.00    +0.000 NA
ATOM      3  C   UNL     1       2.431   6.860  19.471  0.00  0.00    +0.000 A 
ATOM      4  N   UNL     1       1.986   5.959  20.359  0.00  0.00    +0.000 NA
ATOM      5  C   UNL     1       2.615   4.779  20.376  0.00  0.00    +0.000 A 
ATOM      6  C   UNL     1       2.231   3.793  21.269  0.00  0.00    +0.000 A 
ATOM      7  N   UNL     1       2.783   2.555  21.384  0.00  0.00    +0.000 NA
ATOM      8  C   UNL     1       3.792   2.267  20.545  0.00  0.00    +0.000 A 
ATOM      9  C   UNL     1       4.263   3.170  19.608  0.00  0.00    +0.000 A 
ATOM     10  C   UNL     1       3.678   4.450  19.521  0.00  0.00    +0.000 A 
ENDROOT
BRANCH   3  11
ATOM     11  C   UNL     1       1.812   8.189  19.471  0.00  0.00    +0.000 A 
ATOM     12  C   UNL     1       1.796   8.991  18.323  0.00  0.00    +0.000 A 
ATOM     13  C   UNL     1       1.200  10.241  18.378  0.00  0.00    +0.000 A 
ATOM     14  N   UNL     1       0.620  10.749  19.484  0.00  0.00    +0.000 NA
ATOM     15  C   UNL     1       0.631   9.969  20.583  0.00  0.00    +0.000 A 
ATOM     16  C   UNL     1       1.203   8.707  20.624  0.00  0.00    +0.000 A 
ENDBRANCH   3  11
BRANCH   1  17
ATOM     17  N   UNL     1       5.045   5.212  17.678  0.00  0.00    +0.000 N 
ATOM     18  H   UNL     1       4.836   4.588  16.911  0.00  0.00    +0.000 HD
BRANCH  17  19
ATOM     19  C   UNL     1       6.447   5.660  17.758  0.00  0.00    +0.000 C 
ATOM     20  C   UNL     1       7.042   5.569  19.168  0.00  0.00    +0.000 C 
ATOM     21  C   UNL     1       6.502   7.099  17.223  0.00  0.00    +0.000 C 
BRANCH  19  22
ATOM     22  C   UNL     1       7.311   4.768  16.808  0.00  0.00    +0.000 C 
BRANCH  22  24
ATOM     23  C   UNL     1       6.800   4.639  14.497  0.00  0.00    +0.000 C 
ATOM     24  O   UNL     1       7.447   5.383  15.520  0.00  0.00    +0.000 OA
ENDBRANCH  22  24
ENDBRANCH  19  22
ENDBRANCH  17  19
ENDBRANCH   1  17
TORSDOF 5
ENDMDL
MODEL 4
REMARK VINA RESULT:      -7.4      2.255      4.680
REMARK  Name = 
REMARK  8 active torsions:
REMARK  status: ('A' for Active; 'I' for Inactive)
REMARK    1  A    between atoms: C_1  and  O_2
REMARK    2  A    between atoms: O_2  and  C_3
REMARK    3  A    between atoms: C_3  and  C_4
REMARK    4  A    between atoms: C_4  and  C_5
REMARK    5  A    between atoms: C_4  and  C_6
REMARK    6  A    between atoms: C_4  and  N_7
REMARK    7  A    between atoms: N_7  and  C_8
REMARK    8  A    between atoms: C_10  and  C_11
REMARK                            x       y       z     vdW  Elec       q    Type
REMARK                         _______ _______ _______ _____ _____    ______ ____
ROOT
ATOM      1  C   UNL     1       3.949   5.271  18.707  0.00  0.00    +0.000 A 
ATOM      2  N   UNL     1       3.333   6.459  18.655  0.00  0.00    +0.000 NA
ATOM      3  C   UNL     1       2.389   6.750  19.563  0.00  0.00    +0.000 A 
ATOM      4  N   UNL     1       1.971   5.907  20.518  0.00  0.00    +0.000 NA
ATOM      5  C   UNL     1       2.581   4.718  20.570  0.00  0.00    +0.000 A 
ATOM      6  C   UNL     1       2.222   3.788  21.531  0.00  0.00    +0.000 A 
ATOM      7  N   UNL     1       2.760   2.548  21.688  0.00  0.00    +0.000 NA
ATOM      8  C   UNL     1       3.725   2.198  20.822  0.00  0.00    +0.000 A 
ATOM      9  C   UNL     1       4.167   3.041  19.818  0.00  0.00    +0.000 A 
ATOM     10  C   UNL     1       3.599   4.325  19.688  0.00  0.00    +0.000 A 
ENDROOT
BRANCH   3  11
ATOM     11  C   UNL     1       1.791   8.088  19.519  0.00  0.00    +0.000 A 
ATOM     12  C   UNL     1       1.163   8.648  20.640  0.00  0.00    +0.000 A 
ATOM     13  C   UNL     1       0.611   9.916  20.545  0.00  0.00    +0.000 A 
ATOM     14  N   UNL     1       0.638  10.665  19.424  0.00  0.00    +0.000 NA
ATOM     15  C   UNL     1       1.251  10.124  18.352  0.00  0.00    +0.000 A 
ATOM     16  C   UNL     1       1.831   8.865  18.352  0.00  0.00    +0.000 A 
ENDBRANCH   3  11
BRANCH   1  17
ATOM     17  N   UNL     1       4.893   4.963  17.747  0.00  0.00    +0.000 N 
ATOM     18  H   UNL     1       4.681   4.224  17.091  0.00  0.00    +0.000 HD
BRANCH  17  19
ATOM     19  C   UNL     1       6.260   5.507  17.661  0.00  0.00    +0.000 C 
ATOM     20  C   UNL     1       7.008   5.508  18.999  0.00  0.00    +0.000 C 
ATOM     21  C   UNL     1       6.156   6.925  17.079  0.00  0.00    +0.000 C 
BRANCH  19  22
ATOM     22  C   UNL     1       7.078   4.638  16.649  0.00  0.00    +0.000 C 
BRANCH  22  24
ATOM     23  C   UNL     1       6.965   4.775  14.285  0.00  0.00    +0.000 C 
ATOM     24  O   UNL     1       7.411   5.400  15.480  0.00  0.00    +0.000 OA
ENDBRANCH  22  24
ENDBRANCH  19  22
ENDBRANCH  17  19
ENDBRANCH   1  17
TORSDOF 5
ENDMDL
MODEL 5
REMARK VINA RESULT:      -7.3      2.157      4.500
REMARK  Name = 
REMARK  8 active torsions:
REMARK  status: ('A' for Active; 'I' for Inactive)
REMARK    1  A    between atoms: C_1  and  O_2
REMARK    2  A    between atoms: O_2  and  C_3
REMARK    3  A    between atoms: C_3  and  C_4
REMARK    4  A    between atoms: C_4  and  C_5
REMARK    5  A    between atoms: C_4  and  C_6
REMARK    6  A    between atoms: C_4  and  N_7
REMARK    7  A    between atoms: N_7  and  C_8
REMARK    8  A    between atoms: C_10  and  C_11
REMARK                            x       y       z     vdW  Elec       q    Type
REMARK                         _______ _______ _______ _____ _____    ______ ____
ROOT
ATOM      1  C   UNL     1       4.042   5.728  17.947  0.00  0.00    +0.000 A 
ATOM      2  N   UNL     1       3.455   6.824  18.442  0.00  0.00    +0.000 NA
ATOM      3  C   UNL     1       2.359   6.696  19.205  0.00  0.00    +0.000 A 
ATOM      4  N   UNL     1       1.763   5.528  19.484  0.00  0.00    +0.000 NA
ATOM      5  C   UNL     1       2.345   4.430  18.988  0.00  0.00    +0.000 A 
ATOM      6  C   UNL     1       1.806   3.179  19.235  0.00  0.00    +0.000 A 
ATOM      7  N   UNL     1       2.296   1.992  18.787  0.00  0.00    +0.000 NA
ATOM      8  C   UNL     1       3.405   2.046  18.031  0.00  0.00    +0.000 A 
ATOM      9  C   UNL     1       4.033   3.238  17.715  0.00  0.00    +0.000 A 
ATOM     10  C   UNL     1       3.508   4.452  18.203  0.00  0.00    +0.000 A 
ENDROOT
BRANCH   3  11
ATOM     11  C   UNL     1       1.788   7.914  19.790  0.00  0.00    +0.000 A 
ATOM     12  C   UNL     1       1.494   8.003  21.157  0.00  0.00    +0.000 A 
ATOM     13  C   UNL     1       0.953   9.175  21.659  0.00  0.00    +0.000 A 
ATOM     14  N   UNL     1       0.686  10.262  20.906  0.00  0.00    +0.000 NA
ATOM     15  C   UNL     1       0.980  10.174  19.594  0.00  0.00    +0.000 A 
ATOM     16  C   UNL     1       1.522   9.043  19.003  0.00  0.00    +0.000 A 
ENDBRANCH   3  11
BRANCH   1  17
ATOM     17  N   UNL     1       5.148   5.869  17.132  0.00  0.00    +0.000 N 
ATOM     18  H   UNL     1       5.003   5.890  16.132  0.00  0.00    +0.000 HD
BRANCH  17  19
ATOM     19  C   UNL     1       6.558   5.851  17.561  0.00  0.00    +0.000 C 
ATOM     20  C   UNL     1       6.749   5.441  19.026  0.00  0.00    +0.000 C 
ATOM     21  C   UNL     1       7.140   7.247  17.292  0.00  0.00    +0.000 C 
BRANCH  19  22
ATOM     22  C   UNL     1       7.337   4.831  16.668  0.00  0.00    +0.000 C 
BRANCH  22  24
ATOM     23  C   UNL     1       6.888   4.666  14.345  0.00  0.00    +0.000 C 
ATOM     24  O   UNL     1       7.576   5.379  15.364  0.00  0.00    +0.000 OA
ENDBRANCH  22  24
ENDBRANCH  19  22
ENDBRANCH  17  19
ENDBRANCH   1  17
TORSDOF 5
ENDMDL
MODEL 6
REMARK VINA RESULT:      -7.2      2.059      4.322
REMARK  Name = 
REMARK  8 active torsions:
REMARK  status: ('A' for Active; 'I' for Inactive)
REMARK    1  A    between atoms: C_1  and  O_2
REMARK    2  A    between atoms: O_2  and  C_3
REMARK    3  A    between atoms: C_3  and  C_4
REMARK    4  A    between atoms: C_4  and  C_5
REMARK    5  A    between atoms: C_4  and  C_6
REMARK    6  A    between atoms: C_4  and  N_7
REMARK    7  A    between atoms: N_7  and  C_8
REMARK    8  A    between atoms: C_10  and  C_11
REMARK                            x       y       z     vdW  Elec       q    Type
REMARK                         _______ _______ _______ _____ _____    ______ ____
ROOT
ATOM      1  C   UNL     1       3.450   4.989  18.250  0.00  0.00    +0.000 A 
ATOM      2  N   UNL     1       2.977   6.240  18.197  0.00  0.00    +0.000 NA
ATOM      3  C   UNL     1       2.324   6.743  19.256  0.00  0.00    +0.000 A 
ATOM      4  N   UNL     1       2.063   6.057  20.378  0.00  0.00    +0.000 NA
ATOM      5  C   UNL     1       2.530   4.805  20.434  0.00  0.00    +0.000 A 
ATOM      6  C   UNL     1       2.318   4.027  21.559  0.00  0.00    +0.000 A 
ATOM      7  N   UNL     1       2.736   2.744  21.738  0.00  0.00    +0.000 NA
ATOM      8  C   UNL     1       3.413   2.186  20.721  0.00  0.00    +0.000 A 
ATOM      9  C   UNL     1       3.685   2.863  19.545  0.00  0.00    +0.000 A 
ATOM     10  C   UNL     1       3.249   4.196  19.394  0.00  0.00    +0.000 A 
ENDROOT
BRANCH   3  11
ATOM     11  C   UNL     1       1.887   8.140  19.188  0.00  0.00    +0.000 A 
ATOM     12  C   UNL     1       1.203   8.747  20.250  0.00  0.00    +0.000 A 
ATOM     13  C   UNL     1       0.809  10.071  20.134  0.00  0.00    +0.000 A 
ATOM     14  N   UNL     1       1.045  10.832  19.046  0.00  0.00    +0.000 NA
ATOM     15  C   UNL     1       1.711  10.245  18.032  0.00  0.00    +0.000 A 
ATOM     16  C   UNL     1       2.143   8.929  18.057  0.00  0.00    +0.000 A 
ENDBRANCH   3  11
BRANCH   1  17
ATOM     17  N   UNL     1       4.088   4.466  17.143  0.00  0.00    +0.000 N 
ATOM     18  H   UNL     1       3.714   3.622  16.732  0.00  0.00    +0.000 HD
BRANCH  17  19
ATOM     19  C   UNL     1       5.363   4.933  16.568  0.00  0.00    +0.000 C 
ATOM     20  C   UNL     1       5.237   6.234  15.767  0.00  0.00    +0.000 C 
ATOM     21  C   UNL     1       5.920   3.795  15.698  0.00  0.00    +0.000 C 
BRANCH  19  22
ATOM     22  C   UNL     1       6.376   5.178  17.734  0.00  0.00    +0.000 C 
BRANCH  22  24
ATOM     23  C   UNL     1       7.873   6.957  18.197  0.00  0.00    +0.000 C 
ATOM     24  O   UNL     1       7.501   5.941  17.276  0.00  0.00    +0.000 OA
ENDBRANCH  22  24
ENDBRANCH  19  22
ENDBRANCH  17  19
ENDBRANCH   1  17
TORSDOF 5
ENDMDL
MODEL 7
REMARK VINA RESULT:      -7.1      2.229      4.405
REMARK  Name = 
REMARK  8 active torsions:
REMARK  status: ('A' for Active; 'I' for Inactive)
REMARK    1  A    between atoms: C_1  and  O_2
REMARK    2  A    between atoms: O_2  and  C_3
REMARK    3  A    between atoms: C_3  and  C_4
REMARK    4  A    between atoms: C_4  and  C_5
REMARK    5  A    between atoms: C_4  and  C_6
REMARK    6  A    between atoms: C_4  and  N_7
REMARK    7  A    between atoms: N_7  and  C_8
REMARK    8  A    between atoms: C_10  and  C_11
REMARK                            x       y       z     vdW  Elec       q    Type
REMARK                         _______ _______ _______ _____ _____    ______ ____
ROOT
ATOM      1  C   UNL     1       4.479   5.226  18.842  0.00  0.00    +0.000 A 
ATOM      2  N   UNL     1       3.900   6.421  19.008  0.00  0.00    +0.000 NA
ATOM      3  C   UNL     1       2.562   6.500  19.086  0.00  0.00    +0.000 A 
ATOM      4  N   UNL     1       1.735   5.452  18.965  0.00  0.00    +0.000 NA
ATOM      5  C   UNL     1       2.309   4.256  18.796  0.00  0.00    +0.000 A 
ATOM      6  C   UNL     1       1.533   3.116  18.674  0.00  0.00    +0.000 A 
ATOM      7  N   UNL     1       1.992   1.848  18.495  0.00  0.00    +0.000 NA
ATOM      8  C   UNL     1       3.325   1.696  18.425  0.00  0.00    +0.000 A 
ATOM      9  C   UNL     1       4.203   2.760  18.532  0.00  0.00    +0.000 A 
ATOM     10  C   UNL     1       3.698   4.061  18.730  0.00  0.00    +0.000 A 
ENDROOT
BRANCH   3  11
ATOM     11  C   UNL     1       1.970   7.816  19.343  0.00  0.00    +0.000 A 
ATOM     12  C   UNL     1       1.872   8.785  18.336  0.00  0.00    +0.000 A 
ATOM     13  C   UNL     1       1.306  10.015  18.631  0.00  0.00    +0.000 A 
ATOM     14  N   UNL     1       0.831  10.350  19.848  0.00  0.00    +0.000 NA
ATOM     15  C   UNL     1       0.920   9.411  20.810  0.00  0.00    +0.000 A 
ATOM     16  C   UNL     1       1.470   8.155  20.609  0.00  0.00    +0.000 A 
ENDBRANCH   3  11
BRANCH   1  17
ATOM     17  N   UNL     1       5.853   5.157  18.725  0.00  0.00    +0.000 N 
ATOM     18  H   UNL     1       6.383   4.834  19.522  0.00  0.00    +0.000 HD
BRANCH  17  19
ATOM     19  C   UNL     1       6.658   5.646  17.591  0.00  0.00    +0.000 C 
ATOM     20  C   UNL     1       5.821   6.240  16.453  0.00  0.00    +0.000 C 
ATOM     21  C   UNL     1       7.518   4.472  17.097  0.00  0.00    +0.000 C 
BRANCH  19  22
ATOM     22  C   UNL     1       7.628   6.758  18.111  0.00  0.00    +0.000 C 
BRANCH  22  24
ATOM     23  C   UNL     1       8.026   9.073  17.793  0.00  0.00    +0.000 C 
ATOM     24  O   UNL     1       7.715   7.836  17.169  0.00  0.00    +0.000 OA
ENDBRANCH  22  24
ENDBRANCH  19  22
ENDBRANCH  17  19
ENDBRANCH   1  17
TORSDOF 5
ENDMDL
MODEL 8
REMARK VINA RESULT:      -7.1      1.966      4.122
REMARK  Name = 
REMARK  8 active torsions:
REMARK  status: ('A' for Active; 'I' for Inactive)
REMARK    1  A    between atoms: C_1  and  O_2
REMARK    2  A    between atoms: O_2  and  C_3
REMARK    3  A    between atoms: C_3  and  C_4
REMARK    4  A    between atoms: C_4  and  C_5
REMARK    5  A    between atoms: C_4  and  C_6
REMARK    6  A    between atoms: C_4  and  N_7
REMARK    7  A    between atoms: N_7  and  C_8
REMARK    8  A    between atoms: C_10  and  C_11
REMARK                            x       y       z     vdW  Elec       q    Type
REMARK                         _______ _______ _______ _____ _____    ______ ____
ROOT
ATOM      1  C   UNL     1       3.418   4.945  18.239  0.00  0.00    +0.000 A 
ATOM      2  N   UNL     1       2.957   6.201  18.178  0.00  0.00    +0.000 NA
ATOM      3  C   UNL     1       2.317   6.719  19.238  0.00  0.00    +0.000 A 
ATOM      4  N   UNL     1       2.059   6.047  20.369  0.00  0.00    +0.000 NA
ATOM      5  C   UNL     1       2.514   4.791  20.432  0.00  0.00    +0.000 A 
ATOM      6  C   UNL     1       2.304   4.025  21.566  0.00  0.00    +0.000 A 
ATOM      7  N   UNL     1       2.711   2.740  21.753  0.00  0.00    +0.000 NA
ATOM      8  C   UNL     1       3.373   2.165  20.736  0.00  0.00    +0.000 A 
ATOM      9  C   UNL     1       3.642   2.829  19.552  0.00  0.00    +0.000 A 
ATOM     10  C   UNL     1       3.218   4.165  19.392  0.00  0.00    +0.000 A 
ENDROOT
BRANCH   3  11
ATOM     11  C   UNL     1       1.894   8.121  19.162  0.00  0.00    +0.000 A 
ATOM     12  C   UNL     1       2.132   8.898  18.020  0.00  0.00    +0.000 A 
ATOM     13  C   UNL     1       1.714  10.219  18.000  0.00  0.00    +0.000 A 
ATOM     14  N   UNL     1       1.078  10.821  19.025  0.00  0.00    +0.000 NA
ATOM     15  C   UNL     1       0.844  10.066  20.117  0.00  0.00    +0.000 A 
ATOM     16  C   UNL     1       1.225   8.738  20.229  0.00  0.00    +0.000 A 
ENDBRANCH   3  11
BRANCH   1  17
ATOM     17  N   UNL     1       4.041   4.406  17.131  0.00  0.00    +0.000 N 
ATOM     18  H   UNL     1       3.622   3.596  16.696  0.00  0.00    +0.000 HD
BRANCH  17  19
ATOM     19  C   UNL     1       5.352   4.803  16.587  0.00  0.00    +0.000 C 
ATOM     20  C   UNL     1       5.355   6.193  15.940  0.00  0.00    +0.000 C 
ATOM     21  C   UNL     1       5.782   3.720  15.585  0.00  0.00    +0.000 C 
BRANCH  19  22
ATOM     22  C   UNL     1       6.394   4.809  17.754  0.00  0.00    +0.000 C 
BRANCH  22  24
ATOM     23  C   UNL     1       7.904   6.209  18.930  0.00  0.00    +0.000 C 
ATOM     24  O   UNL     1       6.740   6.153  18.117  0.00  0.00    +0.000 OA
ENDBRANCH  22  24
ENDBRANCH  19  22
ENDBRANCH  17  19
ENDBRANCH   1  17
TORSDOF 5
ENDMDL
MODEL 9
REMARK VINA RESULT:      -7.1      2.121      4.172
REMARK  Name = 
REMARK  8 active torsions:
REMARK  status: ('A' for Active; 'I' for Inactive)
REMARK    1  A    between atoms: C_1  and  O_2
REMARK    2  A    between atoms: O_2  and  C_3
REMARK    3  A    between atoms: C_3  and  C_4
REMARK    4  A    between atoms: C_4  and  C_5
REMARK    5  A    between atoms: C_4  and  C_6
REMARK    6  A    between atoms: C_4  and  N_7
REMARK    7  A    between atoms: N_7  and  C_8
REMARK    8  A    between atoms: C_10  and  C_11
REMARK                            x       y       z     vdW  Elec       q    Type
REMARK                         _______ _______ _______ _____ _____    ______ ____
ROOT
ATOM      1  C   UNL     1       4.625   5.134  19.064  0.00  0.00    +0.000 A 
ATOM      2  N   UNL     1       4.063   6.348  19.107  0.00  0.00    +0.000 NA
ATOM      3  C   UNL     1       2.754   6.478  18.839  0.00  0.00    +0.000 A 
ATOM      4  N   UNL     1       1.952   5.466  18.480  0.00  0.00    +0.000 NA
ATOM      5  C   UNL     1       2.510   4.251  18.432  0.00  0.00    +0.000 A 
ATOM      6  C   UNL     1       1.754   3.145  18.082  0.00  0.00    +0.000 A 
ATOM      7  N   UNL     1       2.201   1.863  17.993  0.00  0.00    +0.000 NA
ATOM      8  C   UNL     1       3.500   1.660  18.266  0.00  0.00    +0.000 A 
ATOM      9  C   UNL     1       4.356   2.686  18.626  0.00  0.00    +0.000 A 
ATOM     10  C   UNL     1       3.861   4.003  18.721  0.00  0.00    +0.000 A 
ENDROOT
BRANCH   3  11
ATOM     11  C   UNL     1       2.160   7.812  18.969  0.00  0.00    +0.000 A 
ATOM     12  C   UNL     1       2.182   8.731  17.912  0.00  0.00    +0.000 A 
ATOM     13  C   UNL     1       1.609   9.980  18.088  0.00  0.00    +0.000 A 
ATOM     14  N   UNL     1       1.017  10.381  19.232  0.00  0.00    +0.000 NA
ATOM     15  C   UNL     1       0.991   9.489  20.242  0.00  0.00    +0.000 A 
ATOM     16  C   UNL     1       1.538   8.218  20.159  0.00  0.00    +0.000 A 
ENDBRANCH   3  11
BRANCH   1  17
ATOM     17  N   UNL     1       5.979   5.013  19.304  0.00  0.00    +0.000 N 
ATOM     18  H   UNL     1       6.273   4.650  20.200  0.00  0.00    +0.000 HD
BRANCH  17  19
ATOM     19  C   UNL     1       7.067   5.496  18.434  0.00  0.00    +0.000 C 
ATOM     20  C   UNL     1       7.625   4.421  17.494  0.00  0.00    +0.000 C 
ATOM     21  C   UNL     1       8.165   6.067  19.344  0.00  0.00    +0.000 C 
BRANCH  19  22
ATOM     22  C   UNL     1       6.520   6.670  17.557  0.00  0.00    +0.000 C 
BRANCH  22  24
ATOM     23  C   UNL     1       5.176   6.340  15.631  0.00  0.00    +0.000 C 
ATOM     24  O   UNL     1       6.489   6.296  16.172  0.00  0.00    +0.000 OA
ENDBRANCH  22  24
ENDBRANCH  19  22
ENDBRANCH  17  19
ENDBRANCH   1  17
TORSDOF 5
ENDMDL
