MODEL 1
REMARK VINA RESULT:      -8.4      0.000      0.000
REMARK  Name = 
REMARK  5 active torsions:
REMARK  status: ('A' for Active; 'I' for Inactive)
REMARK    1  A    between atoms: C_1  and  S_2
REMARK    2  A    between atoms: S_2  and  C_5
REMARK    3  A    between atoms: C_8  and  C_9
REMARK    4  A    between atoms: C_9  and  C_10
REMARK    5  A    between atoms: C_19  and  C_20
REMARK                            x       y       z     vdW  Elec       q    Type
REMARK                         _______ _______ _______ _____ _____    ______ ____
ROOT
ATOM      1  C   UNL     1       4.802   4.904  18.024  0.00  0.00    +0.000 C 
ATOM      2  C   UNL     1       5.387   4.337  19.320  0.00  0.00    +0.000 C 
ATOM      3  C   UNL     1       4.557   3.439  18.451  0.00  0.00    +0.000 C 
ENDROOT
BRANCH   1   4
ATOM      4  C   UNL     1       5.859   5.208  16.963  0.00  0.00    +0.000 C 
ATOM      5  O   UNL     1       6.605   6.159  17.141  0.00  0.00    +0.000 OA
ATOM      6  N   UNL     1       5.794   4.387  15.862  0.00  0.00    +0.000 N 
ATOM      7  C   UNL     1       6.554   4.643  14.753  0.00  0.00    +0.000 A 
ATOM      8  N   UNL     1       7.556   5.471  14.611  0.00  0.00    +0.000 NA
ATOM      9  C   UNL     1       7.975   5.469  13.298  0.00  0.00    +0.000 A 
ATOM     10  C   UNL     1       7.280   4.625  12.456  0.00  0.00    +0.000 A 
ATOM     11  S   UNL     1       6.093   3.770  13.358  0.00  0.00    +0.000 S 
ATOM     12  H   UNL     1       5.063   3.701  15.775  0.00  0.00    +0.000 HD
ENDBRANCH   1   4
BRANCH   1  16
ATOM     13  C   UNL     1       2.133   8.295  18.551  0.00  0.00    +0.000 A 
ATOM     14  C   UNL     1       2.719   8.066  17.304  0.00  0.00    +0.000 A 
ATOM     15  C   UNL     1       3.501   6.923  17.105  0.00  0.00    +0.000 A 
ATOM     16  C   UNL     1       3.734   5.998  18.140  0.00  0.00    +0.000 A 
ATOM     17  C   UNL     1       3.088   6.238  19.371  0.00  0.00    +0.000 A 
ATOM     18  C   UNL     1       2.300   7.374  19.584  0.00  0.00    +0.000 A 
BRANCH  13  20
ATOM     19  C   UNL     1      -0.210   9.729  17.999  0.00  0.00    +0.000 C 
ATOM     20  S   UNL     1       1.331   9.852  18.872  0.00  0.00    +0.000 S 
ATOM     21  O   UNL     1       2.123  10.882  18.232  0.00  0.00    +0.000 OA
ATOM     22  O   UNL     1       1.033   9.907  20.289  0.00  0.00    +0.000 OA
ENDBRANCH  13  20
ENDBRANCH   1  16
BRANCH   3  23
ATOM     23  C   UNL     1       3.293   2.875  19.070  0.00  0.00    +0.000 C 
ATOM     24  C   UNL     1       2.060   3.220  18.206  0.00  0.00    +0.000 C 
ATOM     25  C   UNL     1       0.765   2.688  18.821  0.00  0.00    +0.000 C 
ATOM     26  C   UNL     1       0.570   3.192  20.246  0.00  0.00    +0.000 C 
ATOM     27  C   UNL     1       1.791   2.899  21.116  0.00  0.00    +0.000 C 
ATOM     28  C   UNL     1       3.080   3.428  20.489  0.00  0.00    +0.000 C 
ENDBRANCH   3  23
TORSDOF 4
ENDMDL
MODEL 2
REMARK VINA RESULT:      -8.3      4.855      9.011
REMARK  Name = 
REMARK  5 active torsions:
REMARK  status: ('A' for Active; 'I' for Inactive)
REMARK    1  A    between atoms: C_1  and  S_2
REMARK    2  A    between atoms: S_2  and  C_5
REMARK    3  A    between atoms: C_8  and  C_9
REMARK    4  A    between atoms: C_9  and  C_10
REMARK    5  A    between atoms: C_19  and  C_20
REMARK                            x       y       z     vdW  Elec       q    Type
REMARK                         _______ _______ _______ _____ _____    ______ ____
ROOT
ATOM      1  C   UNL     1       0.357  11.669  19.498  0.00  0.00    +0.000 C 
ATOM      2  C   UNL     1       0.000  12.522  18.278  0.00  0.00    +0.000 C 
ATOM      3  C   UNL     1      -1.090  12.149  19.238  0.00  0.00    +0.000 C 
ENDROOT
BRANCH   1   4
ATOM      4  C   UNL     1       1.217  12.407  20.523  0.00  0.00    +0.000 C 
ATOM      5  O   UNL     1       0.860  12.405  21.692  0.00  0.00    +0.000 OA
ATOM      6  N   UNL     1       2.292  13.067  19.975  0.00  0.00    +0.000 N 
ATOM      7  C   UNL     1       3.053  13.914  20.733  0.00  0.00    +0.000 A 
ATOM      8  N   UNL     1       3.071  14.071  22.032  0.00  0.00    +0.000 NA
ATOM      9  C   UNL     1       3.933  15.095  22.362  0.00  0.00    +0.000 A 
ATOM     10  C   UNL     1       4.565  15.703  21.297  0.00  0.00    +0.000 A 
ATOM     11  S   UNL     1       4.098  14.926  19.836  0.00  0.00    +0.000 S 
ATOM     12  H   UNL     1       2.428  13.087  18.978  0.00  0.00    +0.000 HD
ENDBRANCH   1   4
BRANCH   1  16
ATOM     13  C   UNL     1       2.128   7.750  18.862  0.00  0.00    +0.000 A 
ATOM     14  C   UNL     1       1.628   8.085  20.123  0.00  0.00    +0.000 A 
ATOM     15  C   UNL     1       0.971   9.307  20.307  0.00  0.00    +0.000 A 
ATOM     16  C   UNL     1       0.816  10.227  19.254  0.00  0.00    +0.000 A 
ATOM     17  C   UNL     1       1.291   9.834  17.984  0.00  0.00    +0.000 A 
ATOM     18  C   UNL     1       1.946   8.615  17.784  0.00  0.00    +0.000 A 
BRANCH  13  20
ATOM     19  C   UNL     1       2.079   5.105  17.940  0.00  0.00    +0.000 C 
ATOM     20  S   UNL     1       3.154   6.308  18.679  0.00  0.00    +0.000 S 
ATOM     21  O   UNL     1       3.487   5.846  20.012  0.00  0.00    +0.000 OA
ATOM     22  O   UNL     1       4.190   6.626  17.717  0.00  0.00    +0.000 OA
ENDBRANCH  13  20
ENDBRANCH   1  16
BRANCH   3  23
ATOM     23  C   UNL     1      -2.232  11.322  18.681  0.00  0.00    +0.000 C 
ATOM     24  C   UNL     1      -2.089  11.153  17.152  0.00  0.00    +0.000 C 
ATOM     25  C   UNL     1      -3.244  10.347  16.557  0.00  0.00    +0.000 C 
ATOM     26  C   UNL     1      -4.595  10.963  16.897  0.00  0.00    +0.000 C 
ATOM     27  C   UNL     1      -4.750  11.179  18.400  0.00  0.00    +0.000 C 
ATOM     28  C   UNL     1      -3.588  11.979  18.987  0.00  0.00    +0.000 C 
ENDBRANCH   3  23
TORSDOF 4
ENDMDL
MODEL 3
REMARK VINA RESULT:      -8.2      5.139      9.735
REMARK  Name = 
REMARK  5 active torsions:
REMARK  status: ('A' for Active; 'I' for Inactive)
REMARK    1  A    between atoms: C_1  and  S_2
REMARK    2  A    between atoms: S_2  and  C_5
REMARK    3  A    between atoms: C_8  and  C_9
REMARK    4  A    between atoms: C_9  and  C_10
REMARK    5  A    between atoms: C_19  and  C_20
REMARK                            x       y       z     vdW  Elec       q    Type
REMARK                         _______ _______ _______ _____ _____    ______ ____
ROOT
ATOM      1  C   UNL     1       0.128  11.231  19.201  0.00  0.00    +0.000 C 
ATOM      2  C   UNL     1       0.039  12.130  20.437  0.00  0.00    +0.000 C 
ATOM      3  C   UNL     1       0.705  12.666  19.205  0.00  0.00    +0.000 C 
ENDROOT
BRANCH   1   4
ATOM      4  C   UNL     1      -1.226  10.972  18.542  0.00  0.00    +0.000 C 
ATOM      5  O   UNL     1      -1.249  10.381  17.473  0.00  0.00    +0.000 OA
ATOM      6  N   UNL     1      -2.290  11.516  19.223  0.00  0.00    +0.000 N 
ATOM      7  C   UNL     1      -3.543  11.522  18.673  0.00  0.00    +0.000 A 
ATOM      8  N   UNL     1      -3.989  10.879  17.626  0.00  0.00    +0.000 NA
ATOM      9  C   UNL     1      -5.295  11.245  17.381  0.00  0.00    +0.000 A 
ATOM     10  C   UNL     1      -5.826  12.168  18.257  0.00  0.00    +0.000 A 
ATOM     11  S   UNL     1      -4.659  12.549  19.461  0.00  0.00    +0.000 S 
ATOM     12  H   UNL     1      -2.140  12.079  20.044  0.00  0.00    +0.000 HD
ENDBRANCH   1   4
BRANCH   1  16
ATOM     13  C   UNL     1       2.202   7.413  19.336  0.00  0.00    +0.000 A 
ATOM     14  C   UNL     1       2.279   8.200  18.185  0.00  0.00    +0.000 A 
ATOM     15  C   UNL     1       1.693   9.471  18.172  0.00  0.00    +0.000 A 
ATOM     16  C   UNL     1       1.005   9.977  19.289  0.00  0.00    +0.000 A 
ATOM     17  C   UNL     1       0.988   9.175  20.450  0.00  0.00    +0.000 A 
ATOM     18  C   UNL     1       1.572   7.904  20.479  0.00  0.00    +0.000 A 
BRANCH  13  20
ATOM     19  C   UNL     1       1.943   4.965  20.674  0.00  0.00    +0.000 C 
ATOM     20  S   UNL     1       2.745   5.719  19.281  0.00  0.00    +0.000 S 
ATOM     21  O   UNL     1       4.171   5.717  19.535  0.00  0.00    +0.000 OA
ATOM     22  O   UNL     1       2.197   5.122  18.079  0.00  0.00    +0.000 OA
ENDBRANCH  13  20
ENDBRANCH   1  16
BRANCH   3  23
ATOM     23  C   UNL     1       2.165  13.054  19.336  0.00  0.00    +0.000 C 
ATOM     24  C   UNL     1       2.411  13.820  20.655  0.00  0.00    +0.000 C 
ATOM     25  C   UNL     1       3.870  14.250  20.802  0.00  0.00    +0.000 C 
ATOM     26  C   UNL     1       4.334  15.083  19.613  0.00  0.00    +0.000 C 
ATOM     27  C   UNL     1       4.068  14.368  18.291  0.00  0.00    +0.000 C 
ATOM     28  C   UNL     1       2.609  13.935  18.157  0.00  0.00    +0.000 C 
ENDBRANCH   3  23
TORSDOF 4
ENDMDL
MODEL 4
REMARK VINA RESULT:      -8.1      5.160      9.734
REMARK  Name = 
REMARK  5 active torsions:
REMARK  status: ('A' for Active; 'I' for Inactive)
REMARK    1  A    between atoms: C_1  and  S_2
REMARK    2  A    between atoms: S_2  and  C_5
REMARK    3  A    between atoms: C_8  and  C_9
REMARK    4  A    between atoms: C_9  and  C_10
REMARK    5  A    between atoms: C_19  and  C_20
REMARK                            x       y       z     vdW  Elec       q    Type
REMARK                         _______ _______ _______ _____ _____    ______ ____
ROOT
ATOM      1  C   UNL     1       0.164  11.211  19.161  0.00  0.00    +0.000 C 
ATOM      2  C   UNL     1       0.098  12.008  20.467  0.00  0.00    +0.000 C 
ATOM      3  C   UNL     1       0.700  12.659  19.257  0.00  0.00    +0.000 C 
ENDROOT
BRANCH   1   4
ATOM      4  C   UNL     1      -1.206  10.961  18.534  0.00  0.00    +0.000 C 
ATOM      5  O   UNL     1      -1.258  10.376  17.462  0.00  0.00    +0.000 OA
ATOM      6  N   UNL     1      -2.251  11.506  19.244  0.00  0.00    +0.000 N 
ATOM      7  C   UNL     1      -3.517  11.520  18.724  0.00  0.00    +0.000 A 
ATOM      8  N   UNL     1      -3.991  10.884  17.685  0.00  0.00    +0.000 NA
ATOM      9  C   UNL     1      -5.301  11.257  17.473  0.00  0.00    +0.000 A 
ATOM     10  C   UNL     1      -5.807  12.177  18.367  0.00  0.00    +0.000 A 
ATOM     11  S   UNL     1      -4.609  12.547  19.544  0.00  0.00    +0.000 S 
ATOM     12  H   UNL     1      -2.079  12.064  20.063  0.00  0.00    +0.000 HD
ENDBRANCH   1   4
BRANCH   1  16
ATOM     13  C   UNL     1       2.352   7.463  18.912  0.00  0.00    +0.000 A 
ATOM     14  C   UNL     1       2.374   8.348  17.832  0.00  0.00    +0.000 A 
ATOM     15  C   UNL     1       1.752   9.596  17.944  0.00  0.00    +0.000 A 
ATOM     16  C   UNL     1       1.079   9.982  19.118  0.00  0.00    +0.000 A 
ATOM     17  C   UNL     1       1.118   9.083  20.205  0.00  0.00    +0.000 A 
ATOM     18  C   UNL     1       1.740   7.833  20.108  0.00  0.00    +0.000 A 
BRANCH  13  20
ATOM     19  C   UNL     1       4.436   5.989  17.757  0.00  0.00    +0.000 C 
ATOM     20  S   UNL     1       2.942   5.798  18.696  0.00  0.00    +0.000 S 
ATOM     21  O   UNL     1       1.979   5.106  17.863  0.00  0.00    +0.000 OA
ATOM     22  O   UNL     1       3.304   5.288  20.004  0.00  0.00    +0.000 OA
ENDBRANCH  13  20
ENDBRANCH   1  16
BRANCH   3  23
ATOM     23  C   UNL     1       2.152  13.082  19.365  0.00  0.00    +0.000 C 
ATOM     24  C   UNL     1       2.400  13.855  20.680  0.00  0.00    +0.000 C 
ATOM     25  C   UNL     1       3.851  14.319  20.803  0.00  0.00    +0.000 C 
ATOM     26  C   UNL     1       4.277  15.161  19.606  0.00  0.00    +0.000 C 
ATOM     27  C   UNL     1       4.007  14.439  18.289  0.00  0.00    +0.000 C 
ATOM     28  C   UNL     1       2.556  13.972  18.178  0.00  0.00    +0.000 C 
ENDBRANCH   3  23
TORSDOF 4
ENDMDL
MODEL 5
REMARK VINA RESULT:      -7.8      0.824      1.370
REMARK  Name = 
REMARK  5 active torsions:
REMARK  status: ('A' for Active; 'I' for Inactive)
REMARK    1  A    between atoms: C_1  and  S_2
REMARK    2  A    between atoms: S_2  and  C_5
REMARK    3  A    between atoms: C_8  and  C_9
REMARK    4  A    between atoms: C_9  and  C_10
REMARK    5  A    between atoms: C_19  and  C_20
REMARK                            x       y       z     vdW  Elec       q    Type
REMARK                         _______ _______ _______ _____ _____    ______ ____
ROOT
ATOM      1  C   UNL     1       4.980   4.841  17.793  0.00  0.00    +0.000 C 
ATOM      2  C   UNL     1       5.503   3.975  18.943  0.00  0.00    +0.000 C 
ATOM      3  C   UNL     1       4.464   3.402  18.026  0.00  0.00    +0.000 C 
ENDROOT
BRANCH   1   4
ATOM      4  C   UNL     1       6.021   5.094  16.704  0.00  0.00    +0.000 C 
ATOM      5  O   UNL     1       6.838   5.987  16.876  0.00  0.00    +0.000 OA
ATOM      6  N   UNL     1       5.863   4.305  15.588  0.00  0.00    +0.000 N 
ATOM      7  C   UNL     1       6.603   4.533  14.460  0.00  0.00    +0.000 A 
ATOM      8  N   UNL     1       7.655   5.293  14.301  0.00  0.00    +0.000 NA
ATOM      9  C   UNL     1       8.030   5.291  12.975  0.00  0.00    +0.000 A 
ATOM     10  C   UNL     1       7.250   4.518  12.140  0.00  0.00    +0.000 A 
ATOM     11  S   UNL     1       6.035   3.727  13.064  0.00  0.00    +0.000 S 
ATOM     12  H   UNL     1       5.083   3.674  15.513  0.00  0.00    +0.000 HD
ENDBRANCH   1   4
BRANCH   1  16
ATOM     13  C   UNL     1       2.283   8.155  18.590  0.00  0.00    +0.000 A 
ATOM     14  C   UNL     1       2.537   7.217  19.592  0.00  0.00    +0.000 A 
ATOM     15  C   UNL     1       3.478   6.204  19.372  0.00  0.00    +0.000 A 
ATOM     16  C   UNL     1       4.167   6.090  18.151  0.00  0.00    +0.000 A 
ATOM     17  C   UNL     1       3.919   7.083  17.179  0.00  0.00    +0.000 A 
ATOM     18  C   UNL     1       2.985   8.103  17.387  0.00  0.00    +0.000 A 
BRANCH  13  20
ATOM     19  C   UNL     1       1.695  10.895  18.611  0.00  0.00    +0.000 C 
ATOM     20  S   UNL     1       0.934   9.301  18.781  0.00  0.00    +0.000 S 
ATOM     21  O   UNL     1       0.457   9.179  20.143  0.00  0.00    +0.000 OA
ATOM     22  O   UNL     1       0.039   9.116  17.655  0.00  0.00    +0.000 OA
ENDBRANCH  13  20
ENDBRANCH   1  16
BRANCH   3  23
ATOM     23  C   UNL     1       3.144   3.006  18.660  0.00  0.00    +0.000 C 
ATOM     24  C   UNL     1       1.970   3.762  17.999  0.00  0.00    +0.000 C 
ATOM     25  C   UNL     1       0.629   3.403  18.638  0.00  0.00    +0.000 C 
ATOM     26  C   UNL     1       0.637   3.650  20.141  0.00  0.00    +0.000 C 
ATOM     27  C   UNL     1       1.810   2.947  20.819  0.00  0.00    +0.000 C 
ATOM     28  C   UNL     1       3.146   3.305  20.168  0.00  0.00    +0.000 C 
ENDBRANCH   3  23
TORSDOF 4
ENDMDL
MODEL 6
REMARK VINA RESULT:      -7.7      6.190      9.873
REMARK  Name = 
REMARK  5 active torsions:
REMARK  status: ('A' for Active; 'I' for Inactive)
REMARK    1  A    between atoms: C_1  and  S_2
REMARK    2  A    between atoms: S_2  and  C_5
REMARK    3  A    between atoms: C_8  and  C_9
REMARK    4  A    between atoms: C_9  and  C_10
REMARK    5  A    between atoms: C_19  and  C_20
REMARK                            x       y       z     vdW  Elec       q    Type
REMARK                         _______ _______ _______ _____ _____    ______ ____
ROOT
ATOM      1  C   UNL     1      -0.075  11.204  20.730  0.00  0.00    +0.000 C 
ATOM      2  C   UNL     1      -0.836  10.270  19.785  0.00  0.00    +0.000 C 
ATOM      3  C   UNL     1       0.226   9.689  20.669  0.00  0.00    +0.000 C 
ENDROOT
BRANCH   1   4
ATOM      4  C   UNL     1      -0.937  11.750  21.867  0.00  0.00    +0.000 C 
ATOM      5  O   UNL     1      -0.524  11.647  23.012  0.00  0.00    +0.000 OA
ATOM      6  N   UNL     1      -2.152  12.246  21.455  0.00  0.00    +0.000 N 
ATOM      7  C   UNL     1      -3.106  12.608  22.367  0.00  0.00    +0.000 A 
ATOM      8  N   UNL     1      -2.994  12.770  23.660  0.00  0.00    +0.000 NA
ATOM      9  C   UNL     1      -4.229  13.056  24.199  0.00  0.00    +0.000 A 
ATOM     10  C   UNL     1      -5.271  13.112  23.296  0.00  0.00    +0.000 A 
ATOM     11  S   UNL     1      -4.665  12.845  21.709  0.00  0.00    +0.000 S 
ATOM     12  H   UNL     1      -2.433  12.181  20.491  0.00  0.00    +0.000 HD
ENDBRANCH   1   4
BRANCH   1  16
ATOM     13  C   UNL     1       2.187  14.550  19.123  0.00  0.00    +0.000 A 
ATOM     14  C   UNL     1       2.549  14.001  20.355  0.00  0.00    +0.000 A 
ATOM     15  C   UNL     1       1.885  12.864  20.830  0.00  0.00    +0.000 A 
ATOM     16  C   UNL     1       0.839  12.264  20.105  0.00  0.00    +0.000 A 
ATOM     17  C   UNL     1       0.533  12.817  18.844  0.00  0.00    +0.000 A 
ATOM     18  C   UNL     1       1.191  13.951  18.354  0.00  0.00    +0.000 A 
BRANCH  13  20
ATOM     19  C   UNL     1       1.445  17.105  18.240  0.00  0.00    +0.000 C 
ATOM     20  S   UNL     1       2.870  16.117  18.625  0.00  0.00    +0.000 S 
ATOM     21  O   UNL     1       3.601  15.894  17.394  0.00  0.00    +0.000 OA
ATOM     22  O   UNL     1       3.514  16.703  19.783  0.00  0.00    +0.000 OA
ENDBRANCH  13  20
ENDBRANCH   1  16
BRANCH   3  23
ATOM     23  C   UNL     1       1.400   9.026  19.974  0.00  0.00    +0.000 C 
ATOM     24  C   UNL     1       1.251   9.121  18.439  0.00  0.00    +0.000 C 
ATOM     25  C   UNL     1       2.407   8.435  17.711  0.00  0.00    +0.000 C 
ATOM     26  C   UNL     1       2.558   6.981  18.138  0.00  0.00    +0.000 C 
ATOM     27  C   UNL     1       2.668   6.851  19.655  0.00  0.00    +0.000 C 
ATOM     28  C   UNL     1       1.513   7.546  20.374  0.00  0.00    +0.000 C 
ENDBRANCH   3  23
TORSDOF 4
ENDMDL
MODEL 7
REMARK VINA RESULT:      -7.7      5.970      9.587
REMARK  Name = 
REMARK  5 active torsions:
REMARK  status: ('A' for Active; 'I' for Inactive)
REMARK    1  A    between atoms: C_1  and  S_2
REMARK    2  A    between atoms: S_2  and  C_5
REMARK    3  A    between atoms: C_8  and  C_9
REMARK    4  A    between atoms: C_9  and  C_10
REMARK    5  A    between atoms: C_19  and  C_20
REMARK                            x       y       z     vdW  Elec       q    Type
REMARK                         _______ _______ _______ _____ _____    ______ ____
ROOT
ATOM      1  C   UNL     1       0.251  11.031  20.568  0.00  0.00    +0.000 C 
ATOM      2  C   UNL     1      -0.489  10.215  19.505  0.00  0.00    +0.000 C 
ATOM      3  C   UNL     1       0.413   9.497  20.464  0.00  0.00    +0.000 C 
ENDROOT
BRANCH   1   4
ATOM      4  C   UNL     1      -0.673  11.615  21.636  0.00  0.00    +0.000 C 
ATOM      5  O   UNL     1      -0.361  11.485  22.810  0.00  0.00    +0.000 OA
ATOM      6  N   UNL     1      -1.822  12.177  21.130  0.00  0.00    +0.000 N 
ATOM      7  C   UNL     1      -2.828  12.582  21.965  0.00  0.00    +0.000 A 
ATOM      8  N   UNL     1      -2.815  12.731  23.264  0.00  0.00    +0.000 NA
ATOM      9  C   UNL     1      -4.074  13.078  23.703  0.00  0.00    +0.000 A 
ATOM     10  C   UNL     1      -5.033  13.193  22.718  0.00  0.00    +0.000 A 
ATOM     11  S   UNL     1      -4.313  12.904  21.183  0.00  0.00    +0.000 S 
ATOM     12  H   UNL     1      -2.026  12.131  20.146  0.00  0.00    +0.000 HD
ENDBRANCH   1   4
BRANCH   1  16
ATOM     13  C   UNL     1       2.917  14.163  19.160  0.00  0.00    +0.000 A 
ATOM     14  C   UNL     1       2.772  13.945  20.532  0.00  0.00    +0.000 A 
ATOM     15  C   UNL     1       1.991  12.877  20.987  0.00  0.00    +0.000 A 
ATOM     16  C   UNL     1       1.323  12.019  20.094  0.00  0.00    +0.000 A 
ATOM     17  C   UNL     1       1.531  12.240  18.716  0.00  0.00    +0.000 A 
ATOM     18  C   UNL     1       2.312  13.301  18.247  0.00  0.00    +0.000 A 
BRANCH  13  20
ATOM     19  C   UNL     1       5.253  15.066  17.903  0.00  0.00    +0.000 C 
ATOM     20  S   UNL     1       3.720  15.644  18.586  0.00  0.00    +0.000 S 
ATOM     21  O   UNL     1       4.028  16.445  19.753  0.00  0.00    +0.000 OA
ATOM     22  O   UNL     1       2.926  16.179  17.498  0.00  0.00    +0.000 OA
ENDBRANCH  13  20
ENDBRANCH   1  16
BRANCH   3  23
ATOM     23  C   UNL     1       1.587   8.749  19.862  0.00  0.00    +0.000 C 
ATOM     24  C   UNL     1       1.517   8.774  18.319  0.00  0.00    +0.000 C 
ATOM     25  C   UNL     1       2.674   8.003  17.684  0.00  0.00    +0.000 C 
ATOM     26  C   UNL     1       2.736   6.565  18.186  0.00  0.00    +0.000 C 
ATOM     27  C   UNL     1       2.765   6.506  19.711  0.00  0.00    +0.000 C 
ATOM     28  C   UNL     1       1.610   7.287  20.337  0.00  0.00    +0.000 C 
ENDBRANCH   3  23
TORSDOF 4
ENDMDL
MODEL 8
REMARK VINA RESULT:      -7.7      4.161      7.550
REMARK  Name = 
REMARK  5 active torsions:
REMARK  status: ('A' for Active; 'I' for Inactive)
REMARK    1  A    between atoms: C_1  and  S_2
REMARK    2  A    between atoms: S_2  and  C_5
REMARK    3  A    between atoms: C_8  and  C_9
REMARK    4  A    between atoms: C_9  and  C_10
REMARK    5  A    between atoms: C_19  and  C_20
REMARK                            x       y       z     vdW  Elec       q    Type
REMARK                         _______ _______ _______ _____ _____    ______ ____
ROOT
ATOM      1  C   UNL     1       0.746  10.306  18.897  0.00  0.00    +0.000 C 
ATOM      2  C   UNL     1      -0.186   9.789  19.996  0.00  0.00    +0.000 C 
ATOM      3  C   UNL     1      -0.769  10.118  18.654  0.00  0.00    +0.000 C 
ENDROOT
BRANCH   1   4
ATOM      4  C   UNL     1       1.724   9.249  18.385  0.00  0.00    +0.000 C 
ATOM      5  O   UNL     1       2.185   9.380  17.261  0.00  0.00    +0.000 OA
ATOM      6  N   UNL     1       1.918   8.203  19.256  0.00  0.00    +0.000 N 
ATOM      7  C   UNL     1       2.623   7.095  18.871  0.00  0.00    +0.000 A 
ATOM      8  N   UNL     1       3.375   6.919  17.815  0.00  0.00    +0.000 NA
ATOM      9  C   UNL     1       3.827   5.618  17.781  0.00  0.00    +0.000 A 
ATOM     10  C   UNL     1       3.411   4.819  18.826  0.00  0.00    +0.000 A 
ATOM     11  S   UNL     1       2.460   5.751  19.913  0.00  0.00    +0.000 S 
ATOM     12  H   UNL     1       1.398   8.147  20.115  0.00  0.00    +0.000 HD
ENDBRANCH   1   4
BRANCH   1  16
ATOM     13  C   UNL     1       2.997  13.953  19.628  0.00  0.00    +0.000 A 
ATOM     14  C   UNL     1       2.931  13.431  18.335  0.00  0.00    +0.000 A 
ATOM     15  C   UNL     1       2.129  12.312  18.078  0.00  0.00    +0.000 A 
ATOM     16  C   UNL     1       1.397  11.680  19.099  0.00  0.00    +0.000 A 
ATOM     17  C   UNL     1       1.450  12.264  20.382  0.00  0.00    +0.000 A 
ATOM     18  C   UNL     1       2.243  13.384  20.653  0.00  0.00    +0.000 A 
BRANCH  13  20
ATOM     19  C   UNL     1       5.109  15.407  18.498  0.00  0.00    +0.000 C 
ATOM     20  S   UNL     1       4.182  15.228  20.001  0.00  0.00    +0.000 S 
ATOM     21  O   UNL     1       5.074  14.700  21.013  0.00  0.00    +0.000 OA
ATOM     22  O   UNL     1       3.449  16.459  20.218  0.00  0.00    +0.000 OA
ENDBRANCH  13  20
ENDBRANCH   1  16
BRANCH   3  23
ATOM     23  C   UNL     1      -1.823  11.208  18.620  0.00  0.00    +0.000 C 
ATOM     24  C   UNL     1      -2.160  11.687  20.050  0.00  0.00    +0.000 C 
ATOM     25  C   UNL     1      -3.242  12.767  20.049  0.00  0.00    +0.000 C 
ATOM     26  C   UNL     1      -4.505  12.298  19.337  0.00  0.00    +0.000 C 
ATOM     27  C   UNL     1      -4.198  11.781  17.934  0.00  0.00    +0.000 C 
ATOM     28  C   UNL     1      -3.110  10.708  17.944  0.00  0.00    +0.000 C 
ENDBRANCH   3  23
TORSDOF 4
ENDMDL
MODEL 9
REMARK VINA RESULT:      -7.6      3.898      7.324
REMARK  Name = 
REMARK  5 active torsions:
REMARK  status: ('A' for Active; 'I' for Inactive)
REMARK    1  A    between atoms: C_1  and  S_2
REMARK    2  A    between atoms: S_2  and  C_5
REMARK    3  A    between atoms: C_8  and  C_9
REMARK    4  A    between atoms: C_9  and  C_10
REMARK    5  A    between atoms: C_19  and  C_20
REMARK                            x       y       z     vdW  Elec       q    Type
REMARK                         _______ _______ _______ _____ _____    ______ ____
ROOT
ATOM      1  C   UNL     1       0.613   9.937  18.487  0.00  0.00    +0.000 C 
ATOM      2  C   UNL     1      -0.570   9.279  19.202  0.00  0.00    +0.000 C 
ATOM      3  C   UNL     1      -0.738   9.701  17.772  0.00  0.00    +0.000 C 
ENDROOT
BRANCH   1   4
ATOM      4  C   UNL     1       1.774   8.978  18.227  0.00  0.00    +0.000 C 
ATOM      5  O   UNL     1       2.435   9.127  17.211  0.00  0.00    +0.000 OA
ATOM      6  N   UNL     1       1.895   7.984  19.170  0.00  0.00    +0.000 N 
ATOM      7  C   UNL     1       2.771   6.949  18.985  0.00  0.00    +0.000 A 
ATOM      8  N   UNL     1       3.732   6.825  18.106  0.00  0.00    +0.000 NA
ATOM      9  C   UNL     1       4.311   5.580  18.226  0.00  0.00    +0.000 A 
ATOM     10  C   UNL     1       3.777   4.771  19.207  0.00  0.00    +0.000 A 
ATOM     11  S   UNL     1       2.539   5.625  20.040  0.00  0.00    +0.000 S 
ATOM     12  H   UNL     1       1.222   7.896  19.913  0.00  0.00    +0.000 HD
ENDBRANCH   1   4
BRANCH   1  16
ATOM     13  C   UNL     1       2.265  13.604  20.137  0.00  0.00    +0.000 A 
ATOM     14  C   UNL     1       2.623  13.205  18.847  0.00  0.00    +0.000 A 
ATOM     15  C   UNL     1       2.020  12.078  18.277  0.00  0.00    +0.000 A 
ATOM     16  C   UNL     1       1.069  11.315  18.979  0.00  0.00    +0.000 A 
ATOM     17  C   UNL     1       0.697  11.776  20.260  0.00  0.00    +0.000 A 
ATOM     18  C   UNL     1       1.288  12.902  20.841  0.00  0.00    +0.000 A 
BRANCH  13  20
ATOM     19  C   UNL     1       2.249  16.365  20.618  0.00  0.00    +0.000 C 
ATOM     20  S   UNL     1       3.187  14.894  20.946  0.00  0.00    +0.000 S 
ATOM     21  O   UNL     1       4.455  15.012  20.254  0.00  0.00    +0.000 OA
ATOM     22  O   UNL     1       3.133  14.643  22.372  0.00  0.00    +0.000 OA
ENDBRANCH  13  20
ENDBRANCH   1  16
BRANCH   3  23
ATOM     23  C   UNL     1      -1.808  10.739  17.492  0.00  0.00    +0.000 C 
ATOM     24  C   UNL     1      -2.757  10.886  18.702  0.00  0.00    +0.000 C 
ATOM     25  C   UNL     1      -3.864  11.906  18.437  0.00  0.00    +0.000 C 
ATOM     26  C   UNL     1      -4.657  11.564  17.182  0.00  0.00    +0.000 C 
ATOM     27  C   UNL     1      -3.742  11.373  15.976  0.00  0.00    +0.000 C 
ATOM     28  C   UNL     1      -2.633  10.357  16.253  0.00  0.00    +0.000 C 
ENDBRANCH   3  23
TORSDOF 4
ENDMDL
